data_image0
_cell_length_a       18.5834
_cell_length_b       8.3215
_cell_length_c       19.1366
_cell_angle_alpha    90
_cell_angle_beta     90
_cell_angle_gamma    90

_symmetry_space_group_name_H-M    "P 1"
_symmetry_int_tables_number       1

loop_
  _symmetry_equiv_pos_as_xyz
  'x, y, z'

loop_
  _atom_site_label
  _atom_site_occupancy
  _atom_site_fract_x
  _atom_site_fract_y
  _atom_site_fract_z
  _atom_site_thermal_displace_type
  _atom_site_B_iso_or_equiv
  _atom_site_type_symbol
  Cu1      1.0000 0.56165  0.43062  0.28700  Biso   1.000  Cu
  Cu2      1.0000 0.93835  0.56938  0.78700  Biso   1.000  Cu
  Cu3      1.0000 0.43835  0.93062  0.21300  Biso   1.000  Cu
  Cu4      1.0000 0.06165  0.06938  0.71300  Biso   1.000  Cu
  Cu5      1.0000 0.43835  0.56938  0.71300  Biso   1.000  Cu
  Cu6      1.0000 0.06165  0.43062  0.21300  Biso   1.000  Cu
  Cu7      1.0000 0.56165  0.06938  0.78700  Biso   1.000  Cu
  Cu8      1.0000 0.93835  0.93062  0.28700  Biso   1.000  Cu
  O1       1.0000 0.64917  0.58910  0.34381  Biso   1.000  O
  O2       1.0000 0.85083  0.41090  0.84381  Biso   1.000  O
  O3       1.0000 0.35083  0.08910  0.15619  Biso   1.000  O
  O4       1.0000 0.14917  0.91090  0.65619  Biso   1.000  O
  O5       1.0000 0.35083  0.41090  0.65619  Biso   1.000  O
  O6       1.0000 0.14917  0.58910  0.15619  Biso   1.000  O
  O7       1.0000 0.64917  0.91090  0.84381  Biso   1.000  O
  O8       1.0000 0.85083  0.08910  0.34381  Biso   1.000  O
  O9       1.0000 0.53447  0.65110  0.26192  Biso   1.000  O
  O10      1.0000 0.96553  0.34890  0.76192  Biso   1.000  O
  O11      1.0000 0.46553  0.15110  0.23808  Biso   1.000  O
  O12      1.0000 0.03447  0.84890  0.73808  Biso   1.000  O
  O13      1.0000 0.46553  0.34890  0.73808  Biso   1.000  O
  O14      1.0000 0.03447  0.65110  0.23808  Biso   1.000  O
  O15      1.0000 0.53447  0.84890  0.76192  Biso   1.000  O
  O16      1.0000 0.96553  0.15110  0.26192  Biso   1.000  O
  O17      1.0000 0.65868  0.85180  0.36868  Biso   1.000  O
  O18      1.0000 0.84132  0.14820  0.86868  Biso   1.000  O
  O19      1.0000 0.34132  0.35180  0.13132  Biso   1.000  O
  O20      1.0000 0.15868  0.64820  0.63132  Biso   1.000  O
  O21      1.0000 0.34132  0.14820  0.63132  Biso   1.000  O
  O22      1.0000 0.15868  0.85180  0.13132  Biso   1.000  O
  O23      1.0000 0.65868  0.64820  0.86868  Biso   1.000  O
  O24      1.0000 0.84132  0.35180  0.36868  Biso   1.000  O
  O25      1.0000 0.54528  0.91140  0.28233  Biso   1.000  O
  O26      1.0000 0.95472  0.08860  0.78233  Biso   1.000  O
  O27      1.0000 0.45472  0.41140  0.21767  Biso   1.000  O
  O28      1.0000 0.04528  0.58860  0.71767  Biso   1.000  O
  O29      1.0000 0.45472  0.08860  0.71767  Biso   1.000  O
  O30      1.0000 0.04528  0.91140  0.21767  Biso   1.000  O
  O31      1.0000 0.54528  0.58860  0.78233  Biso   1.000  O
  O32      1.0000 0.95472  0.41140  0.28233  Biso   1.000  O
  N1       1.0000 0.50185  0.40720  0.37356  Biso   1.000  N
  N2       1.0000 0.99815  0.59280  0.87356  Biso   1.000  N
  N3       1.0000 0.49815  0.90720  0.12644  Biso   1.000  N
  N4       1.0000 0.00185  0.09280  0.62644  Biso   1.000  N
  N5       1.0000 0.49815  0.59280  0.62644  Biso   1.000  N
  N6       1.0000 0.00185  0.40720  0.12644  Biso   1.000  N
  N7       1.0000 0.50185  0.09280  0.87356  Biso   1.000  N
  N8       1.0000 0.99815  0.90720  0.37356  Biso   1.000  N
  N9       1.0000 0.62594  0.38480  0.20563  Biso   1.000  N
  N10      1.0000 0.87406  0.61520  0.70563  Biso   1.000  N
  N11      1.0000 0.37406  0.88480  0.29437  Biso   1.000  N
  N12      1.0000 0.12594  0.11520  0.79437  Biso   1.000  N
  N13      1.0000 0.37406  0.61520  0.79437  Biso   1.000  N
  N14      1.0000 0.12594  0.38480  0.29437  Biso   1.000  N
  N15      1.0000 0.62594  0.11520  0.70563  Biso   1.000  N
  N16      1.0000 0.87406  0.88480  0.20563  Biso   1.000  N
  N17      1.0000 0.60376  0.22310  0.32100  Biso   1.000  N
  N18      1.0000 0.89624  0.77690  0.82100  Biso   1.000  N
  N19      1.0000 0.39624  0.72310  0.17900  Biso   1.000  N
  N20      1.0000 0.10376  0.27690  0.67900  Biso   1.000  N
  N21      1.0000 0.39624  0.77690  0.67900  Biso   1.000  N
  N22      1.0000 0.10376  0.22310  0.17900  Biso   1.000  N
  N23      1.0000 0.60376  0.27690  0.82100  Biso   1.000  N
  N24      1.0000 0.89624  0.72310  0.32100  Biso   1.000  N
  H1       1.0000 0.57550  0.13460  0.30130  Biso   1.000  H
  H2       1.0000 0.92450  0.86540  0.80130  Biso   1.000  H
  H3       1.0000 0.42450  0.63460  0.19870  Biso   1.000  H
  H4       1.0000 0.07550  0.36540  0.69870  Biso   1.000  H
  H5       1.0000 0.42450  0.86540  0.69870  Biso   1.000  H
  H6       1.0000 0.07550  0.13460  0.19870  Biso   1.000  H
  H7       1.0000 0.57550  0.36540  0.80130  Biso   1.000  H
  H8       1.0000 0.92450  0.63460  0.30130  Biso   1.000  H
  C1       1.0000 0.63138  0.73460  0.33832  Biso   1.000  C
  C2       1.0000 0.86862  0.26540  0.83832  Biso   1.000  C
  C3       1.0000 0.36862  0.23460  0.16168  Biso   1.000  C
  C4       1.0000 0.13138  0.76540  0.66168  Biso   1.000  C
  C5       1.0000 0.36862  0.26540  0.66168  Biso   1.000  C
  C6       1.0000 0.13138  0.73460  0.16168  Biso   1.000  C
  C7       1.0000 0.63138  0.76540  0.83832  Biso   1.000  C
  C8       1.0000 0.86862  0.23460  0.33832  Biso   1.000  C
  C9       1.0000 0.59693  0.21730  0.39779  Biso   1.000  C
  C10      1.0000 0.90307  0.78270  0.89779  Biso   1.000  C
  C11      1.0000 0.40307  0.71730  0.10221  Biso   1.000  C
  C12      1.0000 0.09693  0.28270  0.60221  Biso   1.000  C
  C13      1.0000 0.40307  0.78270  0.60221  Biso   1.000  C
  C14      1.0000 0.09693  0.21730  0.10221  Biso   1.000  C
  C15      1.0000 0.59693  0.28270  0.89779  Biso   1.000  C
  C16      1.0000 0.90307  0.71730  0.39779  Biso   1.000  C
  H9       1.0000 0.63600  0.27650  0.41940  Biso   1.000  H
  H10      1.0000 0.86400  0.72350  0.91940  Biso   1.000  H
  H11      1.0000 0.36400  0.77650  0.08060  Biso   1.000  H
  H12      1.0000 0.13600  0.22350  0.58060  Biso   1.000  H
  H13      1.0000 0.36400  0.72350  0.58060  Biso   1.000  H
  H14      1.0000 0.13600  0.27650  0.08060  Biso   1.000  H
  H15      1.0000 0.63600  0.22350  0.91940  Biso   1.000  H
  H16      1.0000 0.86400  0.77650  0.41940  Biso   1.000  H
  H17      1.0000 0.59900  0.10680  0.41390  Biso   1.000  H
  H18      1.0000 0.90100  0.89320  0.91390  Biso   1.000  H
  H19      1.0000 0.40100  0.60680  0.08610  Biso   1.000  H
  H20      1.0000 0.09900  0.39320  0.58610  Biso   1.000  H
  H21      1.0000 0.40100  0.89320  0.58610  Biso   1.000  H
  H22      1.0000 0.09900  0.10680  0.08610  Biso   1.000  H
  H23      1.0000 0.59900  0.39320  0.91390  Biso   1.000  H
  H24      1.0000 0.90100  0.60680  0.41390  Biso   1.000  H
  C17      1.0000 0.52577  0.29120  0.41742  Biso   1.000  C
  C18      1.0000 0.97423  0.70880  0.91742  Biso   1.000  C
  C19      1.0000 0.47423  0.79120  0.08258  Biso   1.000  C
  C20      1.0000 0.02577  0.20880  0.58258  Biso   1.000  C
  C21      1.0000 0.47423  0.70880  0.58258  Biso   1.000  C
  C22      1.0000 0.02577  0.29120  0.08258  Biso   1.000  C
  C23      1.0000 0.52577  0.20880  0.91742  Biso   1.000  C
  C24      1.0000 0.97423  0.79120  0.41742  Biso   1.000  C
  C25      1.0000 0.67725  0.27400  0.21948  Biso   1.000  C
  C26      1.0000 0.82275  0.72600  0.71948  Biso   1.000  C
  C27      1.0000 0.32275  0.77400  0.28052  Biso   1.000  C
  C28      1.0000 0.17725  0.22600  0.78052  Biso   1.000  C
  C29      1.0000 0.32275  0.72600  0.78052  Biso   1.000  C
  C30      1.0000 0.17725  0.27400  0.28052  Biso   1.000  C
  C31      1.0000 0.67725  0.22600  0.71948  Biso   1.000  C
  C32      1.0000 0.82275  0.77400  0.21948  Biso   1.000  C
  C33      1.0000 0.43969  0.48200  0.38716  Biso   1.000  C
  C34      1.0000 0.06031  0.51800  0.88716  Biso   1.000  C
  C35      1.0000 0.56031  0.98200  0.11284  Biso   1.000  C
  C36      1.0000 0.93969  0.01800  0.61284  Biso   1.000  C
  C37      1.0000 0.56031  0.51800  0.61284  Biso   1.000  C
  C38      1.0000 0.93969  0.48200  0.11284  Biso   1.000  C
  C39      1.0000 0.43969  0.01800  0.88716  Biso   1.000  C
  C40      1.0000 0.06031  0.98200  0.38716  Biso   1.000  C
  H25      1.0000 0.42400  0.56200  0.35680  Biso   1.000  H
  H26      1.0000 0.07600  0.43800  0.85680  Biso   1.000  H
  H27      1.0000 0.57600  0.06200  0.14320  Biso   1.000  H
  H28      1.0000 0.92400  0.93800  0.64320  Biso   1.000  H
  H29      1.0000 0.57600  0.43800  0.64320  Biso   1.000  H
  H30      1.0000 0.92400  0.56200  0.14320  Biso   1.000  H
  H31      1.0000 0.42400  0.93800  0.85680  Biso   1.000  H
  H32      1.0000 0.07600  0.06200  0.35680  Biso   1.000  H
  C41      1.0000 0.56533  0.77080  0.29063  Biso   1.000  C
  C42      1.0000 0.93467  0.22920  0.79063  Biso   1.000  C
  C43      1.0000 0.43467  0.27080  0.20937  Biso   1.000  C
  C44      1.0000 0.06533  0.72920  0.70937  Biso   1.000  C
  C45      1.0000 0.43467  0.22920  0.70937  Biso   1.000  C
  C46      1.0000 0.06533  0.77080  0.20937  Biso   1.000  C
  C47      1.0000 0.56533  0.72920  0.79063  Biso   1.000  C
  C48      1.0000 0.93467  0.27080  0.29063  Biso   1.000  C
  C49      1.0000 0.62106  0.44810  0.14073  Biso   1.000  C
  C50      1.0000 0.87894  0.55190  0.64073  Biso   1.000  C
  C51      1.0000 0.37894  0.94810  0.35927  Biso   1.000  C
  C52      1.0000 0.12106  0.05190  0.85927  Biso   1.000  C
  C53      1.0000 0.37894  0.55190  0.85927  Biso   1.000  C
  C54      1.0000 0.12106  0.44810  0.35927  Biso   1.000  C
  C55      1.0000 0.62106  0.05190  0.64073  Biso   1.000  C
  C56      1.0000 0.87894  0.94810  0.14073  Biso   1.000  C
  H33      1.0000 0.58560  0.52410  0.13150  Biso   1.000  H
  H34      1.0000 0.91440  0.47590  0.63150  Biso   1.000  H
  H35      1.0000 0.41440  0.02410  0.36850  Biso   1.000  H
  H36      1.0000 0.08560  0.97590  0.86850  Biso   1.000  H
  H37      1.0000 0.41440  0.47590  0.86850  Biso   1.000  H
  H38      1.0000 0.08560  0.52410  0.36850  Biso   1.000  H
  H39      1.0000 0.58560  0.97590  0.63150  Biso   1.000  H
  H40      1.0000 0.91440  0.02410  0.13150  Biso   1.000  H
  C57      1.0000 0.39805  0.44460  0.44456  Biso   1.000  C
  C58      1.0000 0.10195  0.55540  0.94456  Biso   1.000  C
  C59      1.0000 0.60195  0.94460  0.05544  Biso   1.000  C
  C60      1.0000 0.89805  0.05540  0.55544  Biso   1.000  C
  C61      1.0000 0.60195  0.55540  0.55544  Biso   1.000  C
  C62      1.0000 0.89805  0.44460  0.05544  Biso   1.000  C
  C63      1.0000 0.39805  0.05540  0.94456  Biso   1.000  C
  C64      1.0000 0.10195  0.94460  0.44456  Biso   1.000  C
  H41      1.0000 0.35500  0.49840  0.45300  Biso   1.000  H
  H42      1.0000 0.14500  0.50160  0.95300  Biso   1.000  H
  H43      1.0000 0.64500  0.99840  0.04700  Biso   1.000  H
  H44      1.0000 0.85500  0.00160  0.54700  Biso   1.000  H
  H45      1.0000 0.64500  0.50160  0.54700  Biso   1.000  H
  H46      1.0000 0.85500  0.49840  0.04700  Biso   1.000  H
  H47      1.0000 0.35500  0.00160  0.95300  Biso   1.000  H
  H48      1.0000 0.14500  0.99840  0.45300  Biso   1.000  H
  C65      1.0000 0.42190  0.32520  0.48922  Biso   1.000  C
  C66      1.0000 0.07810  0.67480  0.98922  Biso   1.000  C
  C67      1.0000 0.57810  0.82520  0.01078  Biso   1.000  C
  C68      1.0000 0.92190  0.17480  0.51078  Biso   1.000  C
  C69      1.0000 0.57810  0.67480  0.51078  Biso   1.000  C
  C70      1.0000 0.92190  0.32520  0.01078  Biso   1.000  C
  C71      1.0000 0.42190  0.17480  0.98922  Biso   1.000  C
  C72      1.0000 0.07810  0.82520  0.48922  Biso   1.000  C
  H49      1.0000 0.39460  0.29690  0.52810  Biso   1.000  H
  H50      1.0000 0.10540  0.70310  0.02810  Biso   1.000  H
  H51      1.0000 0.60540  0.79690  0.97190  Biso   1.000  H
  H52      1.0000 0.89460  0.20310  0.47190  Biso   1.000  H
  H53      1.0000 0.60540  0.70310  0.47190  Biso   1.000  H
  H54      1.0000 0.89460  0.29690  0.97190  Biso   1.000  H
  H55      1.0000 0.39460  0.20310  0.02810  Biso   1.000  H
  H56      1.0000 0.10540  0.79690  0.52810  Biso   1.000  H
  C73      1.0000 0.67760  0.21190  0.29343  Biso   1.000  C
  C74      1.0000 0.82240  0.78810  0.79343  Biso   1.000  C
  C75      1.0000 0.32240  0.71190  0.20657  Biso   1.000  C
  C76      1.0000 0.17760  0.28810  0.70657  Biso   1.000  C
  C77      1.0000 0.32240  0.78810  0.70657  Biso   1.000  C
  C78      1.0000 0.17760  0.21190  0.20657  Biso   1.000  C
  C79      1.0000 0.67760  0.28810  0.79343  Biso   1.000  C
  C80      1.0000 0.82240  0.71190  0.29343  Biso   1.000  C
  H57      1.0000 0.69380  0.10110  0.29430  Biso   1.000  H
  H58      1.0000 0.80620  0.89890  0.79430  Biso   1.000  H
  H59      1.0000 0.30620  0.60110  0.20570  Biso   1.000  H
  H60      1.0000 0.19380  0.39890  0.70570  Biso   1.000  H
  H61      1.0000 0.30620  0.89890  0.70570  Biso   1.000  H
  H62      1.0000 0.19380  0.10110  0.20570  Biso   1.000  H
  H63      1.0000 0.69380  0.39890  0.79430  Biso   1.000  H
  H64      1.0000 0.80620  0.60110  0.29430  Biso   1.000  H
  H65      1.0000 0.71010  0.27540  0.32190  Biso   1.000  H
  H66      1.0000 0.78990  0.72460  0.82190  Biso   1.000  H
  H67      1.0000 0.28990  0.77540  0.17810  Biso   1.000  H
  H68      1.0000 0.21010  0.22460  0.67810  Biso   1.000  H
  H69      1.0000 0.28990  0.72460  0.67810  Biso   1.000  H
  H70      1.0000 0.21010  0.27540  0.17810  Biso   1.000  H
  H71      1.0000 0.71010  0.22460  0.82190  Biso   1.000  H
  H72      1.0000 0.78990  0.77540  0.32190  Biso   1.000  H
  C81      1.0000 0.66750  0.40280  0.08760  Biso   1.000  C
  C82      1.0000 0.83250  0.59720  0.58760  Biso   1.000  C
  C83      1.0000 0.33250  0.90280  0.41240  Biso   1.000  C
  C84      1.0000 0.16750  0.09720  0.91240  Biso   1.000  C
  C85      1.0000 0.33250  0.59720  0.91240  Biso   1.000  C
  C86      1.0000 0.16750  0.40280  0.41240  Biso   1.000  C
  C87      1.0000 0.66750  0.09720  0.58760  Biso   1.000  C
  C88      1.0000 0.83250  0.90280  0.08760  Biso   1.000  C
  H73      1.0000 0.66340  0.44730  0.04320  Biso   1.000  H
  H74      1.0000 0.83660  0.55270  0.54320  Biso   1.000  H
  H75      1.0000 0.33660  0.94730  0.45680  Biso   1.000  H
  H76      1.0000 0.16340  0.05270  0.95680  Biso   1.000  H
  H77      1.0000 0.33660  0.55270  0.95680  Biso   1.000  H
  H78      1.0000 0.16340  0.44730  0.45680  Biso   1.000  H
  H79      1.0000 0.66340  0.05270  0.54320  Biso   1.000  H
  H80      1.0000 0.83660  0.94730  0.04320  Biso   1.000  H
  C89      1.0000 0.48600  0.24820  0.47595  Biso   1.000  C
  C90      1.0000 0.01400  0.75180  0.97595  Biso   1.000  C
  C91      1.0000 0.51400  0.74820  0.02405  Biso   1.000  C
  C92      1.0000 0.98600  0.25180  0.52405  Biso   1.000  C
  C93      1.0000 0.51400  0.75180  0.52405  Biso   1.000  C
  C94      1.0000 0.98600  0.24820  0.02405  Biso   1.000  C
  C95      1.0000 0.48600  0.25180  0.97595  Biso   1.000  C
  C96      1.0000 0.01400  0.74820  0.47595  Biso   1.000  C
  H81      1.0000 0.50260  0.16830  0.50590  Biso   1.000  H
  H82      1.0000 0.99740  0.83170  0.00590  Biso   1.000  H
  H83      1.0000 0.49740  0.66830  0.99410  Biso   1.000  H
  H84      1.0000 0.00260  0.33170  0.49410  Biso   1.000  H
  H85      1.0000 0.49740  0.83170  0.49410  Biso   1.000  H
  H86      1.0000 0.00260  0.16830  0.99410  Biso   1.000  H
  H87      1.0000 0.50260  0.33170  0.00590  Biso   1.000  H
  H88      1.0000 0.99740  0.66830  0.50590  Biso   1.000  H
  C97      1.0000 0.72500  0.22480  0.16824  Biso   1.000  C
  C98      1.0000 0.77500  0.77520  0.66824  Biso   1.000  C
  C99      1.0000 0.27500  0.72480  0.33176  Biso   1.000  C
  C100     1.0000 0.22500  0.27520  0.83176  Biso   1.000  C
  C101     1.0000 0.27500  0.77520  0.83176  Biso   1.000  C
  C102     1.0000 0.22500  0.22480  0.33176  Biso   1.000  C
  C103     1.0000 0.72500  0.27520  0.66824  Biso   1.000  C
  C104     1.0000 0.77500  0.72480  0.16824  Biso   1.000  C
  H89      1.0000 0.76010  0.14840  0.17820  Biso   1.000  H
  H90      1.0000 0.73990  0.85160  0.67820  Biso   1.000  H
  H91      1.0000 0.23990  0.64840  0.32180  Biso   1.000  H
  H92      1.0000 0.26010  0.35160  0.82180  Biso   1.000  H
  H93      1.0000 0.23990  0.85160  0.82180  Biso   1.000  H
  H94      1.0000 0.26010  0.14840  0.32180  Biso   1.000  H
  H95      1.0000 0.76010  0.35160  0.67820  Biso   1.000  H
  H96      1.0000 0.73990  0.64840  0.17820  Biso   1.000  H
  C105     1.0000 0.71990  0.29050  0.10193  Biso   1.000  C
  C106     1.0000 0.78010  0.70950  0.60193  Biso   1.000  C
  C107     1.0000 0.28010  0.79050  0.39807  Biso   1.000  C
  C108     1.0000 0.21990  0.20950  0.89807  Biso   1.000  C
  C109     1.0000 0.28010  0.70950  0.89807  Biso   1.000  C
  C110     1.0000 0.21990  0.29050  0.39807  Biso   1.000  C
  C111     1.0000 0.71990  0.20950  0.60193  Biso   1.000  C
  C112     1.0000 0.78010  0.79050  0.10193  Biso   1.000  C
  H97      1.0000 0.75190  0.25890  0.06710  Biso   1.000  H
  H98      1.0000 0.74810  0.74110  0.56710  Biso   1.000  H
  H99      1.0000 0.24810  0.75890  0.43290  Biso   1.000  H
  H100     1.0000 0.25190  0.24110  0.93290  Biso   1.000  H
  H101     1.0000 0.24810  0.74110  0.93290  Biso   1.000  H
  H102     1.0000 0.25190  0.25890  0.43290  Biso   1.000  H
  H103     1.0000 0.75190  0.24110  0.56710  Biso   1.000  H
  H104     1.0000 0.74810  0.75890  0.06710  Biso   1.000  H
  O33      1.0000 0.76306  0.98210  0.45424  Biso   1.000  O
  O34      1.0000 0.73694  0.01790  0.95424  Biso   1.000  O
  O35      1.0000 0.23694  0.48210  0.04576  Biso   1.000  O
  O36      1.0000 0.26306  0.51790  0.54576  Biso   1.000  O
  O37      1.0000 0.23694  0.01790  0.54576  Biso   1.000  O
  O38      1.0000 0.26306  0.98210  0.04576  Biso   1.000  O
  O39      1.0000 0.76306  0.51790  0.95424  Biso   1.000  O
  O40      1.0000 0.73694  0.48210  0.45424  Biso   1.000  O
  H105     1.0000 0.78750  0.03440  0.42450  Biso   1.000  H
  H106     1.0000 0.71250  0.96560  0.92450  Biso   1.000  H
  H107     1.0000 0.21250  0.53440  0.07550  Biso   1.000  H
  H108     1.0000 0.28750  0.46560  0.57550  Biso   1.000  H
  H109     1.0000 0.21250  0.96560  0.57550  Biso   1.000  H
  H110     1.0000 0.28750  0.03440  0.07550  Biso   1.000  H
  H111     1.0000 0.78750  0.46560  0.92450  Biso   1.000  H
  H112     1.0000 0.71250  0.53440  0.42450  Biso   1.000  H
  H113     1.0000 0.73300  0.92210  0.43320  Biso   1.000  H
  H114     1.0000 0.76700  0.07790  0.93320  Biso   1.000  H
  H115     1.0000 0.26700  0.42210  0.06680  Biso   1.000  H
  H116     1.0000 0.23300  0.57790  0.56680  Biso   1.000  H
  H117     1.0000 0.26700  0.07790  0.56680  Biso   1.000  H
  H118     1.0000 0.23300  0.92210  0.06680  Biso   1.000  H
  H119     1.0000 0.73300  0.57790  0.93320  Biso   1.000  H
  H120     1.0000 0.76700  0.42210  0.43320  Biso   1.000  H
