data_image0
_cell_length_a       3.7971
_cell_length_b       7.7611
_cell_length_c       12.5805
_cell_angle_alpha    90
_cell_angle_beta     96.181
_cell_angle_gamma    90

_symmetry_space_group_name_H-M    "P 1"
_symmetry_int_tables_number       1

loop_
  _symmetry_equiv_pos_as_xyz
  'x, y, z'

loop_
  _atom_site_label
  _atom_site_occupancy
  _atom_site_fract_x
  _atom_site_fract_y
  _atom_site_fract_z
  _atom_site_thermal_displace_type
  _atom_site_B_iso_or_equiv
  _atom_site_type_symbol
  Cu1      1.0000 0.27611  0.56004  0.40157  Biso   1.000  Cu
  Cu2      1.0000 0.72389  0.06004  0.09843  Biso   1.000  Cu
  Cu3      1.0000 0.72389  0.43996  0.59843  Biso   1.000  Cu
  Cu4      1.0000 0.27611  0.93996  0.90157  Biso   1.000  Cu
  O1       1.0000 0.89410  0.46230  0.30230  Biso   1.000  O
  O2       1.0000 0.10590  0.96230  0.19770  Biso   1.000  O
  O3       1.0000 0.10590  0.53770  0.69770  Biso   1.000  O
  O4       1.0000 0.89410  0.03770  0.80230  Biso   1.000  O
  O5       1.0000 0.70610  0.27250  0.17950  Biso   1.000  O
  O6       1.0000 0.29390  0.77250  0.32050  Biso   1.000  O
  O7       1.0000 0.29390  0.72750  0.82050  Biso   1.000  O
  O8       1.0000 0.70610  0.22750  0.67950  Biso   1.000  O
  C1       1.0000 0.94450  0.33890  0.24170  Biso   1.000  C
  C2       1.0000 0.05550  0.83890  0.25830  Biso   1.000  C
  C3       1.0000 0.05550  0.66110  0.75830  Biso   1.000  C
  C4       1.0000 0.94450  0.16110  0.74170  Biso   1.000  C
  H1       1.0000 0.17740  0.29360  0.24330  Biso   1.000  H
  H2       1.0000 0.82260  0.79360  0.25670  Biso   1.000  H
  H3       1.0000 0.82260  0.70640  0.75670  Biso   1.000  H
  H4       1.0000 0.17740  0.20640  0.74330  Biso   1.000  H
  O9       1.0000 0.33160  0.36610  0.49680  Biso   1.000  O
  O10      1.0000 0.66840  0.86610  0.00320  Biso   1.000  O
  O11      1.0000 0.66840  0.63390  0.50320  Biso   1.000  O
  O12      1.0000 0.33160  0.13390  0.99680  Biso   1.000  O
  C5       1.0000 0.23950  0.19480  0.47040  Biso   1.000  C
  C6       1.0000 0.76050  0.69480  0.02960  Biso   1.000  C
  C7       1.0000 0.76050  0.80520  0.52960  Biso   1.000  C
  C8       1.0000 0.23950  0.30520  0.97040  Biso   1.000  C
  H5       1.0000 0.98600  0.18850  0.44580  Biso   1.000  H
  H6       1.0000 0.01400  0.68850  0.05420  Biso   1.000  H
  H7       1.0000 0.01400  0.81150  0.55420  Biso   1.000  H
  H8       1.0000 0.98600  0.31150  0.94580  Biso   1.000  H
  H9       1.0000 0.29170  0.12170  0.53370  Biso   1.000  H
  H10      1.0000 0.70830  0.62170  0.96630  Biso   1.000  H
  H11      1.0000 0.70830  0.87830  0.46630  Biso   1.000  H
  H12      1.0000 0.29170  0.37830  0.03370  Biso   1.000  H
  H13      1.0000 0.37650  0.15500  0.41350  Biso   1.000  H
  H14      1.0000 0.62350  0.65500  0.08650  Biso   1.000  H
  H15      1.0000 0.62350  0.84500  0.58650  Biso   1.000  H
  H16      1.0000 0.37650  0.34500  0.91350  Biso   1.000  H
