data_image0
_cell_length_a       3.7904
_cell_length_b       7.7439
_cell_length_c       12.5452
_cell_angle_alpha    90
_cell_angle_beta     95.938
_cell_angle_gamma    90

_symmetry_space_group_name_H-M    "P 1"
_symmetry_int_tables_number       1

loop_
  _symmetry_equiv_pos_as_xyz
  'x, y, z'

loop_
  _atom_site_label
  _atom_site_occupancy
  _atom_site_fract_x
  _atom_site_fract_y
  _atom_site_fract_z
  _atom_site_thermal_displace_type
  _atom_site_B_iso_or_equiv
  _atom_site_type_symbol
  Cu1      1.0000 0.27511  0.56218  0.40179  Biso   1.000  Cu
  Cu2      1.0000 0.72489  0.06218  0.09821  Biso   1.000  Cu
  Cu3      1.0000 0.72489  0.43782  0.59821  Biso   1.000  Cu
  Cu4      1.0000 0.27511  0.93782  0.90179  Biso   1.000  Cu
  O1       1.0000 0.89300  0.46580  0.30169  Biso   1.000  O
  O2       1.0000 0.10700  0.96580  0.19831  Biso   1.000  O
  O3       1.0000 0.10700  0.53420  0.69831  Biso   1.000  O
  O4       1.0000 0.89300  0.03420  0.80169  Biso   1.000  O
  O5       1.0000 0.70530  0.27640  0.17810  Biso   1.000  O
  O6       1.0000 0.29470  0.77640  0.32190  Biso   1.000  O
  O7       1.0000 0.29470  0.72360  0.82190  Biso   1.000  O
  O8       1.0000 0.70530  0.22360  0.67810  Biso   1.000  O
  C1       1.0000 0.94440  0.34160  0.24120  Biso   1.000  C
  C2       1.0000 0.05560  0.84160  0.25880  Biso   1.000  C
  C3       1.0000 0.05560  0.65840  0.75880  Biso   1.000  C
  C4       1.0000 0.94440  0.15840  0.74120  Biso   1.000  C
  H1       1.0000 0.17670  0.29480  0.24360  Biso   1.000  H
  H2       1.0000 0.82330  0.79480  0.25640  Biso   1.000  H
  H3       1.0000 0.82330  0.70520  0.75640  Biso   1.000  H
  H4       1.0000 0.17670  0.20520  0.74360  Biso   1.000  H
  O9       1.0000 0.33230  0.36550  0.49580  Biso   1.000  O
  O10      1.0000 0.66770  0.86550  0.00420  Biso   1.000  O
  O11      1.0000 0.66770  0.63450  0.50420  Biso   1.000  O
  O12      1.0000 0.33230  0.13450  0.99580  Biso   1.000  O
  C5       1.0000 0.23680  0.19510  0.46880  Biso   1.000  C
  C6       1.0000 0.76320  0.69510  0.03120  Biso   1.000  C
  C7       1.0000 0.76320  0.80490  0.53120  Biso   1.000  C
  C8       1.0000 0.23680  0.30490  0.96880  Biso   1.000  C
  H5       1.0000 0.98220  0.18990  0.44540  Biso   1.000  H
  H6       1.0000 0.01780  0.68990  0.05460  Biso   1.000  H
  H7       1.0000 0.01780  0.81010  0.55460  Biso   1.000  H
  H8       1.0000 0.98220  0.31010  0.94540  Biso   1.000  H
  H9       1.0000 0.29070  0.12060  0.53150  Biso   1.000  H
  H10      1.0000 0.70930  0.62060  0.96850  Biso   1.000  H
  H11      1.0000 0.70930  0.87940  0.46850  Biso   1.000  H
  H12      1.0000 0.29070  0.37940  0.03150  Biso   1.000  H
  H13      1.0000 0.37060  0.15560  0.41060  Biso   1.000  H
  H14      1.0000 0.62940  0.65560  0.08940  Biso   1.000  H
  H15      1.0000 0.62940  0.84440  0.58940  Biso   1.000  H
  H16      1.0000 0.37060  0.34440  0.91060  Biso   1.000  H
