data_image0
_cell_length_a       3.8133
_cell_length_b       7.8042
_cell_length_c       12.6242
_cell_angle_alpha    90
_cell_angle_beta     96.382
_cell_angle_gamma    90

_symmetry_space_group_name_H-M    "P 1"
_symmetry_int_tables_number       1

loop_
  _symmetry_equiv_pos_as_xyz
  'x, y, z'

loop_
  _atom_site_label
  _atom_site_occupancy
  _atom_site_fract_x
  _atom_site_fract_y
  _atom_site_fract_z
  _atom_site_thermal_displace_type
  _atom_site_B_iso_or_equiv
  _atom_site_type_symbol
  Cu1      1.0000 0.27748  0.55572  0.40112  Biso   1.000  Cu
  Cu2      1.0000 0.72252  0.05572  0.09888  Biso   1.000  Cu
  Cu3      1.0000 0.72252  0.44428  0.59888  Biso   1.000  Cu
  Cu4      1.0000 0.27748  0.94428  0.90112  Biso   1.000  Cu
  O1       1.0000 0.89590  0.45380  0.30370  Biso   1.000  O
  O2       1.0000 0.10410  0.95380  0.19630  Biso   1.000  O
  O3       1.0000 0.10410  0.54620  0.69630  Biso   1.000  O
  O4       1.0000 0.89590  0.04620  0.80370  Biso   1.000  O
  O5       1.0000 0.70690  0.26300  0.18340  Biso   1.000  O
  O6       1.0000 0.29310  0.76300  0.31660  Biso   1.000  O
  O7       1.0000 0.29310  0.73700  0.81660  Biso   1.000  O
  O8       1.0000 0.70690  0.23700  0.68340  Biso   1.000  O
  C1       1.0000 0.94390  0.33310  0.24240  Biso   1.000  C
  C2       1.0000 0.05610  0.83310  0.25760  Biso   1.000  C
  C3       1.0000 0.05610  0.66690  0.75760  Biso   1.000  C
  C4       1.0000 0.94390  0.16690  0.74240  Biso   1.000  C
  H1       1.0000 0.17320  0.29320  0.24110  Biso   1.000  H
  H2       1.0000 0.82680  0.79320  0.25890  Biso   1.000  H
  H3       1.0000 0.82680  0.70680  0.75890  Biso   1.000  H
  H4       1.0000 0.17320  0.20680  0.74110  Biso   1.000  H
  O9       1.0000 0.33010  0.36630  0.49900  Biso   1.000  O
  O10      1.0000 0.66990  0.86630  0.00100  Biso   1.000  O
  O11      1.0000 0.66990  0.63370  0.50100  Biso   1.000  O
  O12      1.0000 0.33010  0.13370  0.99900  Biso   1.000  O
  C5       1.0000 0.24750  0.19560  0.47360  Biso   1.000  C
  C6       1.0000 0.75250  0.69560  0.02640  Biso   1.000  C
  C7       1.0000 0.75250  0.80440  0.52640  Biso   1.000  C
  C8       1.0000 0.24750  0.30440  0.97360  Biso   1.000  C
  H5       1.0000 0.99900  0.18550  0.45190  Biso   1.000  H
  H6       1.0000 0.00100  0.68550  0.04810  Biso   1.000  H
  H7       1.0000 0.00100  0.81450  0.54810  Biso   1.000  H
  H8       1.0000 0.99900  0.31450  0.95190  Biso   1.000  H
  H9       1.0000 0.31040  0.12490  0.53500  Biso   1.000  H
  H10      1.0000 0.68960  0.62490  0.96500  Biso   1.000  H
  H11      1.0000 0.68960  0.87510  0.46500  Biso   1.000  H
  H12      1.0000 0.31040  0.37510  0.03500  Biso   1.000  H
  H13      1.0000 0.37650  0.15920  0.41650  Biso   1.000  H
  H14      1.0000 0.62350  0.65920  0.08350  Biso   1.000  H
  H15      1.0000 0.62350  0.84080  0.58350  Biso   1.000  H
  H16      1.0000 0.37650  0.34080  0.91650  Biso   1.000  H
