data_image0
_cell_length_a       3.7178
_cell_length_b       7.4212
_cell_length_c       12.5699
_cell_angle_alpha    76.457
_cell_angle_beta     88.766
_cell_angle_gamma    85.737

_symmetry_space_group_name_H-M    "P 1"
_symmetry_int_tables_number       1

loop_
  _symmetry_equiv_pos_as_xyz
  'x, y, z'

loop_
  _atom_site_label
  _atom_site_occupancy
  _atom_site_fract_x
  _atom_site_fract_y
  _atom_site_fract_z
  _atom_site_thermal_displace_type
  _atom_site_B_iso_or_equiv
  _atom_site_type_symbol
  Cu1      1.0000 0.00000  0.00000  0.00000  Biso   1.000  Cu
  C1       1.0000 0.97550  0.71440  0.87342  Biso   1.000  C
  C2       1.0000 0.02450  0.28560  0.12658  Biso   1.000  C
  H1       1.0000 0.88500  0.64860  0.93710  Biso   1.000  H
  H2       1.0000 0.11500  0.35140  0.06290  Biso   1.000  H
  C3       1.0000 0.04810  0.62580  0.78937  Biso   1.000  C
  C4       1.0000 0.95190  0.37420  0.21063  Biso   1.000  C
  H3       1.0000 0.00550  0.50600  0.79740  Biso   1.000  H
  H4       1.0000 0.99450  0.49400  0.20260  Biso   1.000  H
  C5       1.0000 0.18820  0.72670  0.69215  Biso   1.000  C
  C6       1.0000 0.81180  0.27330  0.30785  Biso   1.000  C
  C7       1.0000 0.23280  0.91520  0.68073  Biso   1.000  C
  C8       1.0000 0.76720  0.08480  0.31927  Biso   1.000  C
  H5       1.0000 0.31450  0.98430  0.61750  Biso   1.000  H
  H6       1.0000 0.68550  0.01570  0.38250  Biso   1.000  H
  C9       1.0000 0.14910  0.99380  0.76814  Biso   1.000  C
  C10      1.0000 0.85090  0.00620  0.23186  Biso   1.000  C
  H7       1.0000 0.17270  0.11600  0.76040  Biso   1.000  H
  H8       1.0000 0.82730  0.88400  0.23960  Biso   1.000  H
  C11      1.0000 0.30900  0.63270  0.60378  Biso   1.000  C
  C12      1.0000 0.69100  0.36730  0.39622  Biso   1.000  C
  N1       1.0000 0.03290  0.89340  0.86506  Biso   1.000  N
  N2       1.0000 0.96710  0.10660  0.13494  Biso   1.000  N
  O1       1.0000 0.22830  0.46090  0.61972  Biso   1.000  O
  O2       1.0000 0.77170  0.53910  0.38028  Biso   1.000  O
  H9       1.0000 0.31300  0.41700  0.57100  Biso   1.000  H
  H10      1.0000 0.68700  0.58300  0.42900  Biso   1.000  H
  O3       1.0000 0.47950  0.71400  0.52362  Biso   1.000  O
  O4       1.0000 0.52050  0.28600  0.47638  Biso   1.000  O
  Cl1      1.0000 0.41283  0.77061  0.08455  Biso   1.000  Cl
  Cl2      1.0000 0.58717  0.22939  0.91545  Biso   1.000  Cl
