data_image0
_cell_length_a       10.5271
_cell_length_b       15.5541
_cell_length_c       15.5872
_cell_angle_alpha    102.377
_cell_angle_beta     94.021
_cell_angle_gamma    109.653

_symmetry_space_group_name_H-M    "P 1"
_symmetry_int_tables_number       1

loop_
  _symmetry_equiv_pos_as_xyz
  'x, y, z'

loop_
  _atom_site_label
  _atom_site_occupancy
  _atom_site_fract_x
  _atom_site_fract_y
  _atom_site_fract_z
  _atom_site_thermal_displace_type
  _atom_site_B_iso_or_equiv
  _atom_site_type_symbol
  Cu1      1.0000 0.18116  0.05083  0.09867  Biso   1.000  Cu
  Cu2      1.0000 0.81884  0.94917  0.90133  Biso   1.000  Cu
  Cu3      1.0000 0.71762  0.26183  0.64716  Biso   1.000  Cu
  Cu4      1.0000 0.28238  0.73817  0.35284  Biso   1.000  Cu
  S1       1.0000 0.69484  0.23668  0.28920  Biso   1.000  S
  S2       1.0000 0.30516  0.76332  0.71080  Biso   1.000  S
  S3       1.0000 0.26788  0.79120  0.06796  Biso   1.000  S
  S4       1.0000 0.73212  0.20880  0.93204  Biso   1.000  S
  O1       1.0000 0.29400  0.18439  0.15573  Biso   1.000  O
  O2       1.0000 0.70600  0.81561  0.84427  Biso   1.000  O
  O3       1.0000 0.42360  0.12541  0.22361  Biso   1.000  O
  O4       1.0000 0.57640  0.87459  0.77639  Biso   1.000  O
  O5       1.0000 0.80090  0.30690  0.54961  Biso   1.000  O
  O6       1.0000 0.19910  0.69310  0.45039  Biso   1.000  O
  O7       1.0000 0.78440  0.17200  0.46060  Biso   1.000  O
  O8       1.0000 0.21560  0.82800  0.53940  Biso   1.000  O
  O9       1.0000 0.12700  0.91314  0.06990  Biso   1.000  O
  O10      1.0000 0.87300  0.08686  0.93010  Biso   1.000  O
  O11      1.0000 0.98060  0.89624  0.95327  Biso   1.000  O
  O12      1.0000 0.01940  0.10376  0.04673  Biso   1.000  O
  O13      1.0000 0.35830  0.75877  0.24438  Biso   1.000  O
  O14      1.0000 0.64170  0.24123  0.75562  Biso   1.000  O
  O15      1.0000 0.31810  0.60648  0.22840  Biso   1.000  O
  O16      1.0000 0.68190  0.39352  0.77160  Biso   1.000  O
  O17      1.0000 0.70250  0.10610  0.60420  Biso   1.000  O
  O18      1.0000 0.29750  0.89390  0.39580  Biso   1.000  O
  H1       1.0000 0.60720  0.08810  0.55150  Biso   1.000  H
  H2       1.0000 0.39280  0.91190  0.44850  Biso   1.000  H
  N1       1.0000 0.09290  0.04506  0.20949  Biso   1.000  N
  N2       1.0000 0.90710  0.95494  0.79051  Biso   1.000  N
  C1       1.0000 0.01210  0.09210  0.23440  Biso   1.000  C
  C2       1.0000 0.98790  0.90790  0.76560  Biso   1.000  C
  H3       1.0000 0.99520  0.12920  0.19880  Biso   1.000  H
  H4       1.0000 0.00480  0.87080  0.80120  Biso   1.000  H
  C3       1.0000 0.95230  0.08950  0.30870  Biso   1.000  C
  C4       1.0000 0.04770  0.91050  0.69130  Biso   1.000  C
  H5       1.0000 0.89540  0.12340  0.32270  Biso   1.000  H
  H6       1.0000 0.10460  0.87660  0.67730  Biso   1.000  H
  C5       1.0000 0.97640  0.03720  0.36180  Biso   1.000  C
  C6       1.0000 0.02360  0.96280  0.63820  Biso   1.000  C
  H7       1.0000 0.93490  0.03300  0.41230  Biso   1.000  H
  H8       1.0000 0.06510  0.96700  0.58770  Biso   1.000  H
  C7       1.0000 0.06390  0.98990  0.33970  Biso   1.000  C
  C8       1.0000 0.93610  0.01010  0.66030  Biso   1.000  C
  H9       1.0000 0.08560  0.95520  0.37630  Biso   1.000  H
  H10      1.0000 0.91440  0.04480  0.62370  Biso   1.000  H
  C9       1.0000 0.11810  0.99510  0.26300  Biso   1.000  C
  C10      1.0000 0.88190  0.00490  0.73700  Biso   1.000  C
  H11      1.0000 0.17550  0.96190  0.24760  Biso   1.000  H
  H12      1.0000 0.82450  0.03810  0.75240  Biso   1.000  H
  N3       1.0000 0.27060  0.05618  0.98826  Biso   1.000  N
  N4       1.0000 0.72940  0.94382  0.01174  Biso   1.000  N
  C11      1.0000 0.33400  0.99770  0.95700  Biso   1.000  C
  C12      1.0000 0.66600  0.00230  0.04300  Biso   1.000  C
  H13      1.0000 0.33910  0.95390  0.98800  Biso   1.000  H
  H14      1.0000 0.66090  0.04610  0.01200  Biso   1.000  H
  C13      1.0000 0.39200  0.99920  0.88090  Biso   1.000  C
  C14      1.0000 0.60800  0.00080  0.11910  Biso   1.000  C
  H15      1.0000 0.43840  0.95870  0.86290  Biso   1.000  H
  H16      1.0000 0.56160  0.04130  0.13710  Biso   1.000  H
  C15      1.0000 0.38200  0.05970  0.83190  Biso   1.000  C
  C16      1.0000 0.61800  0.94030  0.16810  Biso   1.000  C
  H17      1.0000 0.41890  0.06050  0.77950  Biso   1.000  H
  H18      1.0000 0.58110  0.93950  0.22050  Biso   1.000  H
  C17      1.0000 0.31570  0.11950  0.86240  Biso   1.000  C
  C18      1.0000 0.68430  0.88050  0.13760  Biso   1.000  C
  H19      1.0000 0.30620  0.16180  0.83050  Biso   1.000  H
  H20      1.0000 0.69380  0.83820  0.16950  Biso   1.000  H
  C19      1.0000 0.26300  0.11650  0.94070  Biso   1.000  C
  C20      1.0000 0.73700  0.88350  0.05930  Biso   1.000  C
  H21      1.0000 0.22000  0.15860  0.96130  Biso   1.000  H
  H22      1.0000 0.78000  0.84140  0.03870  Biso   1.000  H
  N5       1.0000 0.90920  0.30680  0.71670  Biso   1.000  N
  N6       1.0000 0.09080  0.69320  0.28330  Biso   1.000  N
  C21      1.0000 0.94190  0.25590  0.76690  Biso   1.000  C
  C22      1.0000 0.05810  0.74410  0.23310  Biso   1.000  C
  H23      1.0000 0.87860  0.19750  0.76720  Biso   1.000  H
  H24      1.0000 0.12140  0.80250  0.23280  Biso   1.000  H
  C23      1.0000 0.06920  0.28910  0.81870  Biso   1.000  C
  C24      1.0000 0.93080  0.71090  0.18130  Biso   1.000  C
  H25      1.0000 0.09410  0.25070  0.84950  Biso   1.000  H
  H26      1.0000 0.90590  0.74930  0.15050  Biso   1.000  H
  C25      1.0000 0.15920  0.37920  0.82470  Biso   1.000  C
  C26      1.0000 0.84080  0.62080  0.17530  Biso   1.000  C
  H27      1.0000 0.24070  0.40440  0.86420  Biso   1.000  H
  H28      1.0000 0.75930  0.59560  0.13580  Biso   1.000  H
  C27      1.0000 0.12700  0.43030  0.77220  Biso   1.000  C
  C28      1.0000 0.87300  0.56970  0.22780  Biso   1.000  C
  H29      1.0000 0.18730  0.48970  0.77170  Biso   1.000  H
  H30      1.0000 0.81270  0.51030  0.22830  Biso   1.000  H
  C29      1.0000 0.00080  0.39030  0.71940  Biso   1.000  C
  C30      1.0000 0.99920  0.60970  0.28060  Biso   1.000  C
  H31      1.0000 0.97840  0.42470  0.68290  Biso   1.000  H
  H32      1.0000 0.02160  0.57530  0.31710  Biso   1.000  H
  N7       1.0000 0.52990  0.24120  0.58490  Biso   1.000  N
  N8       1.0000 0.47010  0.75880  0.41510  Biso   1.000  N
  C31      1.0000 0.51340  0.29190  0.53030  Biso   1.000  C
  C32      1.0000 0.48660  0.70810  0.46970  Biso   1.000  C
  H33      1.0000 0.59050  0.33520  0.51750  Biso   1.000  H
  H34      1.0000 0.40950  0.66480  0.48250  Biso   1.000  H
  C33      1.0000 0.38810  0.28360  0.49180  Biso   1.000  C
  C34      1.0000 0.61190  0.71640  0.50820  Biso   1.000  C
  H35      1.0000 0.38230  0.32000  0.45250  Biso   1.000  H
  H36      1.0000 0.61770  0.68000  0.54750  Biso   1.000  H
  C35      1.0000 0.27310  0.22420  0.50920  Biso   1.000  C
  C36      1.0000 0.72690  0.77580  0.49080  Biso   1.000  C
  H37      1.0000 0.18710  0.21550  0.48120  Biso   1.000  H
  H38      1.0000 0.81290  0.78450  0.51880  Biso   1.000  H
  C37      1.0000 0.29120  0.17770  0.57030  Biso   1.000  C
  C38      1.0000 0.70880  0.82230  0.42970  Biso   1.000  C
  H39      1.0000 0.21590  0.14400  0.59290  Biso   1.000  H
  H40      1.0000 0.78410  0.85600  0.40710  Biso   1.000  H
  C39      1.0000 0.42500  0.17920  0.60130  Biso   1.000  C
  C40      1.0000 0.57500  0.82080  0.39870  Biso   1.000  C
  H41      1.0000 0.43460  0.13640  0.63230  Biso   1.000  H
  H42      1.0000 0.56540  0.86360  0.36770  Biso   1.000  H
  C41      1.0000 0.39230  0.19200  0.21200  Biso   1.000  C
  C42      1.0000 0.60770  0.80800  0.78800  Biso   1.000  C
  C43      1.0000 0.47360  0.29130  0.26620  Biso   1.000  C
  C44      1.0000 0.52640  0.70870  0.73380  Biso   1.000  C
  C45      1.0000 0.41020  0.35710  0.27650  Biso   1.000  C
  C46      1.0000 0.58980  0.64290  0.72350  Biso   1.000  C
  H43      1.0000 0.32020  0.33870  0.24980  Biso   1.000  H
  H44      1.0000 0.67980  0.66130  0.75020  Biso   1.000  H
  C47      1.0000 0.47720  0.44930  0.32540  Biso   1.000  C
  C48      1.0000 0.52280  0.55070  0.67460  Biso   1.000  C
  H45      1.0000 0.43300  0.49240  0.33140  Biso   1.000  H
  H46      1.0000 0.56700  0.50760  0.66860  Biso   1.000  H
  C49      1.0000 0.60970  0.47600  0.36480  Biso   1.000  C
  C50      1.0000 0.39030  0.52400  0.63520  Biso   1.000  C
  H47      1.0000 0.65610  0.53800  0.39760  Biso   1.000  H
  H48      1.0000 0.34390  0.46200  0.60240  Biso   1.000  H
  C51      1.0000 0.67550  0.41150  0.35640  Biso   1.000  C
  C52      1.0000 0.32450  0.58850  0.64360  Biso   1.000  C
  H49      1.0000 0.76490  0.43060  0.38470  Biso   1.000  H
  H50      1.0000 0.23510  0.56940  0.61530  Biso   1.000  H
  C53      1.0000 0.60970  0.31860  0.30620  Biso   1.000  C
  C54      1.0000 0.39030  0.68140  0.69380  Biso   1.000  C
  C55      1.0000 0.86550  0.30790  0.33840  Biso   1.000  C
  C56      1.0000 0.13450  0.69210  0.66160  Biso   1.000  C
  C57      1.0000 0.95440  0.35740  0.28860  Biso   1.000  C
  C58      1.0000 0.04560  0.64260  0.71140  Biso   1.000  C
  H51      1.0000 0.92390  0.35230  0.22960  Biso   1.000  H
  H52      1.0000 0.07610  0.64770  0.77040  Biso   1.000  H
  C59      1.0000 0.08860  0.41450  0.32620  Biso   1.000  C
  C60      1.0000 0.91140  0.58550  0.67380  Biso   1.000  C
  H53      1.0000 0.14720  0.44730  0.29260  Biso   1.000  H
  H54      1.0000 0.85280  0.55270  0.70740  Biso   1.000  H
  C61      1.0000 0.13310  0.42190  0.41270  Biso   1.000  C
  C62      1.0000 0.86690  0.57810  0.58730  Biso   1.000  C
  H55      1.0000 0.22230  0.46040  0.43820  Biso   1.000  H
  H56      1.0000 0.77770  0.53960  0.56180  Biso   1.000  H
  C63      1.0000 0.04720  0.37280  0.46270  Biso   1.000  C
  C64      1.0000 0.95280  0.62720  0.53730  Biso   1.000  C
  H57      1.0000 0.07920  0.37870  0.52160  Biso   1.000  H
  H58      1.0000 0.92080  0.62130  0.47840  Biso   1.000  H
  C65      1.0000 0.91330  0.31450  0.42660  Biso   1.000  C
  C66      1.0000 0.08670  0.68550  0.57340  Biso   1.000  C
  C67      1.0000 0.82640  0.25870  0.48240  Biso   1.000  C
  C68      1.0000 0.17360  0.74130  0.51760  Biso   1.000  C
  C69      1.0000 0.04190  0.86370  0.99980  Biso   1.000  C
  C70      1.0000 0.95810  0.13630  0.00020  Biso   1.000  C
  C71      1.0000 0.01600  0.76000  0.97450  Biso   1.000  C
  C72      1.0000 0.98400  0.24000  0.02550  Biso   1.000  C
  C73      1.0000 0.88920  0.70120  0.92400  Biso   1.000  C
  C74      1.0000 0.11080  0.29880  0.07600  Biso   1.000  C
  H59      1.0000 0.82730  0.72780  0.90780  Biso   1.000  H
  H60      1.0000 0.17270  0.27220  0.09220  Biso   1.000  H
  C75      1.0000 0.85410  0.60450  0.89780  Biso   1.000  C
  C76      1.0000 0.14590  0.39550  0.10220  Biso   1.000  C
  H61      1.0000 0.76850  0.56630  0.86560  Biso   1.000  H
  H62      1.0000 0.23150  0.43370  0.13440  Biso   1.000  H
  C77      1.0000 0.94770  0.56540  0.91990  Biso   1.000  C
  C78      1.0000 0.05230  0.43460  0.08010  Biso   1.000  C
  H63      1.0000 0.92540  0.50040  0.90160  Biso   1.000  H
  H64      1.0000 0.07460  0.49960  0.09840  Biso   1.000  H
  C79      1.0000 0.07450  0.62180  0.96880  Biso   1.000  C
  C80      1.0000 0.92550  0.37820  0.03120  Biso   1.000  C
  H65      1.0000 0.13700  0.59440  0.98210  Biso   1.000  H
  H66      1.0000 0.86300  0.40560  0.01790  Biso   1.000  H
  C81      1.0000 0.11010  0.71980  0.99870  Biso   1.000  C
  C82      1.0000 0.88990  0.28020  0.00130  Biso   1.000  C
  C83      1.0000 0.36520  0.71760  0.04800  Biso   1.000  C
  C84      1.0000 0.63480  0.28240  0.95200  Biso   1.000  C
  C85      1.0000 0.41590  0.70720  0.96710  Biso   1.000  C
  C86      1.0000 0.58410  0.29280  0.03290  Biso   1.000  C
  H67      1.0000 0.39140  0.73450  0.92420  Biso   1.000  H
  H68      1.0000 0.60860  0.26550  0.07580  Biso   1.000  H
  C87      1.0000 0.50070  0.65760  0.95020  Biso   1.000  C
  C88      1.0000 0.49930  0.34240  0.04980  Biso   1.000  C
  H69      1.0000 0.53420  0.65210  0.89650  Biso   1.000  H
  H70      1.0000 0.46580  0.34790  0.10350  Biso   1.000  H
  C89      1.0000 0.53650  0.61580  0.01230  Biso   1.000  C
  C90      1.0000 0.46350  0.38420  0.98770  Biso   1.000  C
  H71      1.0000 0.59510  0.58290  0.00080  Biso   1.000  H
  H72      1.0000 0.40490  0.41710  0.99920  Biso   1.000  H
  C91      1.0000 0.48600  0.62280  0.09100  Biso   1.000  C
  C92      1.0000 0.51400  0.37720  0.90900  Biso   1.000  C
  H73      1.0000 0.50940  0.59310  0.13200  Biso   1.000  H
  H74      1.0000 0.49060  0.40690  0.86800  Biso   1.000  H
  C93      1.0000 0.40020  0.67320  0.11080  Biso   1.000  C
  C94      1.0000 0.59980  0.32680  0.88920  Biso   1.000  C
  C95      1.0000 0.35370  0.67780  0.20000  Biso   1.000  C
  C96      1.0000 0.64630  0.32220  0.80000  Biso   1.000  C
  O19      1.0000 0.49830  0.04790  0.36360  Biso   1.000  O
  O20      1.0000 0.50170  0.95210  0.63640  Biso   1.000  O
  H75      1.0000 0.48150  0.08690  0.32160  Biso   1.000  H
  H76      1.0000 0.51850  0.91310  0.67840  Biso   1.000  H
