data_image0
_cell_length_a       9.362
_cell_length_b       18.642
_cell_length_c       25.44
_cell_angle_alpha    90
_cell_angle_beta     90
_cell_angle_gamma    90

_symmetry_space_group_name_H-M    "P 1"
_symmetry_int_tables_number       1

loop_
  _symmetry_equiv_pos_as_xyz
  'x, y, z'

loop_
  _atom_site_label
  _atom_site_occupancy
  _atom_site_fract_x
  _atom_site_fract_y
  _atom_site_fract_z
  _atom_site_thermal_displace_type
  _atom_site_B_iso_or_equiv
  _atom_site_type_symbol
  Cu1      1.0000 0.84268  0.90857  0.13558  Biso   1.000  Cu
  Cu2      1.0000 0.34268  0.90857  0.36442  Biso   1.000  Cu
  Cu3      1.0000 0.65732  0.40857  0.13558  Biso   1.000  Cu
  Cu4      1.0000 0.84268  0.59143  0.63558  Biso   1.000  Cu
  Cu5      1.0000 0.15732  0.09143  0.86442  Biso   1.000  Cu
  Cu6      1.0000 0.65732  0.09143  0.63558  Biso   1.000  Cu
  Cu7      1.0000 0.34268  0.59143  0.86442  Biso   1.000  Cu
  Cu8      1.0000 0.15732  0.40857  0.36442  Biso   1.000  Cu
  Cu9      1.0000 0.92726  0.05838  0.05798  Biso   1.000  Cu
  Cu10     1.0000 0.42726  0.05838  0.44202  Biso   1.000  Cu
  Cu11     1.0000 0.57274  0.55838  0.05798  Biso   1.000  Cu
  Cu12     1.0000 0.92726  0.44162  0.55798  Biso   1.000  Cu
  Cu13     1.0000 0.07274  0.94162  0.94202  Biso   1.000  Cu
  Cu14     1.0000 0.57274  0.94162  0.55798  Biso   1.000  Cu
  Cu15     1.0000 0.42726  0.44162  0.94202  Biso   1.000  Cu
  Cu16     1.0000 0.07274  0.55838  0.44202  Biso   1.000  Cu
  O1       1.0000 0.06960  0.04844  0.11223  Biso   1.000  O
  O2       1.0000 0.56960  0.04844  0.38777  Biso   1.000  O
  O3       1.0000 0.43040  0.54844  0.11223  Biso   1.000  O
  O4       1.0000 0.06960  0.45156  0.61223  Biso   1.000  O
  O5       1.0000 0.93040  0.95156  0.88777  Biso   1.000  O
  O6       1.0000 0.43040  0.95156  0.61223  Biso   1.000  O
  O7       1.0000 0.56960  0.45156  0.88777  Biso   1.000  O
  O8       1.0000 0.93040  0.54844  0.38777  Biso   1.000  O
  O9       1.0000 0.02930  0.94736  0.15787  Biso   1.000  O
  O10      1.0000 0.52930  0.94736  0.34213  Biso   1.000  O
  O11      1.0000 0.47070  0.44736  0.15787  Biso   1.000  O
  O12      1.0000 0.02930  0.55264  0.65787  Biso   1.000  O
  O13      1.0000 0.97070  0.05264  0.84213  Biso   1.000  O
  O14      1.0000 0.47070  0.05264  0.65787  Biso   1.000  O
  O15      1.0000 0.52930  0.55264  0.84213  Biso   1.000  O
  O16      1.0000 0.97070  0.44736  0.34213  Biso   1.000  O
  O17      1.0000 0.84820  0.84410  0.19291  Biso   1.000  O
  O18      1.0000 0.34820  0.84410  0.30709  Biso   1.000  O
  O19      1.0000 0.65180  0.34410  0.19291  Biso   1.000  O
  O20      1.0000 0.84820  0.65590  0.69291  Biso   1.000  O
  O21      1.0000 0.15180  0.15590  0.80709  Biso   1.000  O
  O22      1.0000 0.65180  0.15590  0.69291  Biso   1.000  O
  O23      1.0000 0.34820  0.65590  0.80709  Biso   1.000  O
  O24      1.0000 0.15180  0.34410  0.30709  Biso   1.000  O
  O25      1.0000 0.00910  0.14811  0.04067  Biso   1.000  O
  O26      1.0000 0.50910  0.14811  0.45933  Biso   1.000  O
  O27      1.0000 0.49090  0.64811  0.04067  Biso   1.000  O
  O28      1.0000 0.00910  0.35189  0.54067  Biso   1.000  O
  O29      1.0000 0.99090  0.85189  0.95933  Biso   1.000  O
  O30      1.0000 0.49090  0.85189  0.54067  Biso   1.000  O
  O31      1.0000 0.50910  0.35189  0.95933  Biso   1.000  O
  O32      1.0000 0.99090  0.64811  0.45933  Biso   1.000  O
  O33      1.0000 0.82950  0.97161  0.07574  Biso   1.000  O
  O34      1.0000 0.32950  0.97161  0.42426  Biso   1.000  O
  O35      1.0000 0.67050  0.47161  0.07574  Biso   1.000  O
  O36      1.0000 0.82950  0.52839  0.57574  Biso   1.000  O
  O37      1.0000 0.17050  0.02839  0.92426  Biso   1.000  O
  O38      1.0000 0.67050  0.02839  0.57574  Biso   1.000  O
  O39      1.0000 0.32950  0.52839  0.92426  Biso   1.000  O
  O40      1.0000 0.17050  0.47161  0.42426  Biso   1.000  O
  N1       1.0000 0.68680  0.85780  0.10155  Biso   1.000  N
  N2       1.0000 0.18680  0.85780  0.39845  Biso   1.000  N
  N3       1.0000 0.81320  0.35780  0.10155  Biso   1.000  N
  N4       1.0000 0.68680  0.64220  0.60155  Biso   1.000  N
  N5       1.0000 0.31320  0.14220  0.89845  Biso   1.000  N
  N6       1.0000 0.81320  0.14220  0.60155  Biso   1.000  N
  N7       1.0000 0.18680  0.64220  0.89845  Biso   1.000  N
  N8       1.0000 0.31320  0.35780  0.39845  Biso   1.000  N
  N9       1.0000 0.80190  0.05940  0.99796  Biso   1.000  N
  N10      1.0000 0.30190  0.05940  0.50204  Biso   1.000  N
  N11      1.0000 0.69810  0.55940  0.99796  Biso   1.000  N
  N12      1.0000 0.80190  0.44060  0.49796  Biso   1.000  N
  N13      1.0000 0.19810  0.94060  0.00204  Biso   1.000  N
  N14      1.0000 0.69810  0.94060  0.49796  Biso   1.000  N
  N15      1.0000 0.30190  0.44060  0.00204  Biso   1.000  N
  N16      1.0000 0.19810  0.55940  0.50204  Biso   1.000  N
  N17      1.0000 0.70000  0.99140  0.19575  Biso   1.000  N
  N18      1.0000 0.20000  0.99140  0.30425  Biso   1.000  N
  N19      1.0000 0.80000  0.49140  0.19575  Biso   1.000  N
  N20      1.0000 0.70000  0.50860  0.69575  Biso   1.000  N
  N21      1.0000 0.30000  0.00860  0.80425  Biso   1.000  N
  N22      1.0000 0.80000  0.00860  0.69575  Biso   1.000  N
  N23      1.0000 0.20000  0.50860  0.80425  Biso   1.000  N
  N24      1.0000 0.30000  0.49140  0.30425  Biso   1.000  N
  H1       1.0000 0.74600  0.03200  0.19330  Biso   1.000  H
  H2       1.0000 0.24600  0.03200  0.30670  Biso   1.000  H
  H3       1.0000 0.75400  0.53200  0.19330  Biso   1.000  H
  H4       1.0000 0.74600  0.46800  0.69330  Biso   1.000  H
  H5       1.0000 0.25400  0.96800  0.80670  Biso   1.000  H
  H6       1.0000 0.75400  0.96800  0.69330  Biso   1.000  H
  H7       1.0000 0.24600  0.46800  0.80670  Biso   1.000  H
  H8       1.0000 0.25400  0.53200  0.30670  Biso   1.000  H
  H9       1.0000 0.72400  0.96200  0.22260  Biso   1.000  H
  H10      1.0000 0.22400  0.96200  0.27740  Biso   1.000  H
  H11      1.0000 0.77600  0.46200  0.22260  Biso   1.000  H
  H12      1.0000 0.72400  0.53800  0.72260  Biso   1.000  H
  H13      1.0000 0.27600  0.03800  0.77740  Biso   1.000  H
  H14      1.0000 0.77600  0.03800  0.72260  Biso   1.000  H
  H15      1.0000 0.22400  0.53800  0.77740  Biso   1.000  H
  H16      1.0000 0.27600  0.46200  0.27740  Biso   1.000  H
  C1       1.0000 0.77680  0.78460  0.19830  Biso   1.000  C
  C2       1.0000 0.27680  0.78460  0.30170  Biso   1.000  C
  C3       1.0000 0.72320  0.28460  0.19830  Biso   1.000  C
  C4       1.0000 0.77680  0.71540  0.69830  Biso   1.000  C
  C5       1.0000 0.22320  0.21540  0.80170  Biso   1.000  C
  C6       1.0000 0.72320  0.21540  0.69830  Biso   1.000  C
  C7       1.0000 0.27680  0.71540  0.80170  Biso   1.000  C
  C8       1.0000 0.22320  0.28460  0.30170  Biso   1.000  C
  C9       1.0000 0.80210  0.74230  0.24260  Biso   1.000  C
  C10      1.0000 0.30210  0.74230  0.25740  Biso   1.000  C
  C11      1.0000 0.69790  0.24230  0.24260  Biso   1.000  C
  C12      1.0000 0.80210  0.75770  0.74260  Biso   1.000  C
  C13      1.0000 0.19790  0.25770  0.75740  Biso   1.000  C
  C14      1.0000 0.69790  0.25770  0.74260  Biso   1.000  C
  C15      1.0000 0.30210  0.75770  0.75740  Biso   1.000  C
  C16      1.0000 0.19790  0.24230  0.25740  Biso   1.000  C
  H17      1.0000 0.86980  0.75730  0.26690  Biso   1.000  H
  H18      1.0000 0.36980  0.75730  0.23310  Biso   1.000  H
  H19      1.0000 0.63020  0.25730  0.26690  Biso   1.000  H
  H20      1.0000 0.86980  0.74270  0.76690  Biso   1.000  H
  H21      1.0000 0.13020  0.24270  0.73310  Biso   1.000  H
  H22      1.0000 0.63020  0.24270  0.76690  Biso   1.000  H
  H23      1.0000 0.36980  0.74270  0.73310  Biso   1.000  H
  H24      1.0000 0.13020  0.25730  0.23310  Biso   1.000  H
  C17      1.0000 0.73030  0.67920  0.25140  Biso   1.000  C
  C18      1.0000 0.23030  0.67920  0.24860  Biso   1.000  C
  C19      1.0000 0.76970  0.17920  0.25140  Biso   1.000  C
  C20      1.0000 0.73030  0.82080  0.75140  Biso   1.000  C
  C21      1.0000 0.26970  0.32080  0.74860  Biso   1.000  C
  C22      1.0000 0.76970  0.32080  0.75140  Biso   1.000  C
  C23      1.0000 0.23030  0.82080  0.74860  Biso   1.000  C
  C24      1.0000 0.26970  0.17920  0.24860  Biso   1.000  C
  H25      1.0000 0.75090  0.65230  0.28120  Biso   1.000  H
  H26      1.0000 0.25090  0.65230  0.21880  Biso   1.000  H
  H27      1.0000 0.74910  0.15230  0.28120  Biso   1.000  H
  H28      1.0000 0.75090  0.84770  0.78120  Biso   1.000  H
  H29      1.0000 0.24910  0.34770  0.71880  Biso   1.000  H
  H30      1.0000 0.74910  0.34770  0.78120  Biso   1.000  H
  H31      1.0000 0.25090  0.84770  0.71880  Biso   1.000  H
  H32      1.0000 0.24910  0.15230  0.21880  Biso   1.000  H
  C25      1.0000 0.62720  0.65470  0.21630  Biso   1.000  C
  C26      1.0000 0.12720  0.65470  0.28370  Biso   1.000  C
  C27      1.0000 0.87280  0.15470  0.21630  Biso   1.000  C
  C28      1.0000 0.62720  0.84530  0.71630  Biso   1.000  C
  C29      1.0000 0.37280  0.34530  0.78370  Biso   1.000  C
  C30      1.0000 0.87280  0.34530  0.71630  Biso   1.000  C
  C31      1.0000 0.12720  0.84530  0.78370  Biso   1.000  C
  C32      1.0000 0.37280  0.15470  0.28370  Biso   1.000  C
  H33      1.0000 0.57810  0.61230  0.22270  Biso   1.000  H
  H34      1.0000 0.07810  0.61230  0.27730  Biso   1.000  H
  H35      1.0000 0.92190  0.11230  0.22270  Biso   1.000  H
  H36      1.0000 0.57810  0.88770  0.72270  Biso   1.000  H
  H37      1.0000 0.42190  0.38770  0.77730  Biso   1.000  H
  H38      1.0000 0.92190  0.38770  0.72270  Biso   1.000  H
  H39      1.0000 0.07810  0.88770  0.77730  Biso   1.000  H
  H40      1.0000 0.42190  0.11230  0.27730  Biso   1.000  H
  C33      1.0000 0.59960  0.69460  0.17220  Biso   1.000  C
  C34      1.0000 0.09960  0.69460  0.32780  Biso   1.000  C
  C35      1.0000 0.90040  0.19460  0.17220  Biso   1.000  C
  C36      1.0000 0.59960  0.80540  0.67220  Biso   1.000  C
  C37      1.0000 0.40040  0.30540  0.82780  Biso   1.000  C
  C38      1.0000 0.90040  0.30540  0.67220  Biso   1.000  C
  C39      1.0000 0.09960  0.80540  0.82780  Biso   1.000  C
  C40      1.0000 0.40040  0.19460  0.32780  Biso   1.000  C
  H41      1.0000 0.53180  0.67830  0.14830  Biso   1.000  H
  H42      1.0000 0.03180  0.67830  0.35170  Biso   1.000  H
  H43      1.0000 0.96820  0.17830  0.14830  Biso   1.000  H
  H44      1.0000 0.53180  0.82170  0.64830  Biso   1.000  H
  H45      1.0000 0.46820  0.32170  0.85170  Biso   1.000  H
  H46      1.0000 0.96820  0.32170  0.64830  Biso   1.000  H
  H47      1.0000 0.03180  0.82170  0.85170  Biso   1.000  H
  H48      1.0000 0.46820  0.17830  0.35170  Biso   1.000  H
  C41      1.0000 0.67120  0.75940  0.16230  Biso   1.000  C
  C42      1.0000 0.17120  0.75940  0.33770  Biso   1.000  C
  C43      1.0000 0.82880  0.25940  0.16230  Biso   1.000  C
  C44      1.0000 0.67120  0.74060  0.66230  Biso   1.000  C
  C45      1.0000 0.32880  0.24060  0.83770  Biso   1.000  C
  C46      1.0000 0.82880  0.24060  0.66230  Biso   1.000  C
  C47      1.0000 0.17120  0.74060  0.83770  Biso   1.000  C
  C48      1.0000 0.32880  0.25940  0.33770  Biso   1.000  C
  C49      1.0000 0.63340  0.79800  0.11640  Biso   1.000  C
  C50      1.0000 0.13340  0.79800  0.38360  Biso   1.000  C
  C51      1.0000 0.86660  0.29800  0.11640  Biso   1.000  C
  C52      1.0000 0.63340  0.70200  0.61640  Biso   1.000  C
  C53      1.0000 0.36660  0.20200  0.88360  Biso   1.000  C
  C54      1.0000 0.86660  0.20200  0.61640  Biso   1.000  C
  C55      1.0000 0.13340  0.70200  0.88360  Biso   1.000  C
  C56      1.0000 0.36660  0.29800  0.38360  Biso   1.000  C
  H49      1.0000 0.56320  0.77800  0.09500  Biso   1.000  H
  H50      1.0000 0.06320  0.77800  0.40500  Biso   1.000  H
  H51      1.0000 0.93680  0.27800  0.09500  Biso   1.000  H
  H52      1.0000 0.56320  0.72200  0.59500  Biso   1.000  H
  H53      1.0000 0.43680  0.22200  0.90500  Biso   1.000  H
  H54      1.0000 0.93680  0.22200  0.59500  Biso   1.000  H
  H55      1.0000 0.06320  0.72200  0.90500  Biso   1.000  H
  H56      1.0000 0.43680  0.27800  0.40500  Biso   1.000  H
  C57      1.0000 0.63890  0.89300  0.05380  Biso   1.000  C
  C58      1.0000 0.13890  0.89300  0.44620  Biso   1.000  C
  C59      1.0000 0.86110  0.39300  0.05380  Biso   1.000  C
  C60      1.0000 0.63890  0.60700  0.55380  Biso   1.000  C
  C61      1.0000 0.36110  0.10700  0.94620  Biso   1.000  C
  C62      1.0000 0.86110  0.10700  0.55380  Biso   1.000  C
  C63      1.0000 0.13890  0.60700  0.94620  Biso   1.000  C
  C64      1.0000 0.36110  0.39300  0.44620  Biso   1.000  C
  H57      1.0000 0.64780  0.85990  0.02460  Biso   1.000  H
  H58      1.0000 0.14780  0.85990  0.47540  Biso   1.000  H
  H59      1.0000 0.85220  0.35990  0.02460  Biso   1.000  H
  H60      1.0000 0.64780  0.64010  0.52460  Biso   1.000  H
  H61      1.0000 0.35220  0.14010  0.97540  Biso   1.000  H
  H62      1.0000 0.85220  0.14010  0.52460  Biso   1.000  H
  H63      1.0000 0.14780  0.64010  0.97540  Biso   1.000  H
  H64      1.0000 0.35220  0.35990  0.47540  Biso   1.000  H
  H65      1.0000 0.53870  0.90530  0.05740  Biso   1.000  H
  H66      1.0000 0.03870  0.90530  0.44260  Biso   1.000  H
  H67      1.0000 0.96130  0.40530  0.05740  Biso   1.000  H
  H68      1.0000 0.53870  0.59470  0.55740  Biso   1.000  H
  H69      1.0000 0.46130  0.09470  0.94260  Biso   1.000  H
  H70      1.0000 0.96130  0.09470  0.55740  Biso   1.000  H
  H71      1.0000 0.03870  0.59470  0.94260  Biso   1.000  H
  H72      1.0000 0.46130  0.40530  0.44260  Biso   1.000  H
  C65      1.0000 0.70260  0.99950  0.99840  Biso   1.000  C
  C66      1.0000 0.20260  0.99950  0.50160  Biso   1.000  C
  C67      1.0000 0.79740  0.49950  0.99840  Biso   1.000  C
  C68      1.0000 0.70260  0.50050  0.49840  Biso   1.000  C
  C69      1.0000 0.29740  0.00050  0.00160  Biso   1.000  C
  C70      1.0000 0.79740  0.00050  0.49840  Biso   1.000  C
  C71      1.0000 0.20260  0.50050  0.00160  Biso   1.000  C
  C72      1.0000 0.29740  0.49950  0.50160  Biso   1.000  C
  H73      1.0000 0.60590  0.01810  0.99720  Biso   1.000  H
  H74      1.0000 0.10590  0.01810  0.50280  Biso   1.000  H
  H75      1.0000 0.89410  0.51810  0.99720  Biso   1.000  H
  H76      1.0000 0.60590  0.48190  0.49720  Biso   1.000  H
  H77      1.0000 0.39410  0.98190  0.00280  Biso   1.000  H
  H78      1.0000 0.89410  0.98190  0.49720  Biso   1.000  H
  H79      1.0000 0.10590  0.48190  0.00280  Biso   1.000  H
  H80      1.0000 0.39410  0.51810  0.50280  Biso   1.000  H
  H81      1.0000 0.71750  0.97100  0.96700  Biso   1.000  H
  H82      1.0000 0.21750  0.97100  0.53300  Biso   1.000  H
  H83      1.0000 0.78250  0.47100  0.96700  Biso   1.000  H
  H84      1.0000 0.71750  0.52900  0.46700  Biso   1.000  H
  H85      1.0000 0.28250  0.02900  0.03300  Biso   1.000  H
  H86      1.0000 0.78250  0.02900  0.46700  Biso   1.000  H
  H87      1.0000 0.21750  0.52900  0.03300  Biso   1.000  H
  H88      1.0000 0.28250  0.47100  0.53300  Biso   1.000  H
  C73      1.0000 0.80480  0.10440  0.95983  Biso   1.000  C
  C74      1.0000 0.30480  0.10440  0.54017  Biso   1.000  C
  C75      1.0000 0.69520  0.60440  0.95983  Biso   1.000  C
  C76      1.0000 0.80480  0.39560  0.45983  Biso   1.000  C
  C77      1.0000 0.19520  0.89560  0.04017  Biso   1.000  C
  C78      1.0000 0.69520  0.89560  0.45983  Biso   1.000  C
  C79      1.0000 0.30480  0.39560  0.04017  Biso   1.000  C
  C80      1.0000 0.19520  0.60440  0.54017  Biso   1.000  C
  H89      1.0000 0.74000  0.09730  0.93260  Biso   1.000  H
  H90      1.0000 0.24000  0.09730  0.56740  Biso   1.000  H
  H91      1.0000 0.76000  0.59730  0.93260  Biso   1.000  H
  H92      1.0000 0.74000  0.40270  0.43260  Biso   1.000  H
  H93      1.0000 0.26000  0.90270  0.06740  Biso   1.000  H
  H94      1.0000 0.76000  0.90270  0.43260  Biso   1.000  H
  H95      1.0000 0.24000  0.40270  0.06740  Biso   1.000  H
  H96      1.0000 0.26000  0.59730  0.56740  Biso   1.000  H
  C81      1.0000 0.89860  0.16450  0.95548  Biso   1.000  C
  C82      1.0000 0.39860  0.16450  0.54452  Biso   1.000  C
  C83      1.0000 0.60140  0.66450  0.95548  Biso   1.000  C
  C84      1.0000 0.89860  0.33550  0.45548  Biso   1.000  C
  C85      1.0000 0.10140  0.83550  0.04452  Biso   1.000  C
  C86      1.0000 0.60140  0.83550  0.45548  Biso   1.000  C
  C87      1.0000 0.39860  0.33550  0.04452  Biso   1.000  C
  C88      1.0000 0.10140  0.66450  0.54452  Biso   1.000  C
  C89      1.0000 0.89540  0.20570  0.90950  Biso   1.000  C
  C90      1.0000 0.39540  0.20570  0.59050  Biso   1.000  C
  C91      1.0000 0.60460  0.70570  0.90950  Biso   1.000  C
  C92      1.0000 0.89540  0.29430  0.40950  Biso   1.000  C
  C93      1.0000 0.10460  0.79430  0.09050  Biso   1.000  C
  C94      1.0000 0.60460  0.79430  0.40950  Biso   1.000  C
  C95      1.0000 0.39540  0.29430  0.09050  Biso   1.000  C
  C96      1.0000 0.10460  0.70570  0.59050  Biso   1.000  C
  H97      1.0000 0.83270  0.19280  0.88280  Biso   1.000  H
  H98      1.0000 0.33270  0.19280  0.61720  Biso   1.000  H
  H99      1.0000 0.66730  0.69280  0.88280  Biso   1.000  H
  H100     1.0000 0.83270  0.30720  0.38280  Biso   1.000  H
  H101     1.0000 0.16730  0.80720  0.11720  Biso   1.000  H
  H102     1.0000 0.66730  0.80720  0.38280  Biso   1.000  H
  H103     1.0000 0.33270  0.30720  0.11720  Biso   1.000  H
  H104     1.0000 0.16730  0.69280  0.61720  Biso   1.000  H
  C97      1.0000 0.98090  0.26440  0.90250  Biso   1.000  C
  C98      1.0000 0.48090  0.26440  0.59750  Biso   1.000  C
  C99      1.0000 0.51910  0.76440  0.90250  Biso   1.000  C
  C100     1.0000 0.98090  0.23560  0.40250  Biso   1.000  C
  C101     1.0000 0.01910  0.73560  0.09750  Biso   1.000  C
  C102     1.0000 0.51910  0.73560  0.40250  Biso   1.000  C
  C103     1.0000 0.48090  0.23560  0.09750  Biso   1.000  C
  C104     1.0000 0.01910  0.76440  0.59750  Biso   1.000  C
  H105     1.0000 0.97610  0.29120  0.87170  Biso   1.000  H
  H106     1.0000 0.47610  0.29120  0.62830  Biso   1.000  H
  H107     1.0000 0.52390  0.79120  0.87170  Biso   1.000  H
  H108     1.0000 0.97610  0.20880  0.37170  Biso   1.000  H
  H109     1.0000 0.02390  0.70880  0.12830  Biso   1.000  H
  H110     1.0000 0.52390  0.70880  0.37170  Biso   1.000  H
  H111     1.0000 0.47610  0.20880  0.12830  Biso   1.000  H
  H112     1.0000 0.02390  0.79120  0.62830  Biso   1.000  H
  C105     1.0000 0.07520  0.28290  0.94240  Biso   1.000  C
  C106     1.0000 0.57520  0.28290  0.55760  Biso   1.000  C
  C107     1.0000 0.42480  0.78290  0.94240  Biso   1.000  C
  C108     1.0000 0.07520  0.21710  0.44240  Biso   1.000  C
  C109     1.0000 0.92480  0.71710  0.05760  Biso   1.000  C
  C110     1.0000 0.42480  0.71710  0.44240  Biso   1.000  C
  C111     1.0000 0.57520  0.21710  0.05760  Biso   1.000  C
  C112     1.0000 0.92480  0.78290  0.55760  Biso   1.000  C
  H113     1.0000 0.13490  0.32230  0.93810  Biso   1.000  H
  H114     1.0000 0.63490  0.32230  0.56190  Biso   1.000  H
  H115     1.0000 0.36510  0.82230  0.93810  Biso   1.000  H
  H116     1.0000 0.13490  0.17770  0.43810  Biso   1.000  H
  H117     1.0000 0.86510  0.67770  0.06190  Biso   1.000  H
  H118     1.0000 0.36510  0.67770  0.43810  Biso   1.000  H
  H119     1.0000 0.63490  0.17770  0.06190  Biso   1.000  H
  H120     1.0000 0.86510  0.82230  0.56190  Biso   1.000  H
  C113     1.0000 0.08200  0.24430  0.98790  Biso   1.000  C
  C114     1.0000 0.58200  0.24430  0.51210  Biso   1.000  C
  C115     1.0000 0.41800  0.74430  0.98790  Biso   1.000  C
  C116     1.0000 0.08200  0.25570  0.48790  Biso   1.000  C
  C117     1.0000 0.91800  0.75570  0.01210  Biso   1.000  C
  C118     1.0000 0.41800  0.75570  0.48790  Biso   1.000  C
  C119     1.0000 0.58200  0.25570  0.01210  Biso   1.000  C
  C120     1.0000 0.91800  0.74430  0.51210  Biso   1.000  C
  H121     1.0000 0.14620  0.25840  0.01380  Biso   1.000  H
  H122     1.0000 0.64620  0.25840  0.48620  Biso   1.000  H
  H123     1.0000 0.35380  0.75840  0.01380  Biso   1.000  H
  H124     1.0000 0.14620  0.24160  0.51380  Biso   1.000  H
  H125     1.0000 0.85380  0.74160  0.98620  Biso   1.000  H
  H126     1.0000 0.35380  0.74160  0.51380  Biso   1.000  H
  H127     1.0000 0.64620  0.24160  0.98620  Biso   1.000  H
  H128     1.0000 0.85380  0.75840  0.48620  Biso   1.000  H
  C121     1.0000 0.99450  0.18360  0.99700  Biso   1.000  C
  C122     1.0000 0.49450  0.18360  0.50300  Biso   1.000  C
  C123     1.0000 0.50550  0.68360  0.99700  Biso   1.000  C
  C124     1.0000 0.99450  0.31640  0.49700  Biso   1.000  C
  C125     1.0000 0.00550  0.81640  0.00300  Biso   1.000  C
  C126     1.0000 0.50550  0.81640  0.49700  Biso   1.000  C
  C127     1.0000 0.49450  0.31640  0.00300  Biso   1.000  C
  C128     1.0000 0.00550  0.68360  0.50300  Biso   1.000  C
  C129     1.0000 0.10750  0.99720  0.14156  Biso   1.000  C
  C130     1.0000 0.60750  0.99720  0.35844  Biso   1.000  C
  C131     1.0000 0.39250  0.49720  0.14156  Biso   1.000  C
  C132     1.0000 0.10750  0.50280  0.64156  Biso   1.000  C
  C133     1.0000 0.89250  0.00280  0.85844  Biso   1.000  C
  C134     1.0000 0.39250  0.00280  0.64156  Biso   1.000  C
  C135     1.0000 0.60750  0.50280  0.85844  Biso   1.000  C
  C136     1.0000 0.89250  0.49720  0.35844  Biso   1.000  C
  C137     1.0000 0.26160  0.99640  0.15709  Biso   1.000  C
  C138     1.0000 0.76160  0.99640  0.34291  Biso   1.000  C
  C139     1.0000 0.23840  0.49640  0.15709  Biso   1.000  C
  C140     1.0000 0.26160  0.50360  0.65709  Biso   1.000  C
  C141     1.0000 0.73840  0.00360  0.84291  Biso   1.000  C
  C142     1.0000 0.23840  0.00360  0.65709  Biso   1.000  C
  C143     1.0000 0.76160  0.50360  0.84291  Biso   1.000  C
  C144     1.0000 0.73840  0.49640  0.34291  Biso   1.000  C
  C145     1.0000 0.35410  0.05200  0.14267  Biso   1.000  C
  C146     1.0000 0.85410  0.05200  0.35733  Biso   1.000  C
  C147     1.0000 0.14590  0.55200  0.14267  Biso   1.000  C
  C148     1.0000 0.35410  0.44800  0.64267  Biso   1.000  C
  C149     1.0000 0.64590  0.94800  0.85733  Biso   1.000  C
  C150     1.0000 0.14590  0.94800  0.64267  Biso   1.000  C
  C151     1.0000 0.85410  0.44800  0.85733  Biso   1.000  C
  C152     1.0000 0.64590  0.55200  0.35733  Biso   1.000  C
  H129     1.0000 0.31850  0.09070  0.12360  Biso   1.000  H
  H130     1.0000 0.81850  0.09070  0.37640  Biso   1.000  H
  H131     1.0000 0.18150  0.59070  0.12360  Biso   1.000  H
  H132     1.0000 0.31850  0.40930  0.62360  Biso   1.000  H
  H133     1.0000 0.68150  0.90930  0.87640  Biso   1.000  H
  H134     1.0000 0.18150  0.90930  0.62360  Biso   1.000  H
  H135     1.0000 0.81850  0.40930  0.87640  Biso   1.000  H
  H136     1.0000 0.68150  0.59070  0.37640  Biso   1.000  H
  C153     1.0000 0.49660  0.05080  0.15612  Biso   1.000  C
  C154     1.0000 0.99660  0.05080  0.34388  Biso   1.000  C
  C155     1.0000 0.00340  0.55080  0.15612  Biso   1.000  C
  C156     1.0000 0.49660  0.44920  0.65612  Biso   1.000  C
  C157     1.0000 0.50340  0.94920  0.84388  Biso   1.000  C
  C158     1.0000 0.00340  0.94920  0.65612  Biso   1.000  C
  C159     1.0000 0.99660  0.44920  0.84388  Biso   1.000  C
  C160     1.0000 0.50340  0.55080  0.34388  Biso   1.000  C
  H137     1.0000 0.55600  0.08820  0.14590  Biso   1.000  H
  H138     1.0000 0.05600  0.08820  0.35410  Biso   1.000  H
  H139     1.0000 0.94400  0.58820  0.14590  Biso   1.000  H
  H140     1.0000 0.55600  0.41180  0.64590  Biso   1.000  H
  H141     1.0000 0.44400  0.91180  0.85410  Biso   1.000  H
  H142     1.0000 0.94400  0.91180  0.64590  Biso   1.000  H
  H143     1.0000 0.05600  0.41180  0.85410  Biso   1.000  H
  H144     1.0000 0.44400  0.58820  0.35410  Biso   1.000  H
  C161     1.0000 0.55260  0.99370  0.18503  Biso   1.000  C
  C162     1.0000 0.05260  0.99370  0.31497  Biso   1.000  C
  C163     1.0000 0.94740  0.49370  0.18503  Biso   1.000  C
  C164     1.0000 0.55260  0.50630  0.68503  Biso   1.000  C
  C165     1.0000 0.44740  0.00630  0.81497  Biso   1.000  C
  C166     1.0000 0.94740  0.00630  0.68503  Biso   1.000  C
  C167     1.0000 0.05260  0.50630  0.81497  Biso   1.000  C
  C168     1.0000 0.44740  0.49370  0.31497  Biso   1.000  C
  C169     1.0000 0.46270  0.93870  0.19958  Biso   1.000  C
  C170     1.0000 0.96270  0.93870  0.30042  Biso   1.000  C
  C171     1.0000 0.03730  0.43870  0.19958  Biso   1.000  C
  C172     1.0000 0.46270  0.56130  0.69958  Biso   1.000  C
  C173     1.0000 0.53730  0.06130  0.80042  Biso   1.000  C
  C174     1.0000 0.03730  0.06130  0.69958  Biso   1.000  C
  C175     1.0000 0.96270  0.56130  0.80042  Biso   1.000  C
  C176     1.0000 0.53730  0.43870  0.30042  Biso   1.000  C
  H145     1.0000 0.49890  0.90020  0.21860  Biso   1.000  H
  H146     1.0000 0.99890  0.90020  0.28140  Biso   1.000  H
  H147     1.0000 0.00110  0.40020  0.21860  Biso   1.000  H
  H148     1.0000 0.49890  0.59980  0.71860  Biso   1.000  H
  H149     1.0000 0.50110  0.09980  0.78140  Biso   1.000  H
  H150     1.0000 0.00110  0.09980  0.71860  Biso   1.000  H
  H151     1.0000 0.99890  0.59980  0.78140  Biso   1.000  H
  H152     1.0000 0.50110  0.40020  0.28140  Biso   1.000  H
  C177     1.0000 0.31900  0.94000  0.18630  Biso   1.000  C
  C178     1.0000 0.81900  0.94000  0.31370  Biso   1.000  C
  C179     1.0000 0.18100  0.44000  0.18630  Biso   1.000  C
  C180     1.0000 0.31900  0.56000  0.68630  Biso   1.000  C
  C181     1.0000 0.68100  0.06000  0.81370  Biso   1.000  C
  C182     1.0000 0.18100  0.06000  0.68630  Biso   1.000  C
  C183     1.0000 0.81900  0.56000  0.81370  Biso   1.000  C
  C184     1.0000 0.68100  0.44000  0.31370  Biso   1.000  C
  H153     1.0000 0.26000  0.90270  0.19700  Biso   1.000  H
  H154     1.0000 0.76000  0.90270  0.30300  Biso   1.000  H
  H155     1.0000 0.24000  0.40270  0.19700  Biso   1.000  H
  H156     1.0000 0.26000  0.59730  0.69700  Biso   1.000  H
  H157     1.0000 0.74000  0.09730  0.80300  Biso   1.000  H
  H158     1.0000 0.24000  0.09730  0.69700  Biso   1.000  H
  H159     1.0000 0.76000  0.59730  0.80300  Biso   1.000  H
  H160     1.0000 0.74000  0.40270  0.30300  Biso   1.000  H
  C185     1.0000 0.71690  0.95560  0.04230  Biso   1.000  C
  C186     1.0000 0.21690  0.95560  0.45770  Biso   1.000  C
  C187     1.0000 0.78310  0.45560  0.04230  Biso   1.000  C
  C188     1.0000 0.71690  0.54440  0.54230  Biso   1.000  C
  C189     1.0000 0.28310  0.04440  0.95770  Biso   1.000  C
  C190     1.0000 0.78310  0.04440  0.54230  Biso   1.000  C
  C191     1.0000 0.21690  0.54440  0.95770  Biso   1.000  C
  C192     1.0000 0.28310  0.45560  0.45770  Biso   1.000  C
  H161     1.0000 0.65090  0.98540  0.06280  Biso   1.000  H
  H162     1.0000 0.15090  0.98540  0.43720  Biso   1.000  H
  H163     1.0000 0.84910  0.48540  0.06280  Biso   1.000  H
  H164     1.0000 0.65090  0.51460  0.56280  Biso   1.000  H
  H165     1.0000 0.34910  0.01460  0.93720  Biso   1.000  H
  H166     1.0000 0.84910  0.01460  0.56280  Biso   1.000  H
  H167     1.0000 0.15090  0.51460  0.93720  Biso   1.000  H
  H168     1.0000 0.34910  0.48540  0.43720  Biso   1.000  H
