data_image0
_cell_length_a       14.075
_cell_length_b       9.039
_cell_length_c       19.819
_cell_angle_alpha    90
_cell_angle_beta     106.56
_cell_angle_gamma    90

_symmetry_space_group_name_H-M    "P 1"
_symmetry_int_tables_number       1

loop_
  _symmetry_equiv_pos_as_xyz
  'x, y, z'

loop_
  _atom_site_label
  _atom_site_occupancy
  _atom_site_fract_x
  _atom_site_fract_y
  _atom_site_fract_z
  _atom_site_thermal_displace_type
  _atom_site_B_iso_or_equiv
  _atom_site_type_symbol
  Cu1      1.0000 0.25000  0.25000  0.50000  Biso   1.000  Cu
  Cu2      1.0000 0.75000  0.75000  0.50000  Biso   1.000  Cu
  Cu3      1.0000 0.25000  0.75000  0.00000  Biso   1.000  Cu
  Cu4      1.0000 0.75000  0.25000  0.00000  Biso   1.000  Cu
  Cu5      1.0000 0.00000  0.41712  0.25000  Biso   1.000  Cu
  Cu6      1.0000 0.50000  0.91712  0.25000  Biso   1.000  Cu
  Cu7      1.0000 0.00000  0.58288  0.75000  Biso   1.000  Cu
  Cu8      1.0000 0.50000  0.08288  0.75000  Biso   1.000  Cu
  O1       1.0000 0.08680  0.30760  0.45093  Biso   1.000  O
  O2       1.0000 0.58680  0.80760  0.45093  Biso   1.000  O
  O3       1.0000 0.08680  0.69240  0.95093  Biso   1.000  O
  O4       1.0000 0.58680  0.19240  0.95093  Biso   1.000  O
  O5       1.0000 0.91320  0.69240  0.54907  Biso   1.000  O
  O6       1.0000 0.41320  0.19240  0.54907  Biso   1.000  O
  O7       1.0000 0.91320  0.30760  0.04907  Biso   1.000  O
  O8       1.0000 0.41320  0.80760  0.04907  Biso   1.000  O
  O9       1.0000 0.24620  0.30920  0.39644  Biso   1.000  O
  O10      1.0000 0.74620  0.80920  0.39644  Biso   1.000  O
  O11      1.0000 0.24620  0.69080  0.89644  Biso   1.000  O
  O12      1.0000 0.74620  0.19080  0.89644  Biso   1.000  O
  O13      1.0000 0.75380  0.69080  0.60356  Biso   1.000  O
  O14      1.0000 0.25380  0.19080  0.60356  Biso   1.000  O
  O15      1.0000 0.75380  0.30920  0.10356  Biso   1.000  O
  O16      1.0000 0.25380  0.80920  0.10356  Biso   1.000  O
  O17      1.0000 0.99185  0.38130  0.34617  Biso   1.000  O
  O18      1.0000 0.49185  0.88130  0.34617  Biso   1.000  O
  O19      1.0000 0.99185  0.61870  0.84617  Biso   1.000  O
  O20      1.0000 0.49185  0.11870  0.84617  Biso   1.000  O
  O21      1.0000 0.00815  0.61870  0.65383  Biso   1.000  O
  O22      1.0000 0.50815  0.11870  0.65383  Biso   1.000  O
  O23      1.0000 0.00815  0.38130  0.15383  Biso   1.000  O
  O24      1.0000 0.50815  0.88130  0.15383  Biso   1.000  O
  O25      1.0000 0.14267  0.37410  0.29264  Biso   1.000  O
  O26      1.0000 0.64267  0.87410  0.29264  Biso   1.000  O
  O27      1.0000 0.14267  0.62590  0.79264  Biso   1.000  O
  O28      1.0000 0.64267  0.12590  0.79264  Biso   1.000  O
  O29      1.0000 0.85733  0.62590  0.70736  Biso   1.000  O
  O30      1.0000 0.35733  0.12590  0.70736  Biso   1.000  O
  O31      1.0000 0.85733  0.37410  0.20736  Biso   1.000  O
  O32      1.0000 0.35733  0.87410  0.20736  Biso   1.000  O
  C1       1.0000 0.07400  0.34160  0.38820  Biso   1.000  C
  C2       1.0000 0.57400  0.84160  0.38820  Biso   1.000  C
  C3       1.0000 0.07400  0.65840  0.88820  Biso   1.000  C
  C4       1.0000 0.57400  0.15840  0.88820  Biso   1.000  C
  C5       1.0000 0.92600  0.65840  0.61180  Biso   1.000  C
  C6       1.0000 0.42600  0.15840  0.61180  Biso   1.000  C
  C7       1.0000 0.92600  0.34160  0.11180  Biso   1.000  C
  C8       1.0000 0.42600  0.84160  0.11180  Biso   1.000  C
  C9       1.0000 0.16220  0.34010  0.35730  Biso   1.000  C
  C10      1.0000 0.66220  0.84010  0.35730  Biso   1.000  C
  C11      1.0000 0.16220  0.65990  0.85730  Biso   1.000  C
  C12      1.0000 0.66220  0.15990  0.85730  Biso   1.000  C
  C13      1.0000 0.83780  0.65990  0.64270  Biso   1.000  C
  C14      1.0000 0.33780  0.15990  0.64270  Biso   1.000  C
  C15      1.0000 0.83780  0.34010  0.14270  Biso   1.000  C
  C16      1.0000 0.33780  0.84010  0.14270  Biso   1.000  C
  N1       1.0000 0.28280  0.46280  0.53143  Biso   1.000  N
  N2       1.0000 0.78280  0.96280  0.53143  Biso   1.000  N
  N3       1.0000 0.28280  0.53720  0.03143  Biso   1.000  N
  N4       1.0000 0.78280  0.03720  0.03143  Biso   1.000  N
  N5       1.0000 0.71720  0.53720  0.46857  Biso   1.000  N
  N6       1.0000 0.21720  0.03720  0.46857  Biso   1.000  N
  N7       1.0000 0.71720  0.46280  0.96857  Biso   1.000  N
  N8       1.0000 0.21720  0.96280  0.96857  Biso   1.000  N
  C17      1.0000 0.23580  0.54610  0.56760  Biso   1.000  C
  C18      1.0000 0.73580  0.04610  0.56760  Biso   1.000  C
  C19      1.0000 0.23580  0.45390  0.06760  Biso   1.000  C
  C20      1.0000 0.73580  0.95390  0.06760  Biso   1.000  C
  C21      1.0000 0.76420  0.45390  0.43240  Biso   1.000  C
  C22      1.0000 0.26420  0.95390  0.43240  Biso   1.000  C
  C23      1.0000 0.76420  0.54610  0.93240  Biso   1.000  C
  C24      1.0000 0.26420  0.04610  0.93240  Biso   1.000  C
  C25      1.0000 0.27330  0.68580  0.59580  Biso   1.000  C
  C26      1.0000 0.77330  0.18580  0.59580  Biso   1.000  C
  C27      1.0000 0.27330  0.31420  0.09580  Biso   1.000  C
  C28      1.0000 0.77330  0.81420  0.09580  Biso   1.000  C
  C29      1.0000 0.72670  0.31420  0.40420  Biso   1.000  C
  C30      1.0000 0.22670  0.81420  0.40420  Biso   1.000  C
  C31      1.0000 0.72670  0.68580  0.90420  Biso   1.000  C
  C32      1.0000 0.22670  0.18580  0.90420  Biso   1.000  C
  C33      1.0000 0.35730  0.73580  0.58210  Biso   1.000  C
  C34      1.0000 0.85730  0.23580  0.58210  Biso   1.000  C
  C35      1.0000 0.35730  0.26420  0.08210  Biso   1.000  C
  C36      1.0000 0.85730  0.76420  0.08210  Biso   1.000  C
  C37      1.0000 0.64270  0.26420  0.41790  Biso   1.000  C
  C38      1.0000 0.14270  0.76420  0.41790  Biso   1.000  C
  C39      1.0000 0.64270  0.73580  0.91790  Biso   1.000  C
  C40      1.0000 0.14270  0.23580  0.91790  Biso   1.000  C
  C41      1.0000 0.40480  0.65230  0.54280  Biso   1.000  C
  C42      1.0000 0.90480  0.15230  0.54280  Biso   1.000  C
  C43      1.0000 0.40480  0.34770  0.04280  Biso   1.000  C
  C44      1.0000 0.90480  0.84770  0.04280  Biso   1.000  C
  C45      1.0000 0.59520  0.34770  0.45720  Biso   1.000  C
  C46      1.0000 0.09520  0.84770  0.45720  Biso   1.000  C
  C47      1.0000 0.59520  0.65230  0.95720  Biso   1.000  C
  C48      1.0000 0.09520  0.15230  0.95720  Biso   1.000  C
  C49      1.0000 0.36580  0.51830  0.51890  Biso   1.000  C
  C50      1.0000 0.86580  0.01830  0.51890  Biso   1.000  C
  C51      1.0000 0.36580  0.48170  0.01890  Biso   1.000  C
  C52      1.0000 0.86580  0.98170  0.01890  Biso   1.000  C
  C53      1.0000 0.63420  0.48170  0.48110  Biso   1.000  C
  C54      1.0000 0.13420  0.98170  0.48110  Biso   1.000  C
  C55      1.0000 0.63420  0.51830  0.98110  Biso   1.000  C
  C56      1.0000 0.13420  0.01830  0.98110  Biso   1.000  C
  N9       1.0000 0.15120  0.49540  0.57750  Biso   1.000  N
  N10      1.0000 0.65120  0.99540  0.57750  Biso   1.000  N
  N11      1.0000 0.15120  0.50460  0.07750  Biso   1.000  N
  N12      1.0000 0.65120  0.00460  0.07750  Biso   1.000  N
  N13      1.0000 0.84880  0.50460  0.42250  Biso   1.000  N
  N14      1.0000 0.34880  0.00460  0.42250  Biso   1.000  N
  N15      1.0000 0.84880  0.49540  0.92250  Biso   1.000  N
  N16      1.0000 0.34880  0.99540  0.92250  Biso   1.000  N
  C57      1.0000 0.22020  0.77180  0.63800  Biso   1.000  C
  C58      1.0000 0.72020  0.27180  0.63800  Biso   1.000  C
  C59      1.0000 0.22020  0.22820  0.13800  Biso   1.000  C
  C60      1.0000 0.72020  0.72820  0.13800  Biso   1.000  C
  C61      1.0000 0.77980  0.22820  0.36200  Biso   1.000  C
  C62      1.0000 0.27980  0.72820  0.36200  Biso   1.000  C
  C63      1.0000 0.77980  0.77180  0.86200  Biso   1.000  C
  C64      1.0000 0.27980  0.27180  0.86200  Biso   1.000  C
  N17      1.0000 0.98650  0.65720  0.25590  Biso   1.000  N
  N18      1.0000 0.48650  0.15720  0.25590  Biso   1.000  N
  N19      1.0000 0.98650  0.34280  0.75590  Biso   1.000  N
  N20      1.0000 0.48650  0.84280  0.75590  Biso   1.000  N
  N21      1.0000 0.01350  0.34280  0.74410  Biso   1.000  N
  N22      1.0000 0.51350  0.84280  0.74410  Biso   1.000  N
  N23      1.0000 0.01350  0.65720  0.24410  Biso   1.000  N
  N24      1.0000 0.51350  0.15720  0.24410  Biso   1.000  N
  C65      1.0000 0.04500  0.75270  0.23250  Biso   1.000  C
  C66      1.0000 0.54500  0.25270  0.23250  Biso   1.000  C
  C67      1.0000 0.04500  0.24730  0.73250  Biso   1.000  C
  C68      1.0000 0.54500  0.74730  0.73250  Biso   1.000  C
  C69      1.0000 0.95500  0.24730  0.76750  Biso   1.000  C
  C70      1.0000 0.45500  0.74730  0.76750  Biso   1.000  C
  C71      1.0000 0.95500  0.75270  0.26750  Biso   1.000  C
  C72      1.0000 0.45500  0.25270  0.26750  Biso   1.000  C
  C73      1.0000 0.03850  0.91380  0.24170  Biso   1.000  C
  C74      1.0000 0.53850  0.41380  0.24170  Biso   1.000  C
  C75      1.0000 0.03850  0.08620  0.74170  Biso   1.000  C
  C76      1.0000 0.53850  0.58620  0.74170  Biso   1.000  C
  C77      1.0000 0.96150  0.08620  0.75830  Biso   1.000  C
  C78      1.0000 0.46150  0.58620  0.75830  Biso   1.000  C
  C79      1.0000 0.96150  0.91380  0.25830  Biso   1.000  C
  C80      1.0000 0.46150  0.41380  0.25830  Biso   1.000  C
  C81      1.0000 0.96920  0.95460  0.27140  Biso   1.000  C
  C82      1.0000 0.46920  0.45460  0.27140  Biso   1.000  C
  C83      1.0000 0.96920  0.04540  0.77140  Biso   1.000  C
  C84      1.0000 0.46920  0.54540  0.77140  Biso   1.000  C
  C85      1.0000 0.03080  0.04540  0.72860  Biso   1.000  C
  C86      1.0000 0.53080  0.54540  0.72860  Biso   1.000  C
  C87      1.0000 0.03080  0.95460  0.22860  Biso   1.000  C
  C88      1.0000 0.53080  0.45460  0.22860  Biso   1.000  C
  C89      1.0000 0.09350  0.85770  0.20490  Biso   1.000  C
  C90      1.0000 0.59350  0.35770  0.20490  Biso   1.000  C
  C91      1.0000 0.09350  0.14230  0.70490  Biso   1.000  C
  C92      1.0000 0.59350  0.64230  0.70490  Biso   1.000  C
  C93      1.0000 0.90650  0.14230  0.79510  Biso   1.000  C
  C94      1.0000 0.40650  0.64230  0.79510  Biso   1.000  C
  C95      1.0000 0.90650  0.85770  0.29510  Biso   1.000  C
  C96      1.0000 0.40650  0.35770  0.29510  Biso   1.000  C
  C97      1.0000 0.91830  0.71400  0.28660  Biso   1.000  C
  C98      1.0000 0.41830  0.21400  0.28660  Biso   1.000  C
  C99      1.0000 0.91830  0.28600  0.78660  Biso   1.000  C
  C100     1.0000 0.41830  0.78600  0.78660  Biso   1.000  C
  C101     1.0000 0.08170  0.28600  0.71340  Biso   1.000  C
  C102     1.0000 0.58170  0.78600  0.71340  Biso   1.000  C
  C103     1.0000 0.08170  0.71400  0.21340  Biso   1.000  C
  C104     1.0000 0.58170  0.21400  0.21340  Biso   1.000  C
  N25      1.0000 0.10960  0.69410  0.19990  Biso   1.000  N
  N26      1.0000 0.60960  0.19410  0.19990  Biso   1.000  N
  N27      1.0000 0.10960  0.30590  0.69990  Biso   1.000  N
  N28      1.0000 0.60960  0.80590  0.69990  Biso   1.000  N
  N29      1.0000 0.89040  0.30590  0.80010  Biso   1.000  N
  N30      1.0000 0.39040  0.80590  0.80010  Biso   1.000  N
  N31      1.0000 0.89040  0.69410  0.30010  Biso   1.000  N
  N32      1.0000 0.39040  0.19410  0.30010  Biso   1.000  N
  C105     1.0000 0.10080  0.01330  0.21470  Biso   1.000  C
  C106     1.0000 0.60080  0.51330  0.21470  Biso   1.000  C
  C107     1.0000 0.10080  0.98670  0.71470  Biso   1.000  C
  C108     1.0000 0.60080  0.48670  0.71470  Biso   1.000  C
  C109     1.0000 0.89920  0.98670  0.78530  Biso   1.000  C
  C110     1.0000 0.39920  0.48670  0.78530  Biso   1.000  C
  C111     1.0000 0.89920  0.01330  0.28530  Biso   1.000  C
  C112     1.0000 0.39920  0.51330  0.28530  Biso   1.000  C
  H1       1.0000 0.38900  0.82500  0.60700  Biso   1.000  H
  H2       1.0000 0.88900  0.32500  0.60700  Biso   1.000  H
  H3       1.0000 0.38900  0.17500  0.10700  Biso   1.000  H
  H4       1.0000 0.88900  0.67500  0.10700  Biso   1.000  H
  H5       1.0000 0.61100  0.17500  0.39300  Biso   1.000  H
  H6       1.0000 0.11100  0.67500  0.39300  Biso   1.000  H
  H7       1.0000 0.61100  0.82500  0.89300  Biso   1.000  H
  H8       1.0000 0.11100  0.32500  0.89300  Biso   1.000  H
  H9       1.0000 0.46800  0.69200  0.53800  Biso   1.000  H
  H10      1.0000 0.96800  0.19200  0.53800  Biso   1.000  H
  H11      1.0000 0.46800  0.30800  0.03800  Biso   1.000  H
  H12      1.0000 0.96800  0.80800  0.03800  Biso   1.000  H
  H13      1.0000 0.53200  0.30800  0.46200  Biso   1.000  H
  H14      1.0000 0.03200  0.80800  0.46200  Biso   1.000  H
  H15      1.0000 0.53200  0.69200  0.96200  Biso   1.000  H
  H16      1.0000 0.03200  0.19200  0.96200  Biso   1.000  H
  H17      1.0000 0.39300  0.46800  0.49200  Biso   1.000  H
  H18      1.0000 0.89300  0.96800  0.49200  Biso   1.000  H
  H19      1.0000 0.39300  0.53200  0.99200  Biso   1.000  H
  H20      1.0000 0.89300  0.03200  0.99200  Biso   1.000  H
  H21      1.0000 0.60700  0.53200  0.50800  Biso   1.000  H
  H22      1.0000 0.10700  0.03200  0.50800  Biso   1.000  H
  H23      1.0000 0.60700  0.46800  0.00800  Biso   1.000  H
  H24      1.0000 0.10700  0.96800  0.00800  Biso   1.000  H
  H25      1.0000 0.10700  0.55900  0.60400  Biso   1.000  H
  H26      1.0000 0.60700  0.05900  0.60400  Biso   1.000  H
  H27      1.0000 0.10700  0.44100  0.10400  Biso   1.000  H
  H28      1.0000 0.60700  0.94100  0.10400  Biso   1.000  H
  H29      1.0000 0.89300  0.44100  0.39600  Biso   1.000  H
  H30      1.0000 0.39300  0.94100  0.39600  Biso   1.000  H
  H31      1.0000 0.89300  0.55900  0.89600  Biso   1.000  H
  H32      1.0000 0.39300  0.05900  0.89600  Biso   1.000  H
  H33      1.0000 0.13000  0.43300  0.56100  Biso   1.000  H
  H34      1.0000 0.63000  0.93300  0.56100  Biso   1.000  H
  H35      1.0000 0.13000  0.56700  0.06100  Biso   1.000  H
  H36      1.0000 0.63000  0.06700  0.06100  Biso   1.000  H
  H37      1.0000 0.87000  0.56700  0.43900  Biso   1.000  H
  H38      1.0000 0.37000  0.06700  0.43900  Biso   1.000  H
  H39      1.0000 0.87000  0.43300  0.93900  Biso   1.000  H
  H40      1.0000 0.37000  0.93300  0.93900  Biso   1.000  H
  H41      1.0000 0.23200  0.70700  0.68600  Biso   1.000  H
  H42      1.0000 0.73200  0.20700  0.68600  Biso   1.000  H
  H43      1.0000 0.23200  0.29300  0.18600  Biso   1.000  H
  H44      1.0000 0.73200  0.79300  0.18600  Biso   1.000  H
  H45      1.0000 0.76800  0.29300  0.31400  Biso   1.000  H
  H46      1.0000 0.26800  0.79300  0.31400  Biso   1.000  H
  H47      1.0000 0.76800  0.70700  0.81400  Biso   1.000  H
  H48      1.0000 0.26800  0.20700  0.81400  Biso   1.000  H
  H49      1.0000 0.16100  0.79300  0.62200  Biso   1.000  H
  H50      1.0000 0.66100  0.29300  0.62200  Biso   1.000  H
  H51      1.0000 0.16100  0.20700  0.12200  Biso   1.000  H
  H52      1.0000 0.66100  0.70700  0.12200  Biso   1.000  H
  H53      1.0000 0.83900  0.20700  0.37800  Biso   1.000  H
  H54      1.0000 0.33900  0.70700  0.37800  Biso   1.000  H
  H55      1.0000 0.83900  0.79300  0.87800  Biso   1.000  H
  H56      1.0000 0.33900  0.29300  0.87800  Biso   1.000  H
  H57      1.0000 0.26800  0.86000  0.65400  Biso   1.000  H
  H58      1.0000 0.76800  0.36000  0.65400  Biso   1.000  H
  H59      1.0000 0.26800  0.14000  0.15400  Biso   1.000  H
  H60      1.0000 0.76800  0.64000  0.15400  Biso   1.000  H
  H61      1.0000 0.73200  0.14000  0.34600  Biso   1.000  H
  H62      1.0000 0.23200  0.64000  0.34600  Biso   1.000  H
  H63      1.0000 0.73200  0.86000  0.84600  Biso   1.000  H
  H64      1.0000 0.23200  0.36000  0.84600  Biso   1.000  H
  H65      1.0000 0.95790  0.06530  0.27950  Biso   1.000  H
  H66      1.0000 0.45790  0.56530  0.27950  Biso   1.000  H
  H67      1.0000 0.95790  0.93470  0.77950  Biso   1.000  H
  H68      1.0000 0.45790  0.43470  0.77950  Biso   1.000  H
  H69      1.0000 0.04210  0.93470  0.72050  Biso   1.000  H
  H70      1.0000 0.54210  0.43470  0.72050  Biso   1.000  H
  H71      1.0000 0.04210  0.06530  0.22050  Biso   1.000  H
  H72      1.0000 0.54210  0.56530  0.22050  Biso   1.000  H
  H73      1.0000 0.14350  0.90110  0.18270  Biso   1.000  H
  H74      1.0000 0.64350  0.40110  0.18270  Biso   1.000  H
  H75      1.0000 0.14350  0.09890  0.68270  Biso   1.000  H
  H76      1.0000 0.64350  0.59890  0.68270  Biso   1.000  H
  H77      1.0000 0.85650  0.09890  0.81730  Biso   1.000  H
  H78      1.0000 0.35650  0.59890  0.81730  Biso   1.000  H
  H79      1.0000 0.85650  0.90110  0.31730  Biso   1.000  H
  H80      1.0000 0.35650  0.40110  0.31730  Biso   1.000  H
  H81      1.0000 0.87440  0.64130  0.30320  Biso   1.000  H
  H82      1.0000 0.37440  0.14130  0.30320  Biso   1.000  H
  H83      1.0000 0.87440  0.35870  0.80320  Biso   1.000  H
  H84      1.0000 0.37440  0.85870  0.80320  Biso   1.000  H
  H85      1.0000 0.12560  0.35870  0.69680  Biso   1.000  H
  H86      1.0000 0.62560  0.85870  0.69680  Biso   1.000  H
  H87      1.0000 0.12560  0.64130  0.19680  Biso   1.000  H
  H88      1.0000 0.62560  0.14130  0.19680  Biso   1.000  H
  H89      1.0000 0.15290  0.76420  0.18250  Biso   1.000  H
  H90      1.0000 0.65290  0.26420  0.18250  Biso   1.000  H
  H91      1.0000 0.15290  0.23580  0.68250  Biso   1.000  H
  H92      1.0000 0.65290  0.73580  0.68250  Biso   1.000  H
  H93      1.0000 0.84710  0.23580  0.81750  Biso   1.000  H
  H94      1.0000 0.34710  0.73580  0.81750  Biso   1.000  H
  H95      1.0000 0.84710  0.76420  0.31750  Biso   1.000  H
  H96      1.0000 0.34710  0.26420  0.31750  Biso   1.000  H
  H97      1.0000 0.11510  0.58470  0.19370  Biso   1.000  H
  H98      1.0000 0.61510  0.08470  0.19370  Biso   1.000  H
  H99      1.0000 0.11510  0.41530  0.69370  Biso   1.000  H
  H100     1.0000 0.61510  0.91530  0.69370  Biso   1.000  H
  H101     1.0000 0.88490  0.41530  0.80630  Biso   1.000  H
  H102     1.0000 0.38490  0.91530  0.80630  Biso   1.000  H
  H103     1.0000 0.88490  0.58470  0.30630  Biso   1.000  H
  H104     1.0000 0.38490  0.08470  0.30630  Biso   1.000  H
  H105     1.0000 0.09590  0.12230  0.22000  Biso   1.000  H
  H106     1.0000 0.59590  0.62230  0.22000  Biso   1.000  H
  H107     1.0000 0.09590  0.87770  0.72000  Biso   1.000  H
  H108     1.0000 0.59590  0.37770  0.72000  Biso   1.000  H
  H109     1.0000 0.90410  0.87770  0.78000  Biso   1.000  H
  H110     1.0000 0.40410  0.37770  0.78000  Biso   1.000  H
  H111     1.0000 0.90410  0.12230  0.28000  Biso   1.000  H
  H112     1.0000 0.40410  0.62230  0.28000  Biso   1.000  H
  H113     1.0000 0.08580  0.99370  0.16240  Biso   1.000  H
  H114     1.0000 0.58580  0.49370  0.16240  Biso   1.000  H
  H115     1.0000 0.08580  0.00630  0.66240  Biso   1.000  H
  H116     1.0000 0.58580  0.50630  0.66240  Biso   1.000  H
  H117     1.0000 0.91420  0.00630  0.83760  Biso   1.000  H
  H118     1.0000 0.41420  0.50630  0.83760  Biso   1.000  H
  H119     1.0000 0.91420  0.99370  0.33760  Biso   1.000  H
  H120     1.0000 0.41420  0.49370  0.33760  Biso   1.000  H
  H121     1.0000 0.17130  0.98480  0.23790  Biso   1.000  H
  H122     1.0000 0.67130  0.48480  0.23790  Biso   1.000  H
  H123     1.0000 0.17130  0.01520  0.73790  Biso   1.000  H
  H124     1.0000 0.67130  0.51520  0.73790  Biso   1.000  H
  H125     1.0000 0.82870  0.01520  0.76210  Biso   1.000  H
  H126     1.0000 0.32870  0.51520  0.76210  Biso   1.000  H
  H127     1.0000 0.82870  0.98480  0.26210  Biso   1.000  H
  H128     1.0000 0.32870  0.48480  0.26210  Biso   1.000  H
