data_image0
_cell_length_a       9.5933
_cell_length_b       26.4724
_cell_length_c       9.8066
_cell_angle_alpha    90
_cell_angle_beta     106.049
_cell_angle_gamma    90

_symmetry_space_group_name_H-M    "P 1"
_symmetry_int_tables_number       1

loop_
  _symmetry_equiv_pos_as_xyz
  'x, y, z'

loop_
  _atom_site_label
  _atom_site_occupancy
  _atom_site_fract_x
  _atom_site_fract_y
  _atom_site_fract_z
  _atom_site_thermal_displace_type
  _atom_site_B_iso_or_equiv
  _atom_site_type_symbol
  Cu1      1.0000 0.80334  0.66239  0.98246  Biso   1.000  Cu
  Cu2      1.0000 0.19666  0.16239  0.01754  Biso   1.000  Cu
  Cu3      1.0000 0.44317  0.49827  0.73279  Biso   1.000  Cu
  Cu4      1.0000 0.55683  0.99827  0.26721  Biso   1.000  Cu
  Cu5      1.0000 0.16421  0.31842  0.52132  Biso   1.000  Cu
  Cu6      1.0000 0.83579  0.81842  0.47868  Biso   1.000  Cu
  S1       1.0000 0.05477  0.76080  0.37616  Biso   1.000  S
  S2       1.0000 0.94523  0.26080  0.62384  Biso   1.000  S
  S3       1.0000 0.59709  0.56124  0.57835  Biso   1.000  S
  S4       1.0000 0.40291  0.06124  0.42165  Biso   1.000  S
  S5       1.0000 0.60501  0.61213  0.11556  Biso   1.000  S
  S6       1.0000 0.39499  0.11213  0.88444  Biso   1.000  S
  S7       1.0000 0.37783  0.37414  0.38731  Biso   1.000  S
  S8       1.0000 0.62217  0.87414  0.61269  Biso   1.000  S
  S9       1.0000 0.29772  0.43438  0.89720  Biso   1.000  S
  S10      1.0000 0.70228  0.93438  0.10280  Biso   1.000  S
  S11      1.0000 0.95354  0.21937  0.11645  Biso   1.000  S
  S12      1.0000 0.04646  0.71937  0.88355  Biso   1.000  S
  N1       1.0000 0.89060  0.69952  0.15770  Biso   1.000  N
  N2       1.0000 0.10940  0.19952  0.84230  Biso   1.000  N
  N3       1.0000 0.72380  0.62685  0.80200  Biso   1.000  N
  N4       1.0000 0.27620  0.12685  0.19800  Biso   1.000  N
  N5       1.0000 0.65970  0.71899  0.91610  Biso   1.000  N
  N6       1.0000 0.34030  0.21899  0.08390  Biso   1.000  N
  N7       1.0000 0.95380  0.60772  0.04560  Biso   1.000  N
  N8       1.0000 0.04620  0.10772  0.95440  Biso   1.000  N
  N9       1.0000 0.51090  0.53963  0.90230  Biso   1.000  N
  N10      1.0000 0.48910  0.03963  0.09770  Biso   1.000  N
  N11      1.0000 0.37450  0.45674  0.56350  Biso   1.000  N
  N12      1.0000 0.62550  0.95674  0.43650  Biso   1.000  N
  N13      1.0000 0.26280  0.54367  0.66550  Biso   1.000  N
  N14      1.0000 0.73720  0.04367  0.33450  Biso   1.000  N
  N15      1.0000 0.62290  0.45267  0.79850  Biso   1.000  N
  N16      1.0000 0.37710  0.95267  0.20150  Biso   1.000  N
  N17      1.0000 0.23120  0.35517  0.70110  Biso   1.000  N
  N18      1.0000 0.76880  0.85517  0.29890  Biso   1.000  N
  N19      1.0000 0.08530  0.28399  0.34030  Biso   1.000  N
  N20      1.0000 0.91470  0.78399  0.65970  Biso   1.000  N
  N21      1.0000 0.01520  0.37424  0.45550  Biso   1.000  N
  N22      1.0000 0.98480  0.87424  0.54450  Biso   1.000  N
  N23      1.0000 0.32650  0.26756  0.58260  Biso   1.000  N
  N24      1.0000 0.67350  0.76756  0.41740  Biso   1.000  N
  C1       1.0000 0.95930  0.72529  0.24800  Biso   1.000  C
  C2       1.0000 0.04070  0.22529  0.75200  Biso   1.000  C
  C3       1.0000 0.51790  0.70880  0.86020  Biso   1.000  C
  C4       1.0000 0.48210  0.20880  0.13980  Biso   1.000  C
  H1       1.0000 0.48910  0.67520  0.84530  Biso   1.000  H
  H2       1.0000 0.51090  0.17520  0.15470  Biso   1.000  H
  C5       1.0000 0.67140  0.59969  0.70900  Biso   1.000  C
  C6       1.0000 0.32860  0.09969  0.29100  Biso   1.000  C
  C7       1.0000 0.41350  0.74606  0.82400  Biso   1.000  C
  C8       1.0000 0.58650  0.24606  0.17600  Biso   1.000  C
  H3       1.0000 0.31650  0.73760  0.78560  Biso   1.000  H
  H4       1.0000 0.68350  0.23760  0.21440  Biso   1.000  H
  C9       1.0000 0.45490  0.79636  0.84540  Biso   1.000  C
  C10      1.0000 0.54510  0.29636  0.15460  Biso   1.000  C
  C11      1.0000 0.60160  0.80681  0.90150  Biso   1.000  C
  C12      1.0000 0.39840  0.30681  0.09850  Biso   1.000  C
  H5       1.0000 0.63330  0.84010  0.91650  Biso   1.000  H
  H6       1.0000 0.36670  0.34010  0.08350  Biso   1.000  H
  C13      1.0000 0.69950  0.76786  0.93460  Biso   1.000  C
  C14      1.0000 0.30050  0.26786  0.06540  Biso   1.000  C
  H7       1.0000 0.79730  0.77550  0.97140  Biso   1.000  H
  H8       1.0000 0.20270  0.27550  0.02860  Biso   1.000  H
  C15      1.0000 0.34390  0.83806  0.80910  Biso   1.000  C
  C16      1.0000 0.65610  0.33806  0.19090  Biso   1.000  C
  H9       1.0000 0.37880  0.86680  0.86830  Biso   1.000  H
  H10      1.0000 0.62120  0.36680  0.13170  Biso   1.000  H
  H11      1.0000 0.25460  0.82650  0.82460  Biso   1.000  H
  H12      1.0000 0.74540  0.32650  0.17540  Biso   1.000  H
  H13      1.0000 0.32760  0.84740  0.71130  Biso   1.000  H
  H14      1.0000 0.67240  0.34740  0.28870  Biso   1.000  H
  C17      1.0000 0.98560  0.58865  0.17800  Biso   1.000  C
  C18      1.0000 0.01440  0.08865  0.82200  Biso   1.000  C
  H15      1.0000 0.92920  0.59840  0.23680  Biso   1.000  H
  H16      1.0000 0.07080  0.09840  0.76320  Biso   1.000  H
  C19      1.0000 0.09720  0.55558  0.22990  Biso   1.000  C
  C20      1.0000 0.90280  0.05558  0.77010  Biso   1.000  C
  H17      1.0000 0.11390  0.54290  0.32140  Biso   1.000  H
  H18      1.0000 0.88610  0.04290  0.67860  Biso   1.000  H
  C21      1.0000 0.18580  0.54086  0.14570  Biso   1.000  C
  C22      1.0000 0.81420  0.04086  0.85430  Biso   1.000  C
  C23      1.0000 0.15010  0.55987  0.00780  Biso   1.000  C
  C24      1.0000 0.84990  0.05987  0.99220  Biso   1.000  C
  H19      1.0000 0.20460  0.55050  0.94680  Biso   1.000  H
  H20      1.0000 0.79540  0.05050  0.05320  Biso   1.000  H
  C25      1.0000 0.03530  0.59222  0.96160  Biso   1.000  C
  C26      1.0000 0.96470  0.09222  0.03840  Biso   1.000  C
  H21      1.0000 0.01270  0.60390  0.86870  Biso   1.000  H
  H22      1.0000 0.98730  0.10390  0.13130  Biso   1.000  H
  C27      1.0000 0.31500  0.50748  0.20320  Biso   1.000  C
  C28      1.0000 0.68500  0.00748  0.79680  Biso   1.000  C
  H23      1.0000 0.38560  0.51360  0.15230  Biso   1.000  H
  H24      1.0000 0.61440  0.01360  0.84770  Biso   1.000  H
  H25      1.0000 0.28530  0.47270  0.19200  Biso   1.000  H
  H26      1.0000 0.71470  0.97270  0.80800  Biso   1.000  H
  H27      1.0000 0.35670  0.51470  0.30200  Biso   1.000  H
  H28      1.0000 0.64330  0.01470  0.69800  Biso   1.000  H
  C29      1.0000 0.54980  0.56978  0.99150  Biso   1.000  C
  C30      1.0000 0.45020  0.06978  0.00850  Biso   1.000  C
  C31      1.0000 0.37650  0.42250  0.48980  Biso   1.000  C
  C32      1.0000 0.62350  0.92250  0.51020  Biso   1.000  C
  C33      1.0000 0.12750  0.52473  0.62380  Biso   1.000  C
  C34      1.0000 0.87250  0.02473  0.37620  Biso   1.000  C
  H29      1.0000 0.11550  0.48990  0.62650  Biso   1.000  H
  H30      1.0000 0.88450  0.98990  0.37350  Biso   1.000  H
  C35      1.0000 0.00590  0.55465  0.57720  Biso   1.000  C
  C36      1.0000 0.99410  0.05465  0.42280  Biso   1.000  C
  H31      1.0000 0.91430  0.54000  0.55220  Biso   1.000  H
  H32      1.0000 0.08570  0.04000  0.44780  Biso   1.000  H
  C37      1.0000 0.02010  0.60712  0.56740  Biso   1.000  C
  C38      1.0000 0.97990  0.10712  0.43260  Biso   1.000  C
  C39      1.0000 0.16110  0.62626  0.61090  Biso   1.000  C
  C40      1.0000 0.83890  0.12626  0.38910  Biso   1.000  C
  H33      1.0000 0.17670  0.66090  0.60800  Biso   1.000  H
  H34      1.0000 0.82330  0.16090  0.39200  Biso   1.000  H
  C41      1.0000 0.27690  0.59407  0.65820  Biso   1.000  C
  C42      1.0000 0.72310  0.09407  0.34180  Biso   1.000  C
  H35      1.0000 0.36960  0.60780  0.68650  Biso   1.000  H
  H36      1.0000 0.63040  0.10780  0.31350  Biso   1.000  H
  C43      1.0000 0.89280  0.64165  0.51600  Biso   1.000  C
  C44      1.0000 0.10720  0.14165  0.48400  Biso   1.000  C
  H37      1.0000 0.91720  0.66820  0.45980  Biso   1.000  H
  H38      1.0000 0.08280  0.16820  0.54020  Biso   1.000  H
  H39      1.0000 0.86770  0.65610  0.59590  Biso   1.000  H
  H40      1.0000 0.13230  0.15610  0.40410  Biso   1.000  H
  H41      1.0000 0.81180  0.62290  0.45930  Biso   1.000  H
  H42      1.0000 0.18820  0.12290  0.54070  Biso   1.000  H
  C45      1.0000 0.75610  0.47192  0.85410  Biso   1.000  C
  C46      1.0000 0.24390  0.97192  0.14590  Biso   1.000  C
  H43      1.0000 0.76660  0.50680  0.86030  Biso   1.000  H
  H44      1.0000 0.23340  0.00680  0.13970  Biso   1.000  H
  C47      1.0000 0.87780  0.44221  0.90230  Biso   1.000  C
  C48      1.0000 0.12220  0.94221  0.09770  Biso   1.000  C
  H45      1.0000 0.96810  0.45730  0.93830  Biso   1.000  H
  H46      1.0000 0.03190  0.95730  0.06170  Biso   1.000  H
  C49      1.0000 0.86660  0.38972  0.89760  Biso   1.000  C
  C50      1.0000 0.13340  0.88972  0.10240  Biso   1.000  C
  C51      1.0000 0.72820  0.36994  0.83650  Biso   1.000  C
  C52      1.0000 0.27180  0.86994  0.16350  Biso   1.000  C
  H47      1.0000 0.71470  0.33520  0.82810  Biso   1.000  H
  H48      1.0000 0.28530  0.83520  0.17190  Biso   1.000  H
  C53      1.0000 0.61180  0.40209  0.78880  Biso   1.000  C
  C54      1.0000 0.38820  0.90209  0.21120  Biso   1.000  C
  H49      1.0000 0.52100  0.38810  0.74780  Biso   1.000  H
  H50      1.0000 0.47900  0.88810  0.25220  Biso   1.000  H
  C55      1.0000 0.99290  0.35516  0.95470  Biso   1.000  C
  C56      1.0000 0.00710  0.85516  0.04530  Biso   1.000  C
  H51      1.0000 0.96990  0.33170  0.01980  Biso   1.000  H
  H52      1.0000 0.03010  0.83170  0.98020  Biso   1.000  H
  H53      1.0000 0.07630  0.37470  0.00300  Biso   1.000  H
  H54      1.0000 0.92370  0.87470  0.99700  Biso   1.000  H
  H55      1.0000 0.01350  0.33700  0.87770  Biso   1.000  H
  H56      1.0000 0.98650  0.83700  0.12230  Biso   1.000  H
  C57      1.0000 0.25650  0.38848  0.78230  Biso   1.000  C
  C58      1.0000 0.74350  0.88848  0.21770  Biso   1.000  C
  C59      1.0000 0.02960  0.25670  0.24770  Biso   1.000  C
  C60      1.0000 0.97040  0.75670  0.75230  Biso   1.000  C
  C61      1.0000 0.00430  0.39799  0.33200  Biso   1.000  C
  C62      1.0000 0.99570  0.89799  0.66800  Biso   1.000  C
  H57      1.0000 0.06720  0.38900  0.27900  Biso   1.000  H
  H58      1.0000 0.93280  0.88900  0.72100  Biso   1.000  H
  C63      1.0000 0.90280  0.43522  0.28130  Biso   1.000  C
  C64      1.0000 0.09720  0.93522  0.71870  Biso   1.000  C
  H59      1.0000 0.90030  0.45160  0.19670  Biso   1.000  H
  H60      1.0000 0.09970  0.95160  0.80330  Biso   1.000  H
  C65      1.0000 0.80470  0.44835  0.35520  Biso   1.000  C
  C66      1.0000 0.19530  0.94835  0.64480  Biso   1.000  C
  C67      1.0000 0.81920  0.42449  0.48490  Biso   1.000  C
  C68      1.0000 0.18080  0.92449  0.51510  Biso   1.000  C
  H61      1.0000 0.75770  0.43290  0.53990  Biso   1.000  H
  H62      1.0000 0.24230  0.93290  0.46010  Biso   1.000  H
  C69      1.0000 0.92500  0.38830  0.53160  Biso   1.000  C
  C70      1.0000 0.07500  0.88830  0.46840  Biso   1.000  C
  H63      1.0000 0.93430  0.37310  0.61910  Biso   1.000  H
  H64      1.0000 0.06570  0.87310  0.38090  Biso   1.000  H
  C71      1.0000 0.68430  0.48487  0.29610  Biso   1.000  C
  C72      1.0000 0.31570  0.98487  0.70390  Biso   1.000  C
  H65      1.0000 0.62340  0.48710  0.35880  Biso   1.000  H
  H66      1.0000 0.37660  0.98710  0.64120  Biso   1.000  H
  H67      1.0000 0.62800  0.47340  0.20450  Biso   1.000  H
  H68      1.0000 0.37200  0.97340  0.79550  Biso   1.000  H
  H69      1.0000 0.72430  0.51750  0.28700  Biso   1.000  H
  H70      1.0000 0.27570  0.01750  0.71300  Biso   1.000  H
  C73      1.0000 0.39060  0.25807  0.72090  Biso   1.000  C
  C74      1.0000 0.60940  0.75807  0.27910  Biso   1.000  C
  H71      1.0000 0.35530  0.27440  0.78850  Biso   1.000  H
  H72      1.0000 0.64470  0.77440  0.21150  Biso   1.000  H
  C75      1.0000 0.50480  0.22557  0.76670  Biso   1.000  C
  C76      1.0000 0.49520  0.72557  0.23330  Biso   1.000  C
  H73      1.0000 0.54600  0.22080  0.86350  Biso   1.000  H
  H74      1.0000 0.45400  0.72080  0.13650  Biso   1.000  H
  C77      1.0000 0.55980  0.19964  0.66970  Biso   1.000  C
  C78      1.0000 0.44020  0.69964  0.33030  Biso   1.000  C
  C79      1.0000 0.49350  0.20923  0.52780  Biso   1.000  C
  C80      1.0000 0.50650  0.70923  0.47220  Biso   1.000  C
  H75      1.0000 0.52610  0.19290  0.45840  Biso   1.000  H
  H76      1.0000 0.47390  0.69290  0.54160  Biso   1.000  H
  C81      1.0000 0.38010  0.24262  0.48860  Biso   1.000  C
  C82      1.0000 0.61990  0.74262  0.51140  Biso   1.000  C
  H77      1.0000 0.33820  0.24830  0.39240  Biso   1.000  H
  H78      1.0000 0.66180  0.74830  0.60760  Biso   1.000  H
  C83      1.0000 0.68260  0.16258  0.71730  Biso   1.000  C
  C84      1.0000 0.31740  0.66258  0.28270  Biso   1.000  C
  H79      1.0000 0.76300  0.17340  0.68410  Biso   1.000  H
  H80      1.0000 0.23700  0.67340  0.31590  Biso   1.000  H
  H81      1.0000 0.65120  0.12980  0.67900  Biso   1.000  H
  H82      1.0000 0.34880  0.62980  0.32100  Biso   1.000  H
  H83      1.0000 0.71210  0.16080  0.81900  Biso   1.000  H
  H84      1.0000 0.28790  0.66080  0.18100  Biso   1.000  H
