data_image0
_cell_length_a       9.2237
_cell_length_b       11.0826
_cell_length_c       10.0614
_cell_angle_alpha    90
_cell_angle_beta     112.28
_cell_angle_gamma    90

_symmetry_space_group_name_H-M    "P 1"
_symmetry_int_tables_number       1

loop_
  _symmetry_equiv_pos_as_xyz
  'x, y, z'

loop_
  _atom_site_label
  _atom_site_occupancy
  _atom_site_fract_x
  _atom_site_fract_y
  _atom_site_fract_z
  _atom_site_thermal_displace_type
  _atom_site_B_iso_or_equiv
  _atom_site_type_symbol
  Cu1      1.0000 0.53043  0.36828  0.54003  Biso   1.000  Cu
  Cu2      1.0000 0.96957  0.86828  0.95997  Biso   1.000  Cu
  Cu3      1.0000 0.46957  0.63172  0.45997  Biso   1.000  Cu
  Cu4      1.0000 0.03043  0.13172  0.04003  Biso   1.000  Cu
  S1       1.0000 0.71229  0.18055  0.99594  Biso   1.000  S
  S2       1.0000 0.78771  0.68055  0.50406  Biso   1.000  S
  S3       1.0000 0.28771  0.81945  0.00406  Biso   1.000  S
  S4       1.0000 0.21229  0.31945  0.49594  Biso   1.000  S
  O1       1.0000 0.48840  0.47630  0.38030  Biso   1.000  O
  O2       1.0000 0.01160  0.97630  0.11970  Biso   1.000  O
  O3       1.0000 0.51160  0.52370  0.61970  Biso   1.000  O
  O4       1.0000 0.98840  0.02370  0.88030  Biso   1.000  O
  N1       1.0000 0.59740  0.28240  0.72050  Biso   1.000  N
  N2       1.0000 0.90260  0.78240  0.77950  Biso   1.000  N
  N3       1.0000 0.40260  0.71760  0.27950  Biso   1.000  N
  N4       1.0000 0.09740  0.21760  0.22050  Biso   1.000  N
  N5       1.0000 0.59690  0.23530  0.44170  Biso   1.000  N
  N6       1.0000 0.90310  0.73530  0.05830  Biso   1.000  N
  N7       1.0000 0.40310  0.76470  0.55830  Biso   1.000  N
  N8       1.0000 0.09690  0.26470  0.94170  Biso   1.000  N
  N9       1.0000 0.81990  0.34720  0.47180  Biso   1.000  N
  N10      1.0000 0.68010  0.84720  0.02820  Biso   1.000  N
  N11      1.0000 0.18010  0.65280  0.52820  Biso   1.000  N
  N12      1.0000 0.31990  0.15280  0.97180  Biso   1.000  N
  H1       1.0000 0.78090  0.40730  0.50490  Biso   1.000  H
  H2       1.0000 0.71910  0.90730  0.99510  Biso   1.000  H
  H3       1.0000 0.21910  0.59270  0.49510  Biso   1.000  H
  H4       1.0000 0.28090  0.09270  0.00490  Biso   1.000  H
  H5       1.0000 0.91210  0.35470  0.46560  Biso   1.000  H
  H6       1.0000 0.58790  0.85470  0.03440  Biso   1.000  H
  H7       1.0000 0.08790  0.64530  0.53440  Biso   1.000  H
  H8       1.0000 0.41210  0.14530  0.96560  Biso   1.000  H
  C1       1.0000 0.64540  0.23860  0.83430  Biso   1.000  C
  C2       1.0000 0.85460  0.73860  0.66570  Biso   1.000  C
  C3       1.0000 0.35460  0.76140  0.16570  Biso   1.000  C
  C4       1.0000 0.14540  0.26140  0.33430  Biso   1.000  C
  C5       1.0000 0.73780  0.24290  0.43040  Biso   1.000  C
  C6       1.0000 0.76220  0.74290  0.06960  Biso   1.000  C
  C7       1.0000 0.26220  0.75710  0.56960  Biso   1.000  C
  C8       1.0000 0.23780  0.25710  0.93040  Biso   1.000  C
  C9       1.0000 0.79750  0.14510  0.37770  Biso   1.000  C
  C10      1.0000 0.70250  0.64510  0.12230  Biso   1.000  C
  C11      1.0000 0.20250  0.85490  0.62230  Biso   1.000  C
  C12      1.0000 0.29750  0.35490  0.87770  Biso   1.000  C
  H9       1.0000 0.89680  0.15100  0.37010  Biso   1.000  H
  H10      1.0000 0.60320  0.65100  0.12990  Biso   1.000  H
  H11      1.0000 0.10320  0.84900  0.62990  Biso   1.000  H
  H12      1.0000 0.39680  0.34900  0.87010  Biso   1.000  H
  C13      1.0000 0.71190  0.04210  0.33770  Biso   1.000  C
  C14      1.0000 0.78810  0.54210  0.16230  Biso   1.000  C
  C15      1.0000 0.28810  0.95790  0.66230  Biso   1.000  C
  C16      1.0000 0.21190  0.45790  0.83770  Biso   1.000  C
  H13      1.0000 0.75230  0.97490  0.30430  Biso   1.000  H
  H14      1.0000 0.74770  0.47490  0.19570  Biso   1.000  H
  H15      1.0000 0.24770  0.02510  0.69570  Biso   1.000  H
  H16      1.0000 0.25230  0.52510  0.80430  Biso   1.000  H
  C17      1.0000 0.56450  0.03530  0.34590  Biso   1.000  C
  C18      1.0000 0.93550  0.53530  0.15410  Biso   1.000  C
  C19      1.0000 0.43550  0.96470  0.65410  Biso   1.000  C
  C20      1.0000 0.06450  0.46470  0.84590  Biso   1.000  C
  H17      1.0000 0.50190  0.96490  0.31580  Biso   1.000  H
  H18      1.0000 0.99810  0.46490  0.18420  Biso   1.000  H
  H19      1.0000 0.49810  0.03510  0.68420  Biso   1.000  H
  H20      1.0000 0.00190  0.53510  0.81580  Biso   1.000  H
  C21      1.0000 0.51260  0.13310  0.39850  Biso   1.000  C
  C22      1.0000 0.98740  0.63310  0.10150  Biso   1.000  C
  C23      1.0000 0.48740  0.86690  0.60150  Biso   1.000  C
  C24      1.0000 0.01260  0.36690  0.89850  Biso   1.000  C
  H21      1.0000 0.41260  0.12880  0.40490  Biso   1.000  H
  H22      1.0000 0.08740  0.62880  0.09510  Biso   1.000  H
  H23      1.0000 0.58740  0.87120  0.59510  Biso   1.000  H
  H24      1.0000 0.91260  0.37120  0.90490  Biso   1.000  H
  C25      1.0000 0.41890  0.44230  0.23270  Biso   1.000  C
  C26      1.0000 0.08110  0.94230  0.26730  Biso   1.000  C
  C27      1.0000 0.58110  0.55770  0.76730  Biso   1.000  C
  C28      1.0000 0.91890  0.05770  0.73270  Biso   1.000  C
  H25      1.0000 0.43090  0.50820  0.17270  Biso   1.000  H
  H26      1.0000 0.06910  0.00820  0.32730  Biso   1.000  H
  H27      1.0000 0.56910  0.49180  0.82730  Biso   1.000  H
  H28      1.0000 0.93090  0.99180  0.67270  Biso   1.000  H
  H29      1.0000 0.30730  0.42550  0.20730  Biso   1.000  H
  H30      1.0000 0.19270  0.92550  0.29270  Biso   1.000  H
  H31      1.0000 0.69270  0.57450  0.79270  Biso   1.000  H
  H32      1.0000 0.80730  0.07450  0.70730  Biso   1.000  H
  H33      1.0000 0.47100  0.36980  0.21660  Biso   1.000  H
  H34      1.0000 0.02900  0.86980  0.28340  Biso   1.000  H
  H35      1.0000 0.52900  0.63020  0.78340  Biso   1.000  H
  H36      1.0000 0.97100  0.13020  0.71660  Biso   1.000  H
