data_image0
_cell_length_a       10.6274
_cell_length_b       6.9581
_cell_length_c       5.676
_cell_angle_alpha    90
_cell_angle_beta     91.783
_cell_angle_gamma    90

_symmetry_space_group_name_H-M    "P 1"
_symmetry_int_tables_number       1

loop_
  _symmetry_equiv_pos_as_xyz
  'x, y, z'

loop_
  _atom_site_label
  _atom_site_occupancy
  _atom_site_fract_x
  _atom_site_fract_y
  _atom_site_fract_z
  _atom_site_thermal_displace_type
  _atom_site_B_iso_or_equiv
  _atom_site_type_symbol
  Cu1      1.0000 0.50000  0.50000  0.00000  Biso   1.000  Cu
  Cu2      1.0000 0.00000  0.00000  0.00000  Biso   1.000  Cu
  S1       1.0000 0.26996  0.50000  0.69801  Biso   1.000  S
  S2       1.0000 0.73004  0.50000  0.30199  Biso   1.000  S
  S3       1.0000 0.76996  0.00000  0.69801  Biso   1.000  S
  S4       1.0000 0.23004  0.00000  0.30199  Biso   1.000  S
  N1       1.0000 0.39710  0.50000  0.27300  Biso   1.000  N
  N2       1.0000 0.60290  0.50000  0.72700  Biso   1.000  N
  N3       1.0000 0.89710  0.00000  0.27300  Biso   1.000  N
  N4       1.0000 0.10290  0.00000  0.72700  Biso   1.000  N
  N5       1.0000 0.50000  0.20050  0.00000  Biso   1.000  N
  N6       1.0000 0.00000  0.70050  0.00000  Biso   1.000  N
  N7       1.0000 0.50000  0.79950  0.00000  Biso   1.000  N
  N8       1.0000 0.00000  0.29950  0.00000  Biso   1.000  N
  C1       1.0000 0.34360  0.50000  0.44810  Biso   1.000  C
  C2       1.0000 0.65640  0.50000  0.55190  Biso   1.000  C
  C3       1.0000 0.84360  0.00000  0.44810  Biso   1.000  C
  C4       1.0000 0.15640  0.00000  0.55190  Biso   1.000  C
  C5       1.0000 0.45318  0.09970  0.81680  Biso   1.000  C
  C6       1.0000 0.54682  0.09970  0.18320  Biso   1.000  C
  C7       1.0000 0.95318  0.59970  0.81680  Biso   1.000  C
  C8       1.0000 0.04682  0.59970  0.18320  Biso   1.000  C
  C9       1.0000 0.54682  0.90030  0.18320  Biso   1.000  C
  C10      1.0000 0.45318  0.90030  0.81680  Biso   1.000  C
  C11      1.0000 0.04682  0.40030  0.18320  Biso   1.000  C
  C12      1.0000 0.95318  0.40030  0.81680  Biso   1.000  C
  H1       1.0000 0.41910  0.16630  0.68340  Biso   1.000  H
  H2       1.0000 0.58090  0.16630  0.31660  Biso   1.000  H
  H3       1.0000 0.91910  0.66630  0.68340  Biso   1.000  H
  H4       1.0000 0.08090  0.66630  0.31660  Biso   1.000  H
  H5       1.0000 0.58090  0.83370  0.31660  Biso   1.000  H
  H6       1.0000 0.41910  0.83370  0.68340  Biso   1.000  H
  H7       1.0000 0.08090  0.33370  0.31660  Biso   1.000  H
  H8       1.0000 0.91910  0.33370  0.68340  Biso   1.000  H
