data_image0
_cell_length_a       8.0172
_cell_length_b       10.3427
_cell_length_c       11.3382
_cell_angle_alpha    112.115
_cell_angle_beta     97.019
_cell_angle_gamma    98.588

_symmetry_space_group_name_H-M    "P 1"
_symmetry_int_tables_number       1

loop_
  _symmetry_equiv_pos_as_xyz
  'x, y, z'

loop_
  _atom_site_label
  _atom_site_occupancy
  _atom_site_fract_x
  _atom_site_fract_y
  _atom_site_fract_z
  _atom_site_thermal_displace_type
  _atom_site_B_iso_or_equiv
  _atom_site_type_symbol
  Cu1      1.0000 0.51139  0.48959  0.24878  Biso   1.000  Cu
  Cu2      1.0000 0.48861  0.51041  0.75122  Biso   1.000  Cu
  S1       1.0000 0.25925  0.29335  0.51604  Biso   1.000  S
  S2       1.0000 0.74075  0.70665  0.48396  Biso   1.000  S
  S3       1.0000 0.71276  0.72533  0.99340  Biso   1.000  S
  S4       1.0000 0.28724  0.27467  0.00660  Biso   1.000  S
  N1       1.0000 0.39790  0.39480  0.34580  Biso   1.000  N
  N2       1.0000 0.60210  0.60520  0.65420  Biso   1.000  N
  N3       1.0000 0.62480  0.58520  0.15240  Biso   1.000  N
  N4       1.0000 0.37520  0.41480  0.84760  Biso   1.000  N
  N5       1.0000 0.68250  0.35710  0.22200  Biso   1.000  N
  N6       1.0000 0.31750  0.64290  0.77800  Biso   1.000  N
  N7       1.0000 0.15510  0.03250  0.14250  Biso   1.000  N
  N8       1.0000 0.84490  0.96750  0.85750  Biso   1.000  N
  N9       1.0000 0.33680  0.62010  0.27340  Biso   1.000  N
  N10      1.0000 0.66320  0.37990  0.72660  Biso   1.000  N
  N11      1.0000 0.87700  0.95560  0.34370  Biso   1.000  N
  N12      1.0000 0.12300  0.04440  0.65630  Biso   1.000  N
  C1       1.0000 0.33940  0.35330  0.41730  Biso   1.000  C
  C2       1.0000 0.66060  0.64670  0.58270  Biso   1.000  C
  C3       1.0000 0.66050  0.64450  0.08660  Biso   1.000  C
  C4       1.0000 0.33950  0.35550  0.91340  Biso   1.000  C
  C5       1.0000 0.63500  0.21730  0.19300  Biso   1.000  C
  C6       1.0000 0.36500  0.78270  0.80700  Biso   1.000  C
  H1       1.0000 0.51740  0.17860  0.18630  Biso   1.000  H
  H2       1.0000 0.48260  0.82140  0.81370  Biso   1.000  H
  C7       1.0000 0.74870  0.12680  0.17240  Biso   1.000  C
  C8       1.0000 0.25130  0.87320  0.82760  Biso   1.000  C
  H3       1.0000 0.71090  0.02810  0.15240  Biso   1.000  H
  H4       1.0000 0.28910  0.97190  0.84760  Biso   1.000  H
  C9       1.0000 0.92070  0.18470  0.18190  Biso   1.000  C
  C10      1.0000 0.07930  0.81530  0.81810  Biso   1.000  C
  C11      1.0000 0.97140  0.33010  0.21250  Biso   1.000  C
  C12      1.0000 0.02860  0.66990  0.78750  Biso   1.000  C
  H5       1.0000 0.08810  0.37210  0.22000  Biso   1.000  H
  H6       1.0000 0.91190  0.62790  0.78000  Biso   1.000  H
  C13      1.0000 0.84810  0.41160  0.23150  Biso   1.000  C
  C14      1.0000 0.15190  0.58840  0.76850  Biso   1.000  C
  H7       1.0000 0.88230  0.51080  0.25220  Biso   1.000  H
  H8       1.0000 0.11770  0.48920  0.74780  Biso   1.000  H
  C15      1.0000 0.04860  0.09710  0.16010  Biso   1.000  C
  C16      1.0000 0.95140  0.90290  0.83990  Biso   1.000  C
  C17      1.0000 0.26480  0.64890  0.17570  Biso   1.000  C
  C18      1.0000 0.73520  0.35110  0.82430  Biso   1.000  C
  H9       1.0000 0.29650  0.60830  0.09360  Biso   1.000  H
  H10      1.0000 0.70350  0.39170  0.90640  Biso   1.000  H
  C19      1.0000 0.14570  0.73590  0.18930  Biso   1.000  C
  C20      1.0000 0.85430  0.26410  0.81070  Biso   1.000  C
  H11      1.0000 0.09530  0.75320  0.11790  Biso   1.000  H
  H12      1.0000 0.90470  0.24680  0.88210  Biso   1.000  H
  C21      1.0000 0.10270  0.79660  0.31020  Biso   1.000  C
  C22      1.0000 0.89730  0.20340  0.68980  Biso   1.000  C
  C23      1.0000 0.17930  0.76850  0.41300  Biso   1.000  C
  C24      1.0000 0.82070  0.23150  0.58700  Biso   1.000  C
  H13      1.0000 0.15260  0.80970  0.49680  Biso   1.000  H
  H14      1.0000 0.84740  0.19030  0.50320  Biso   1.000  H
  C25      1.0000 0.29440  0.67970  0.38980  Biso   1.000  C
  C26      1.0000 0.70560  0.32030  0.61020  Biso   1.000  C
  H15      1.0000 0.34600  0.65980  0.45930  Biso   1.000  H
  H16      1.0000 0.65400  0.34020  0.54070  Biso   1.000  H
  C27      1.0000 0.97830  0.88640  0.32950  Biso   1.000  C
  C28      1.0000 0.02170  0.11360  0.67050  Biso   1.000  C
