data_image0
_cell_length_a       9.4009
_cell_length_b       16.0371
_cell_length_c       23.9505
_cell_angle_alpha    90
_cell_angle_beta     90
_cell_angle_gamma    90

_symmetry_space_group_name_H-M    "P 1"
_symmetry_int_tables_number       1

loop_
  _symmetry_equiv_pos_as_xyz
  'x, y, z'

loop_
  _atom_site_label
  _atom_site_occupancy
  _atom_site_fract_x
  _atom_site_fract_y
  _atom_site_fract_z
  _atom_site_thermal_displace_type
  _atom_site_B_iso_or_equiv
  _atom_site_type_symbol
  Cu1      1.0000 0.68076  0.35903  0.48930  Biso   1.000  Cu
  Cu2      1.0000 0.81924  0.64097  0.98930  Biso   1.000  Cu
  Cu3      1.0000 0.31924  0.85903  0.01070  Biso   1.000  Cu
  Cu4      1.0000 0.18076  0.14097  0.51070  Biso   1.000  Cu
  Cu5      1.0000 0.31924  0.64097  0.51070  Biso   1.000  Cu
  Cu6      1.0000 0.18076  0.35903  0.01070  Biso   1.000  Cu
  Cu7      1.0000 0.68076  0.14097  0.98930  Biso   1.000  Cu
  Cu8      1.0000 0.81924  0.85903  0.48930  Biso   1.000  Cu
  S1       1.0000 0.13345  0.29532  0.56450  Biso   1.000  S
  S2       1.0000 0.36655  0.70468  0.06450  Biso   1.000  S
  S3       1.0000 0.86655  0.79532  0.93550  Biso   1.000  S
  S4       1.0000 0.63345  0.20468  0.43550  Biso   1.000  S
  S5       1.0000 0.86655  0.70468  0.43550  Biso   1.000  S
  S6       1.0000 0.63345  0.29532  0.93550  Biso   1.000  S
  S7       1.0000 0.13345  0.20468  0.06450  Biso   1.000  S
  S8       1.0000 0.36655  0.79532  0.56450  Biso   1.000  S
  S9       1.0000 0.24185  0.48593  0.44381  Biso   1.000  S
  S10      1.0000 0.25815  0.51407  0.94381  Biso   1.000  S
  S11      1.0000 0.75815  0.98593  0.05619  Biso   1.000  S
  S12      1.0000 0.74185  0.01407  0.55619  Biso   1.000  S
  S13      1.0000 0.75815  0.51407  0.55619  Biso   1.000  S
  S14      1.0000 0.74185  0.48593  0.05619  Biso   1.000  S
  S15      1.0000 0.24185  0.01407  0.94381  Biso   1.000  S
  S16      1.0000 0.25815  0.98593  0.44381  Biso   1.000  S
  O1       1.0000 0.97799  0.58097  0.26596  Biso   1.000  O
  O2       1.0000 0.52201  0.41903  0.76596  Biso   1.000  O
  O3       1.0000 0.02201  0.08097  0.23404  Biso   1.000  O
  O4       1.0000 0.47799  0.91903  0.73404  Biso   1.000  O
  O5       1.0000 0.02201  0.41903  0.73404  Biso   1.000  O
  O6       1.0000 0.47799  0.58097  0.23404  Biso   1.000  O
  O7       1.0000 0.97799  0.91903  0.76596  Biso   1.000  O
  O8       1.0000 0.52201  0.08097  0.26596  Biso   1.000  O
  O9       1.0000 0.49536  0.15748  0.73728  Biso   1.000  O
  O10      1.0000 0.00464  0.84252  0.23728  Biso   1.000  O
  O11      1.0000 0.50464  0.65748  0.76272  Biso   1.000  O
  O12      1.0000 0.99536  0.34252  0.26272  Biso   1.000  O
  O13      1.0000 0.50464  0.84252  0.26272  Biso   1.000  O
  O14      1.0000 0.99536  0.15748  0.76272  Biso   1.000  O
  O15      1.0000 0.49536  0.34252  0.23728  Biso   1.000  O
  O16      1.0000 0.00464  0.65748  0.73728  Biso   1.000  O
  N1       1.0000 0.87421  0.32897  0.51171  Biso   1.000  N
  N2       1.0000 0.62579  0.67103  0.01171  Biso   1.000  N
  N3       1.0000 0.12579  0.82897  0.98829  Biso   1.000  N
  N4       1.0000 0.37421  0.17103  0.48829  Biso   1.000  N
  N5       1.0000 0.12579  0.67103  0.48829  Biso   1.000  N
  N6       1.0000 0.37421  0.32897  0.98829  Biso   1.000  N
  N7       1.0000 0.87421  0.17103  0.01171  Biso   1.000  N
  N8       1.0000 0.62579  0.82897  0.51171  Biso   1.000  N
  N9       1.0000 0.49179  0.40083  0.47065  Biso   1.000  N
  N10      1.0000 0.00821  0.59917  0.97065  Biso   1.000  N
  N11      1.0000 0.50821  0.90083  0.02935  Biso   1.000  N
  N12      1.0000 0.99179  0.09917  0.52935  Biso   1.000  N
  N13      1.0000 0.50821  0.59917  0.52935  Biso   1.000  N
  N14      1.0000 0.99179  0.40083  0.02935  Biso   1.000  N
  N15      1.0000 0.49179  0.09917  0.97065  Biso   1.000  N
  N16      1.0000 0.00821  0.90083  0.47065  Biso   1.000  N
  N17      1.0000 0.75112  0.41216  0.41664  Biso   1.000  N
  N18      1.0000 0.74888  0.58784  0.91664  Biso   1.000  N
  N19      1.0000 0.24888  0.91216  0.08336  Biso   1.000  N
  N20      1.0000 0.25112  0.08784  0.58336  Biso   1.000  N
  N21      1.0000 0.24888  0.58784  0.58336  Biso   1.000  N
  N22      1.0000 0.25112  0.41216  0.08336  Biso   1.000  N
  N23      1.0000 0.75112  0.08784  0.91664  Biso   1.000  N
  N24      1.0000 0.74888  0.91216  0.41664  Biso   1.000  N
  N25      1.0000 0.60110  0.31284  0.56217  Biso   1.000  N
  N26      1.0000 0.89890  0.68716  0.06217  Biso   1.000  N
  N27      1.0000 0.39890  0.81284  0.93783  Biso   1.000  N
  N28      1.0000 0.10110  0.18716  0.43783  Biso   1.000  N
  N29      1.0000 0.39890  0.68716  0.43783  Biso   1.000  N
  N30      1.0000 0.10110  0.31284  0.93783  Biso   1.000  N
  N31      1.0000 0.60110  0.18716  0.06217  Biso   1.000  N
  N32      1.0000 0.89890  0.81284  0.56217  Biso   1.000  N
  C1       1.0000 0.98091  0.31485  0.53416  Biso   1.000  C
  C2       1.0000 0.51909  0.68515  0.03416  Biso   1.000  C
  C3       1.0000 0.01909  0.81485  0.96584  Biso   1.000  C
  C4       1.0000 0.48091  0.18515  0.46584  Biso   1.000  C
  C5       1.0000 0.01909  0.68515  0.46584  Biso   1.000  C
  C6       1.0000 0.48091  0.31485  0.96584  Biso   1.000  C
  C7       1.0000 0.98091  0.18515  0.03416  Biso   1.000  C
  C8       1.0000 0.51909  0.81485  0.53416  Biso   1.000  C
  C9       1.0000 0.38736  0.43570  0.45955  Biso   1.000  C
  C10      1.0000 0.11264  0.56430  0.95955  Biso   1.000  C
  C11      1.0000 0.61264  0.93570  0.04045  Biso   1.000  C
  C12      1.0000 0.88736  0.06430  0.54045  Biso   1.000  C
  C13      1.0000 0.61264  0.56430  0.54045  Biso   1.000  C
  C14      1.0000 0.88736  0.43570  0.04045  Biso   1.000  C
  C15      1.0000 0.38736  0.06430  0.95955  Biso   1.000  C
  C16      1.0000 0.11264  0.93570  0.45955  Biso   1.000  C
  C17      1.0000 0.86488  0.46264  0.41500  Biso   1.000  C
  C18      1.0000 0.63512  0.53736  0.91500  Biso   1.000  C
  C19      1.0000 0.13512  0.96264  0.08500  Biso   1.000  C
  C20      1.0000 0.36488  0.03736  0.58500  Biso   1.000  C
  C21      1.0000 0.13512  0.53736  0.58500  Biso   1.000  C
  C22      1.0000 0.36488  0.46264  0.08500  Biso   1.000  C
  C23      1.0000 0.86488  0.03736  0.91500  Biso   1.000  C
  C24      1.0000 0.63512  0.96264  0.41500  Biso   1.000  C
  H1       1.0000 0.91820  0.47100  0.44820  Biso   1.000  H
  H2       1.0000 0.58180  0.52900  0.94820  Biso   1.000  H
  H3       1.0000 0.08180  0.97100  0.05180  Biso   1.000  H
  H4       1.0000 0.41820  0.02900  0.55180  Biso   1.000  H
  H5       1.0000 0.08180  0.52900  0.55180  Biso   1.000  H
  H6       1.0000 0.41820  0.47100  0.05180  Biso   1.000  H
  H7       1.0000 0.91820  0.02900  0.94820  Biso   1.000  H
  H8       1.0000 0.58180  0.97100  0.44820  Biso   1.000  H
  C25      1.0000 0.90748  0.50307  0.36673  Biso   1.000  C
  C26      1.0000 0.59252  0.49693  0.86673  Biso   1.000  C
  C27      1.0000 0.09252  0.00307  0.13327  Biso   1.000  C
  C28      1.0000 0.40748  0.99693  0.63327  Biso   1.000  C
  C29      1.0000 0.09252  0.49693  0.63327  Biso   1.000  C
  C30      1.0000 0.40748  0.50307  0.13327  Biso   1.000  C
  C31      1.0000 0.90748  0.99693  0.86673  Biso   1.000  C
  C32      1.0000 0.59252  0.00307  0.36673  Biso   1.000  C
  H9       1.0000 0.98760  0.53920  0.36710  Biso   1.000  H
  H10      1.0000 0.51240  0.46080  0.86710  Biso   1.000  H
  H11      1.0000 0.01240  0.03920  0.13290  Biso   1.000  H
  H12      1.0000 0.48760  0.96080  0.63290  Biso   1.000  H
  H13      1.0000 0.01240  0.46080  0.63290  Biso   1.000  H
  H14      1.0000 0.48760  0.53920  0.13290  Biso   1.000  H
  H15      1.0000 0.98760  0.96080  0.86710  Biso   1.000  H
  H16      1.0000 0.51240  0.03920  0.36710  Biso   1.000  H
  C33      1.0000 0.83129  0.49010  0.31764  Biso   1.000  C
  C34      1.0000 0.66871  0.50990  0.81764  Biso   1.000  C
  C35      1.0000 0.16871  0.99010  0.18236  Biso   1.000  C
  C36      1.0000 0.33129  0.00990  0.68236  Biso   1.000  C
  C37      1.0000 0.16871  0.50990  0.68236  Biso   1.000  C
  C38      1.0000 0.33129  0.49010  0.18236  Biso   1.000  C
  C39      1.0000 0.83129  0.00990  0.81764  Biso   1.000  C
  C40      1.0000 0.66871  0.99010  0.31764  Biso   1.000  C
  C41      1.0000 0.71319  0.43824  0.31945  Biso   1.000  C
  C42      1.0000 0.78681  0.56176  0.81945  Biso   1.000  C
  C43      1.0000 0.28681  0.93824  0.18055  Biso   1.000  C
  C44      1.0000 0.21319  0.06176  0.68055  Biso   1.000  C
  C45      1.0000 0.28681  0.56176  0.68055  Biso   1.000  C
  C46      1.0000 0.21319  0.43824  0.18055  Biso   1.000  C
  C47      1.0000 0.71319  0.06176  0.81945  Biso   1.000  C
  C48      1.0000 0.78681  0.93824  0.31945  Biso   1.000  C
  H17      1.0000 0.65830  0.42870  0.28680  Biso   1.000  H
  H18      1.0000 0.84170  0.57130  0.78680  Biso   1.000  H
  H19      1.0000 0.34170  0.92870  0.21320  Biso   1.000  H
  H20      1.0000 0.15830  0.07130  0.71320  Biso   1.000  H
  H21      1.0000 0.34170  0.57130  0.71320  Biso   1.000  H
  H22      1.0000 0.15830  0.42870  0.21320  Biso   1.000  H
  H23      1.0000 0.65830  0.07130  0.78680  Biso   1.000  H
  H24      1.0000 0.84170  0.92870  0.28680  Biso   1.000  H
  C49      1.0000 0.67623  0.40067  0.36926  Biso   1.000  C
  C50      1.0000 0.82377  0.59933  0.86926  Biso   1.000  C
  C51      1.0000 0.32377  0.90067  0.13074  Biso   1.000  C
  C52      1.0000 0.17623  0.09933  0.63074  Biso   1.000  C
  C53      1.0000 0.32377  0.59933  0.63074  Biso   1.000  C
  C54      1.0000 0.17623  0.40067  0.13074  Biso   1.000  C
  C55      1.0000 0.67623  0.09933  0.86926  Biso   1.000  C
  C56      1.0000 0.82377  0.90067  0.36926  Biso   1.000  C
  H25      1.0000 0.59500  0.36540  0.37020  Biso   1.000  H
  H26      1.0000 0.90500  0.63460  0.87020  Biso   1.000  H
  H27      1.0000 0.40500  0.86540  0.12980  Biso   1.000  H
  H28      1.0000 0.09500  0.13460  0.62980  Biso   1.000  H
  H29      1.0000 0.40500  0.63460  0.62980  Biso   1.000  H
  H30      1.0000 0.09500  0.36540  0.12980  Biso   1.000  H
  H31      1.0000 0.59500  0.13460  0.87020  Biso   1.000  H
  H32      1.0000 0.90500  0.86540  0.37020  Biso   1.000  H
  C57      1.0000 0.88120  0.53093  0.26423  Biso   1.000  C
  C58      1.0000 0.61880  0.46907  0.76423  Biso   1.000  C
  C59      1.0000 0.11880  0.03093  0.23577  Biso   1.000  C
  C60      1.0000 0.38120  0.96907  0.73577  Biso   1.000  C
  C61      1.0000 0.11880  0.46907  0.73577  Biso   1.000  C
  C62      1.0000 0.38120  0.53093  0.23577  Biso   1.000  C
  C63      1.0000 0.88120  0.96907  0.76423  Biso   1.000  C
  C64      1.0000 0.61880  0.03093  0.26423  Biso   1.000  C
  C65      1.0000 0.81170  0.50659  0.21040  Biso   1.000  C
  C66      1.0000 0.68830  0.49341  0.71040  Biso   1.000  C
  C67      1.0000 0.18830  0.00659  0.28960  Biso   1.000  C
  C68      1.0000 0.31170  0.99341  0.78960  Biso   1.000  C
  C69      1.0000 0.18830  0.49341  0.78960  Biso   1.000  C
  C70      1.0000 0.31170  0.50659  0.28960  Biso   1.000  C
  C71      1.0000 0.81170  0.99341  0.71040  Biso   1.000  C
  C72      1.0000 0.68830  0.00659  0.21040  Biso   1.000  C
  H33      1.0000 0.82310  0.44650  0.20450  Biso   1.000  H
  H34      1.0000 0.67690  0.55350  0.70450  Biso   1.000  H
  H35      1.0000 0.17690  0.94650  0.29550  Biso   1.000  H
  H36      1.0000 0.32310  0.05350  0.79550  Biso   1.000  H
  H37      1.0000 0.17690  0.55350  0.79550  Biso   1.000  H
  H38      1.0000 0.32310  0.44650  0.29550  Biso   1.000  H
  H39      1.0000 0.82310  0.05350  0.70450  Biso   1.000  H
  H40      1.0000 0.67690  0.94650  0.20450  Biso   1.000  H
  H41      1.0000 0.85630  0.53700  0.17950  Biso   1.000  H
  H42      1.0000 0.64370  0.46300  0.67950  Biso   1.000  H
  H43      1.0000 0.14370  0.03700  0.32050  Biso   1.000  H
  H44      1.0000 0.35630  0.96300  0.82050  Biso   1.000  H
  H45      1.0000 0.14370  0.46300  0.82050  Biso   1.000  H
  H46      1.0000 0.35630  0.53700  0.32050  Biso   1.000  H
  H47      1.0000 0.85630  0.96300  0.67950  Biso   1.000  H
  H48      1.0000 0.64370  0.03700  0.17950  Biso   1.000  H
  H49      1.0000 0.71020  0.52040  0.21200  Biso   1.000  H
  H50      1.0000 0.78980  0.47960  0.71200  Biso   1.000  H
  H51      1.0000 0.28980  0.02040  0.28800  Biso   1.000  H
  H52      1.0000 0.21020  0.97960  0.78800  Biso   1.000  H
  H53      1.0000 0.28980  0.47960  0.78800  Biso   1.000  H
  H54      1.0000 0.21020  0.52040  0.28800  Biso   1.000  H
  H55      1.0000 0.71020  0.97960  0.71200  Biso   1.000  H
  H56      1.0000 0.78980  0.02040  0.21200  Biso   1.000  H
  C73      1.0000 0.50272  0.35582  0.59075  Biso   1.000  C
  C74      1.0000 0.99728  0.64418  0.09075  Biso   1.000  C
  C75      1.0000 0.49728  0.85582  0.90925  Biso   1.000  C
  C76      1.0000 0.00272  0.14418  0.40925  Biso   1.000  C
  C77      1.0000 0.49728  0.64418  0.40925  Biso   1.000  C
  C78      1.0000 0.00272  0.35582  0.90925  Biso   1.000  C
  C79      1.0000 0.50272  0.14418  0.09075  Biso   1.000  C
  C80      1.0000 0.99728  0.85582  0.59075  Biso   1.000  C
  H57      1.0000 0.47130  0.40790  0.57640  Biso   1.000  H
  H58      1.0000 0.02870  0.59210  0.07640  Biso   1.000  H
  H59      1.0000 0.52870  0.90790  0.92360  Biso   1.000  H
  H60      1.0000 0.97130  0.09210  0.42360  Biso   1.000  H
  H61      1.0000 0.52870  0.59210  0.42360  Biso   1.000  H
  H62      1.0000 0.97130  0.40790  0.92360  Biso   1.000  H
  H63      1.0000 0.47130  0.09210  0.07640  Biso   1.000  H
  H64      1.0000 0.02870  0.90790  0.57640  Biso   1.000  H
  C81      1.0000 0.44536  0.32706  0.64034  Biso   1.000  C
  C82      1.0000 0.05464  0.67294  0.14034  Biso   1.000  C
  C83      1.0000 0.55464  0.82706  0.85966  Biso   1.000  C
  C84      1.0000 0.94536  0.17294  0.35966  Biso   1.000  C
  C85      1.0000 0.55464  0.67294  0.35966  Biso   1.000  C
  C86      1.0000 0.94536  0.32706  0.85966  Biso   1.000  C
  C87      1.0000 0.44536  0.17294  0.14034  Biso   1.000  C
  C88      1.0000 0.05464  0.82706  0.64034  Biso   1.000  C
  H65      1.0000 0.37570  0.35890  0.65960  Biso   1.000  H
  H66      1.0000 0.12430  0.64110  0.15960  Biso   1.000  H
  H67      1.0000 0.62430  0.85890  0.84040  Biso   1.000  H
  H68      1.0000 0.87570  0.14110  0.34040  Biso   1.000  H
  H69      1.0000 0.62430  0.64110  0.34040  Biso   1.000  H
  H70      1.0000 0.87570  0.35890  0.84040  Biso   1.000  H
  H71      1.0000 0.37570  0.14110  0.15960  Biso   1.000  H
  H72      1.0000 0.12430  0.85890  0.65960  Biso   1.000  H
  C89      1.0000 0.49093  0.25106  0.66154  Biso   1.000  C
  C90      1.0000 0.00907  0.74894  0.16154  Biso   1.000  C
  C91      1.0000 0.50907  0.75106  0.83846  Biso   1.000  C
  C92      1.0000 0.99093  0.24894  0.33846  Biso   1.000  C
  C93      1.0000 0.50907  0.74894  0.33846  Biso   1.000  C
  C94      1.0000 0.99093  0.25106  0.83846  Biso   1.000  C
  C95      1.0000 0.49093  0.24894  0.16154  Biso   1.000  C
  C96      1.0000 0.00907  0.75106  0.66154  Biso   1.000  C
  C97      1.0000 0.59103  0.20601  0.63136  Biso   1.000  C
  C98      1.0000 0.90897  0.79399  0.13136  Biso   1.000  C
  C99      1.0000 0.40897  0.70601  0.86864  Biso   1.000  C
  C100     1.0000 0.09103  0.29399  0.36864  Biso   1.000  C
  C101     1.0000 0.40897  0.79399  0.36864  Biso   1.000  C
  C102     1.0000 0.09103  0.20601  0.86864  Biso   1.000  C
  C103     1.0000 0.59103  0.29399  0.13136  Biso   1.000  C
  C104     1.0000 0.90897  0.70601  0.63136  Biso   1.000  C
  H73      1.0000 0.62320  0.15340  0.64450  Biso   1.000  H
  H74      1.0000 0.87680  0.84660  0.14450  Biso   1.000  H
  H75      1.0000 0.37680  0.65340  0.85550  Biso   1.000  H
  H76      1.0000 0.12320  0.34660  0.35550  Biso   1.000  H
  H77      1.0000 0.37680  0.84660  0.35550  Biso   1.000  H
  H78      1.0000 0.12320  0.15340  0.85550  Biso   1.000  H
  H79      1.0000 0.62320  0.34660  0.14450  Biso   1.000  H
  H80      1.0000 0.87680  0.65340  0.64450  Biso   1.000  H
  C105     1.0000 0.64332  0.23850  0.58211  Biso   1.000  C
  C106     1.0000 0.85668  0.76150  0.08211  Biso   1.000  C
  C107     1.0000 0.35668  0.73850  0.91789  Biso   1.000  C
  C108     1.0000 0.14332  0.26150  0.41789  Biso   1.000  C
  C109     1.0000 0.35668  0.76150  0.41789  Biso   1.000  C
  C110     1.0000 0.14332  0.23850  0.91789  Biso   1.000  C
  C111     1.0000 0.64332  0.26150  0.08211  Biso   1.000  C
  C112     1.0000 0.85668  0.73850  0.58211  Biso   1.000  C
  H81      1.0000 0.71150  0.20730  0.56160  Biso   1.000  H
  H82      1.0000 0.78850  0.79270  0.06160  Biso   1.000  H
  H83      1.0000 0.28850  0.70730  0.93840  Biso   1.000  H
  H84      1.0000 0.21150  0.29270  0.43840  Biso   1.000  H
  H85      1.0000 0.28850  0.79270  0.43840  Biso   1.000  H
  H86      1.0000 0.21150  0.20730  0.93840  Biso   1.000  H
  H87      1.0000 0.71150  0.29270  0.06160  Biso   1.000  H
  H88      1.0000 0.78850  0.70730  0.56160  Biso   1.000  H
  C113     1.0000 0.43598  0.21702  0.71612  Biso   1.000  C
  C114     1.0000 0.06402  0.78298  0.21612  Biso   1.000  C
  C115     1.0000 0.56402  0.71702  0.78388  Biso   1.000  C
  C116     1.0000 0.93598  0.28298  0.28388  Biso   1.000  C
  C117     1.0000 0.56402  0.78298  0.28388  Biso   1.000  C
  C118     1.0000 0.93598  0.21702  0.78388  Biso   1.000  C
  C119     1.0000 0.43598  0.28298  0.21612  Biso   1.000  C
  C120     1.0000 0.06402  0.71702  0.71612  Biso   1.000  C
  C121     1.0000 0.31020  0.25836  0.74282  Biso   1.000  C
  C122     1.0000 0.18980  0.74164  0.24282  Biso   1.000  C
  C123     1.0000 0.68980  0.75836  0.75718  Biso   1.000  C
  C124     1.0000 0.81020  0.24164  0.25718  Biso   1.000  C
  C125     1.0000 0.68980  0.74164  0.25718  Biso   1.000  C
  C126     1.0000 0.81020  0.25836  0.75718  Biso   1.000  C
  C127     1.0000 0.31020  0.24164  0.24282  Biso   1.000  C
  C128     1.0000 0.18980  0.75836  0.74282  Biso   1.000  C
  H89      1.0000 0.23370  0.26410  0.71530  Biso   1.000  H
  H90      1.0000 0.26630  0.73590  0.21530  Biso   1.000  H
  H91      1.0000 0.76630  0.76410  0.78470  Biso   1.000  H
  H92      1.0000 0.73370  0.23590  0.28470  Biso   1.000  H
  H93      1.0000 0.76630  0.73590  0.28470  Biso   1.000  H
  H94      1.0000 0.73370  0.26410  0.78470  Biso   1.000  H
  H95      1.0000 0.23370  0.23590  0.21530  Biso   1.000  H
  H96      1.0000 0.26630  0.76410  0.71530  Biso   1.000  H
  H97      1.0000 0.33780  0.31370  0.75640  Biso   1.000  H
  H98      1.0000 0.16220  0.68630  0.25640  Biso   1.000  H
  H99      1.0000 0.66220  0.81370  0.74360  Biso   1.000  H
  H100     1.0000 0.83780  0.18630  0.24360  Biso   1.000  H
  H101     1.0000 0.66220  0.68630  0.24360  Biso   1.000  H
  H102     1.0000 0.83780  0.31370  0.74360  Biso   1.000  H
  H103     1.0000 0.33780  0.18630  0.25640  Biso   1.000  H
  H104     1.0000 0.16220  0.81370  0.75640  Biso   1.000  H
  H105     1.0000 0.27690  0.22440  0.77420  Biso   1.000  H
  H106     1.0000 0.22310  0.77560  0.27420  Biso   1.000  H
  H107     1.0000 0.72310  0.72440  0.72580  Biso   1.000  H
  H108     1.0000 0.77690  0.27560  0.22580  Biso   1.000  H
  H109     1.0000 0.72310  0.77560  0.22580  Biso   1.000  H
  H110     1.0000 0.77690  0.22440  0.72580  Biso   1.000  H
  H111     1.0000 0.27690  0.27560  0.27420  Biso   1.000  H
  H112     1.0000 0.22310  0.72440  0.77420  Biso   1.000  H
