data_image0
_cell_length_a       10.7249
_cell_length_b       11.3597
_cell_length_c       22.3429
_cell_angle_alpha    90
_cell_angle_beta     90
_cell_angle_gamma    90

_symmetry_space_group_name_H-M    "P 1"
_symmetry_int_tables_number       1

loop_
  _symmetry_equiv_pos_as_xyz
  'x, y, z'

loop_
  _atom_site_label
  _atom_site_occupancy
  _atom_site_fract_x
  _atom_site_fract_y
  _atom_site_fract_z
  _atom_site_thermal_displace_type
  _atom_site_B_iso_or_equiv
  _atom_site_type_symbol
  Cu1      1.0000 0.25000  0.75000  0.58415  Biso   1.000  Cu
  Cu2      1.0000 0.75000  0.25000  0.91585  Biso   1.000  Cu
  Cu3      1.0000 0.75000  0.25000  0.41585  Biso   1.000  Cu
  Cu4      1.0000 0.25000  0.75000  0.08415  Biso   1.000  Cu
  S1       1.0000 0.01973  0.39777  0.60085  Biso   1.000  S
  S2       1.0000 0.48027  0.10223  0.60085  Biso   1.000  S
  S3       1.0000 0.98027  0.89777  0.89915  Biso   1.000  S
  S4       1.0000 0.51973  0.60223  0.89915  Biso   1.000  S
  S5       1.0000 0.98027  0.60223  0.39915  Biso   1.000  S
  S6       1.0000 0.51973  0.89777  0.39915  Biso   1.000  S
  S7       1.0000 0.01973  0.10223  0.10085  Biso   1.000  S
  S8       1.0000 0.48027  0.39777  0.10085  Biso   1.000  S
  N1       1.0000 0.14616  0.61041  0.58477  Biso   1.000  N
  N2       1.0000 0.35384  0.88959  0.58477  Biso   1.000  N
  N3       1.0000 0.85384  0.11041  0.91523  Biso   1.000  N
  N4       1.0000 0.64616  0.38959  0.91523  Biso   1.000  N
  N5       1.0000 0.85384  0.38959  0.41523  Biso   1.000  N
  N6       1.0000 0.64616  0.11041  0.41523  Biso   1.000  N
  N7       1.0000 0.14616  0.88959  0.08477  Biso   1.000  N
  N8       1.0000 0.35384  0.61041  0.08477  Biso   1.000  N
  N9       1.0000 0.25000  0.75000  0.49299  Biso   1.000  N
  N10      1.0000 0.75000  0.25000  0.00701  Biso   1.000  N
  N11      1.0000 0.75000  0.25000  0.50701  Biso   1.000  N
  N12      1.0000 0.25000  0.75000  0.99299  Biso   1.000  N
  N13      1.0000 0.25000  0.75000  0.17644  Biso   1.000  N
  N14      1.0000 0.75000  0.25000  0.32356  Biso   1.000  N
  N15      1.0000 0.75000  0.25000  0.82356  Biso   1.000  N
  N16      1.0000 0.25000  0.75000  0.67644  Biso   1.000  N
  C1       1.0000 0.09460  0.52180  0.59189  Biso   1.000  C
  C2       1.0000 0.40540  0.97820  0.59189  Biso   1.000  C
  C3       1.0000 0.90540  0.02180  0.90811  Biso   1.000  C
  C4       1.0000 0.59460  0.47820  0.90811  Biso   1.000  C
  C5       1.0000 0.90540  0.47820  0.40811  Biso   1.000  C
  C6       1.0000 0.59460  0.02180  0.40811  Biso   1.000  C
  C7       1.0000 0.09460  0.97820  0.09189  Biso   1.000  C
  C8       1.0000 0.40540  0.52180  0.09189  Biso   1.000  C
  C9       1.0000 0.30010  0.66040  0.46225  Biso   1.000  C
  C10      1.0000 0.19990  0.83960  0.46225  Biso   1.000  C
  C11      1.0000 0.69990  0.16040  0.03775  Biso   1.000  C
  C12      1.0000 0.80010  0.33960  0.03775  Biso   1.000  C
  C13      1.0000 0.69990  0.33960  0.53775  Biso   1.000  C
  C14      1.0000 0.80010  0.16040  0.53775  Biso   1.000  C
  C15      1.0000 0.30010  0.83960  0.96225  Biso   1.000  C
  C16      1.0000 0.19990  0.66040  0.96225  Biso   1.000  C
  H1       1.0000 0.33540  0.59650  0.48380  Biso   1.000  H
  H2       1.0000 0.16460  0.90350  0.48380  Biso   1.000  H
  H3       1.0000 0.66460  0.09650  0.01620  Biso   1.000  H
  H4       1.0000 0.83540  0.40350  0.01620  Biso   1.000  H
  H5       1.0000 0.66460  0.40350  0.51620  Biso   1.000  H
  H6       1.0000 0.83540  0.09650  0.51620  Biso   1.000  H
  H7       1.0000 0.33540  0.90350  0.98380  Biso   1.000  H
  H8       1.0000 0.16460  0.59650  0.98380  Biso   1.000  H
  C17      1.0000 0.30230  0.65750  0.40012  Biso   1.000  C
  C18      1.0000 0.19770  0.84250  0.40012  Biso   1.000  C
  C19      1.0000 0.69770  0.15750  0.09988  Biso   1.000  C
  C20      1.0000 0.80230  0.34250  0.09988  Biso   1.000  C
  C21      1.0000 0.69770  0.34250  0.59988  Biso   1.000  C
  C22      1.0000 0.80230  0.15750  0.59988  Biso   1.000  C
  C23      1.0000 0.30230  0.84250  0.90012  Biso   1.000  C
  C24      1.0000 0.19770  0.65750  0.90012  Biso   1.000  C
  H9       1.0000 0.33930  0.59290  0.37970  Biso   1.000  H
  H10      1.0000 0.16070  0.90710  0.37970  Biso   1.000  H
  H11      1.0000 0.66070  0.09290  0.12030  Biso   1.000  H
  H12      1.0000 0.83930  0.40710  0.12030  Biso   1.000  H
  H13      1.0000 0.66070  0.40710  0.62030  Biso   1.000  H
  H14      1.0000 0.83930  0.09290  0.62030  Biso   1.000  H
  H15      1.0000 0.33930  0.90710  0.87970  Biso   1.000  H
  H16      1.0000 0.16070  0.59290  0.87970  Biso   1.000  H
  C25      1.0000 0.25000  0.75000  0.36807  Biso   1.000  C
  C26      1.0000 0.75000  0.25000  0.13193  Biso   1.000  C
  C27      1.0000 0.75000  0.25000  0.63193  Biso   1.000  C
  C28      1.0000 0.25000  0.75000  0.86807  Biso   1.000  C
  C29      1.0000 0.25000  0.75000  0.30170  Biso   1.000  C
  C30      1.0000 0.75000  0.25000  0.19830  Biso   1.000  C
  C31      1.0000 0.75000  0.25000  0.69830  Biso   1.000  C
  C32      1.0000 0.25000  0.75000  0.80170  Biso   1.000  C
  C33      1.0000 0.23820  0.64580  0.26954  Biso   1.000  C
  C34      1.0000 0.26180  0.85420  0.26954  Biso   1.000  C
  C35      1.0000 0.76180  0.14580  0.23046  Biso   1.000  C
  C36      1.0000 0.73820  0.35420  0.23046  Biso   1.000  C
  C37      1.0000 0.76180  0.35420  0.73046  Biso   1.000  C
  C38      1.0000 0.73820  0.14580  0.73046  Biso   1.000  C
  C39      1.0000 0.23820  0.85420  0.76954  Biso   1.000  C
  C40      1.0000 0.26180  0.64580  0.76954  Biso   1.000  C
  H17      1.0000 0.22990  0.57280  0.28990  Biso   1.000  H
  H18      1.0000 0.27010  0.92720  0.28990  Biso   1.000  H
  H19      1.0000 0.77010  0.07280  0.21010  Biso   1.000  H
  H20      1.0000 0.72990  0.42720  0.21010  Biso   1.000  H
  H21      1.0000 0.77010  0.42720  0.71010  Biso   1.000  H
  H22      1.0000 0.72990  0.07280  0.71010  Biso   1.000  H
  H23      1.0000 0.22990  0.92720  0.78990  Biso   1.000  H
  H24      1.0000 0.27010  0.57280  0.78990  Biso   1.000  H
  C41      1.0000 0.23870  0.64920  0.20736  Biso   1.000  C
  C42      1.0000 0.26130  0.85080  0.20736  Biso   1.000  C
  C43      1.0000 0.76130  0.14920  0.29264  Biso   1.000  C
  C44      1.0000 0.73870  0.35080  0.29264  Biso   1.000  C
  C45      1.0000 0.76130  0.35080  0.79264  Biso   1.000  C
  C46      1.0000 0.73870  0.14920  0.79264  Biso   1.000  C
  C47      1.0000 0.23870  0.85080  0.70736  Biso   1.000  C
  C48      1.0000 0.26130  0.64920  0.70736  Biso   1.000  C
  H25      1.0000 0.23080  0.57740  0.18590  Biso   1.000  H
  H26      1.0000 0.26920  0.92260  0.18590  Biso   1.000  H
  H27      1.0000 0.76920  0.07740  0.31410  Biso   1.000  H
  H28      1.0000 0.73080  0.42260  0.31410  Biso   1.000  H
  H29      1.0000 0.76920  0.42260  0.81410  Biso   1.000  H
  H30      1.0000 0.73080  0.07740  0.81410  Biso   1.000  H
  H31      1.0000 0.23080  0.92260  0.68590  Biso   1.000  H
  H32      1.0000 0.26920  0.57740  0.68590  Biso   1.000  H
  Cu5      1.0000 0.25000  0.25000  0.59072  Biso   1.000  Cu
  Cu6      1.0000 0.75000  0.75000  0.90928  Biso   1.000  Cu
  Cu7      1.0000 0.75000  0.75000  0.40928  Biso   1.000  Cu
  Cu8      1.0000 0.25000  0.25000  0.09072  Biso   1.000  Cu
  S9       1.0000 0.48189  0.60372  0.59115  Biso   1.000  S
  S10      1.0000 0.01811  0.89628  0.59115  Biso   1.000  S
  S11      1.0000 0.51811  0.10372  0.90885  Biso   1.000  S
  S12      1.0000 0.98189  0.39628  0.90885  Biso   1.000  S
  S13      1.0000 0.51811  0.39628  0.40885  Biso   1.000  S
  S14      1.0000 0.98189  0.10372  0.40885  Biso   1.000  S
  S15      1.0000 0.48189  0.89628  0.09115  Biso   1.000  S
  S16      1.0000 0.01811  0.60372  0.09115  Biso   1.000  S
  N17      1.0000 0.35509  0.38875  0.59044  Biso   1.000  N
  N18      1.0000 0.14491  0.11125  0.59044  Biso   1.000  N
  N19      1.0000 0.64491  0.88875  0.90956  Biso   1.000  N
  N20      1.0000 0.85509  0.61125  0.90956  Biso   1.000  N
  N21      1.0000 0.64491  0.61125  0.40956  Biso   1.000  N
  N22      1.0000 0.85509  0.88875  0.40956  Biso   1.000  N
  N23      1.0000 0.35509  0.11125  0.09044  Biso   1.000  N
  N24      1.0000 0.14491  0.38875  0.09044  Biso   1.000  N
  N25      1.0000 0.25000  0.25000  0.49968  Biso   1.000  N
  N26      1.0000 0.75000  0.75000  0.00032  Biso   1.000  N
  N27      1.0000 0.75000  0.75000  0.50032  Biso   1.000  N
  N28      1.0000 0.25000  0.25000  0.99968  Biso   1.000  N
  N29      1.0000 0.25000  0.25000  0.18323  Biso   1.000  N
  N30      1.0000 0.75000  0.75000  0.31677  Biso   1.000  N
  N31      1.0000 0.75000  0.75000  0.81677  Biso   1.000  N
  N32      1.0000 0.25000  0.25000  0.68323  Biso   1.000  N
  C49      1.0000 0.40740  0.47810  0.59044  Biso   1.000  C
  C50      1.0000 0.09260  0.02190  0.59044  Biso   1.000  C
  C51      1.0000 0.59260  0.97810  0.90956  Biso   1.000  C
  C52      1.0000 0.90740  0.52190  0.90956  Biso   1.000  C
  C53      1.0000 0.59260  0.52190  0.40956  Biso   1.000  C
  C54      1.0000 0.90740  0.97810  0.40956  Biso   1.000  C
  C55      1.0000 0.40740  0.02190  0.09044  Biso   1.000  C
  C56      1.0000 0.09260  0.47810  0.09044  Biso   1.000  C
  C57      1.0000 0.30720  0.16440  0.46859  Biso   1.000  C
  C58      1.0000 0.19280  0.33560  0.46859  Biso   1.000  C
  C59      1.0000 0.69280  0.66440  0.03141  Biso   1.000  C
  C60      1.0000 0.80720  0.83560  0.03141  Biso   1.000  C
  C61      1.0000 0.69280  0.83560  0.53141  Biso   1.000  C
  C62      1.0000 0.80720  0.66440  0.53141  Biso   1.000  C
  C63      1.0000 0.30720  0.33560  0.96859  Biso   1.000  C
  C64      1.0000 0.19280  0.16440  0.96859  Biso   1.000  C
  H33      1.0000 0.34760  0.10310  0.49000  Biso   1.000  H
  H34      1.0000 0.15240  0.39690  0.49000  Biso   1.000  H
  H35      1.0000 0.65240  0.60310  0.01000  Biso   1.000  H
  H36      1.0000 0.84760  0.89690  0.01000  Biso   1.000  H
  H37      1.0000 0.65240  0.89690  0.51000  Biso   1.000  H
  H38      1.0000 0.84760  0.60310  0.51000  Biso   1.000  H
  H39      1.0000 0.34760  0.39690  0.99000  Biso   1.000  H
  H40      1.0000 0.15240  0.10310  0.99000  Biso   1.000  H
  C65      1.0000 0.30990  0.16170  0.40668  Biso   1.000  C
  C66      1.0000 0.19010  0.33830  0.40668  Biso   1.000  C
  C67      1.0000 0.69010  0.66170  0.09332  Biso   1.000  C
  C68      1.0000 0.80990  0.83830  0.09332  Biso   1.000  C
  C69      1.0000 0.69010  0.83830  0.59332  Biso   1.000  C
  C70      1.0000 0.80990  0.66170  0.59332  Biso   1.000  C
  C71      1.0000 0.30990  0.33830  0.90668  Biso   1.000  C
  C72      1.0000 0.19010  0.16170  0.90668  Biso   1.000  C
  H41      1.0000 0.35210  0.10020  0.38620  Biso   1.000  H
  H42      1.0000 0.14790  0.39980  0.38620  Biso   1.000  H
  H43      1.0000 0.64790  0.60020  0.11380  Biso   1.000  H
  H44      1.0000 0.85210  0.89980  0.11380  Biso   1.000  H
  H45      1.0000 0.64790  0.89980  0.61380  Biso   1.000  H
  H46      1.0000 0.85210  0.60020  0.61380  Biso   1.000  H
  H47      1.0000 0.35210  0.39980  0.88620  Biso   1.000  H
  H48      1.0000 0.14790  0.10020  0.88620  Biso   1.000  H
  C73      1.0000 0.25000  0.25000  0.37486  Biso   1.000  C
  C74      1.0000 0.75000  0.75000  0.12514  Biso   1.000  C
  C75      1.0000 0.75000  0.75000  0.62514  Biso   1.000  C
  C76      1.0000 0.25000  0.25000  0.87486  Biso   1.000  C
  C77      1.0000 0.25000  0.25000  0.30827  Biso   1.000  C
  C78      1.0000 0.75000  0.75000  0.19173  Biso   1.000  C
  C79      1.0000 0.75000  0.75000  0.69173  Biso   1.000  C
  C80      1.0000 0.25000  0.25000  0.80827  Biso   1.000  C
  C81      1.0000 0.14420  0.28210  0.27589  Biso   1.000  C
  C82      1.0000 0.35580  0.21790  0.27589  Biso   1.000  C
  C83      1.0000 0.85580  0.78210  0.22411  Biso   1.000  C
  C84      1.0000 0.64420  0.71790  0.22411  Biso   1.000  C
  C85      1.0000 0.85580  0.71790  0.72411  Biso   1.000  C
  C86      1.0000 0.64420  0.78210  0.72411  Biso   1.000  C
  C87      1.0000 0.14420  0.21790  0.77589  Biso   1.000  C
  C88      1.0000 0.35580  0.28210  0.77589  Biso   1.000  C
  H49      1.0000 0.07020  0.30480  0.29620  Biso   1.000  H
  H50      1.0000 0.42980  0.19520  0.29620  Biso   1.000  H
  H51      1.0000 0.92980  0.80480  0.20380  Biso   1.000  H
  H52      1.0000 0.57020  0.69520  0.20380  Biso   1.000  H
  H53      1.0000 0.92980  0.69520  0.70380  Biso   1.000  H
  H54      1.0000 0.57020  0.80480  0.70380  Biso   1.000  H
  H55      1.0000 0.07020  0.19520  0.79620  Biso   1.000  H
  H56      1.0000 0.42980  0.30480  0.79620  Biso   1.000  H
  C89      1.0000 0.14790  0.28070  0.21421  Biso   1.000  C
  C90      1.0000 0.35210  0.21930  0.21421  Biso   1.000  C
  C91      1.0000 0.85210  0.78070  0.28579  Biso   1.000  C
  C92      1.0000 0.64790  0.71930  0.28579  Biso   1.000  C
  C93      1.0000 0.85210  0.71930  0.78579  Biso   1.000  C
  C94      1.0000 0.64790  0.78070  0.78579  Biso   1.000  C
  C95      1.0000 0.14790  0.21930  0.71421  Biso   1.000  C
  C96      1.0000 0.35210  0.28070  0.71421  Biso   1.000  C
  H57      1.0000 0.07500  0.30240  0.19270  Biso   1.000  H
  H58      1.0000 0.42500  0.19760  0.19270  Biso   1.000  H
  H59      1.0000 0.92500  0.80240  0.30730  Biso   1.000  H
  H60      1.0000 0.57500  0.69760  0.30730  Biso   1.000  H
  H61      1.0000 0.92500  0.69760  0.80730  Biso   1.000  H
  H62      1.0000 0.57500  0.80240  0.80730  Biso   1.000  H
  H63      1.0000 0.07500  0.19760  0.69270  Biso   1.000  H
  H64      1.0000 0.42500  0.30240  0.69270  Biso   1.000  H
