data_image0
_cell_length_a       15.129
_cell_length_b       12.462
_cell_length_c       7.0062
_cell_angle_alpha    90
_cell_angle_beta     106
_cell_angle_gamma    90

_symmetry_space_group_name_H-M    "P 1"
_symmetry_int_tables_number       1

loop_
  _symmetry_equiv_pos_as_xyz
  'x, y, z'

loop_
  _atom_site_label
  _atom_site_occupancy
  _atom_site_fract_x
  _atom_site_fract_y
  _atom_site_fract_z
  _atom_site_thermal_displace_type
  _atom_site_B_iso_or_equiv
  _atom_site_type_symbol
  Cu1      1.0000 0.00000  0.27440  0.25000  Biso   1.000  Cu
  Cu2      1.0000 0.50000  0.77440  0.25000  Biso   1.000  Cu
  Cu3      1.0000 0.00000  0.72560  0.75000  Biso   1.000  Cu
  Cu4      1.0000 0.50000  0.22560  0.75000  Biso   1.000  Cu
  O1       1.0000 0.90589  0.38363  0.25280  Biso   1.000  O
  O2       1.0000 0.09411  0.38363  0.24720  Biso   1.000  O
  O3       1.0000 0.40589  0.88363  0.25280  Biso   1.000  O
  O4       1.0000 0.59411  0.88363  0.24720  Biso   1.000  O
  O5       1.0000 0.09411  0.61637  0.74720  Biso   1.000  O
  O6       1.0000 0.90589  0.61637  0.75280  Biso   1.000  O
  O7       1.0000 0.59411  0.11637  0.74720  Biso   1.000  O
  O8       1.0000 0.40589  0.11637  0.75280  Biso   1.000  O
  H1       1.0000 0.84920  0.36340  0.23920  Biso   1.000  H
  H2       1.0000 0.15080  0.36340  0.26080  Biso   1.000  H
  H3       1.0000 0.34920  0.86340  0.23920  Biso   1.000  H
  H4       1.0000 0.65080  0.86340  0.26080  Biso   1.000  H
  H5       1.0000 0.15080  0.63660  0.76080  Biso   1.000  H
  H6       1.0000 0.84920  0.63660  0.73920  Biso   1.000  H
  H7       1.0000 0.65080  0.13660  0.76080  Biso   1.000  H
  H8       1.0000 0.34920  0.13660  0.73920  Biso   1.000  H
  H9       1.0000 0.92340  0.45230  0.25560  Biso   1.000  H
  H10      1.0000 0.07660  0.45230  0.24440  Biso   1.000  H
  H11      1.0000 0.42340  0.95230  0.25560  Biso   1.000  H
  H12      1.0000 0.57660  0.95230  0.24440  Biso   1.000  H
  H13      1.0000 0.07660  0.54770  0.74440  Biso   1.000  H
  H14      1.0000 0.92340  0.54770  0.75560  Biso   1.000  H
  H15      1.0000 0.57660  0.04770  0.74440  Biso   1.000  H
  H16      1.0000 0.42340  0.04770  0.75560  Biso   1.000  H
  N1       1.0000 0.91218  0.15270  0.22810  Biso   1.000  N
  N2       1.0000 0.08782  0.15270  0.27190  Biso   1.000  N
  N3       1.0000 0.41218  0.65270  0.22810  Biso   1.000  N
  N4       1.0000 0.58782  0.65270  0.27190  Biso   1.000  N
  N5       1.0000 0.08782  0.84730  0.77190  Biso   1.000  N
  N6       1.0000 0.91218  0.84730  0.72810  Biso   1.000  N
  N7       1.0000 0.58782  0.34730  0.77190  Biso   1.000  N
  N8       1.0000 0.41218  0.34730  0.72810  Biso   1.000  N
  C1       1.0000 0.82131  0.16110  0.20420  Biso   1.000  C
  C2       1.0000 0.17869  0.16110  0.29580  Biso   1.000  C
  C3       1.0000 0.32131  0.66110  0.20420  Biso   1.000  C
  C4       1.0000 0.67869  0.66110  0.29580  Biso   1.000  C
  C5       1.0000 0.17869  0.83890  0.79580  Biso   1.000  C
  C6       1.0000 0.82131  0.83890  0.70420  Biso   1.000  C
  C7       1.0000 0.67869  0.33890  0.79580  Biso   1.000  C
  C8       1.0000 0.32131  0.33890  0.70420  Biso   1.000  C
  H17      1.0000 0.79550  0.22910  0.19870  Biso   1.000  H
  H18      1.0000 0.20450  0.22910  0.30130  Biso   1.000  H
  H19      1.0000 0.29550  0.72910  0.19870  Biso   1.000  H
  H20      1.0000 0.70450  0.72910  0.30130  Biso   1.000  H
  H21      1.0000 0.20450  0.77090  0.80130  Biso   1.000  H
  H22      1.0000 0.79550  0.77090  0.69870  Biso   1.000  H
  H23      1.0000 0.70450  0.27090  0.80130  Biso   1.000  H
  H24      1.0000 0.29550  0.27090  0.69870  Biso   1.000  H
  C9       1.0000 0.76510  0.07320  0.18740  Biso   1.000  C
  C10      1.0000 0.23490  0.07320  0.31260  Biso   1.000  C
  C11      1.0000 0.26510  0.57320  0.18740  Biso   1.000  C
  C12      1.0000 0.73490  0.57320  0.31260  Biso   1.000  C
  C13      1.0000 0.23490  0.92680  0.81260  Biso   1.000  C
  C14      1.0000 0.76510  0.92680  0.68740  Biso   1.000  C
  C15      1.0000 0.73490  0.42680  0.81260  Biso   1.000  C
  C16      1.0000 0.26510  0.42680  0.68740  Biso   1.000  C
  H25      1.0000 0.70230  0.08140  0.17000  Biso   1.000  H
  H26      1.0000 0.29770  0.08140  0.33000  Biso   1.000  H
  H27      1.0000 0.20230  0.58140  0.17000  Biso   1.000  H
  H28      1.0000 0.79770  0.58140  0.33000  Biso   1.000  H
  H29      1.0000 0.29770  0.91860  0.83000  Biso   1.000  H
  H30      1.0000 0.70230  0.91860  0.67000  Biso   1.000  H
  H31      1.0000 0.79770  0.41860  0.83000  Biso   1.000  H
  H32      1.0000 0.20230  0.41860  0.67000  Biso   1.000  H
  C17      1.0000 0.80390  0.97220  0.19700  Biso   1.000  C
  C18      1.0000 0.19610  0.97220  0.30300  Biso   1.000  C
  C19      1.0000 0.30390  0.47220  0.19700  Biso   1.000  C
  C20      1.0000 0.69610  0.47220  0.30300  Biso   1.000  C
  C21      1.0000 0.19610  0.02780  0.80300  Biso   1.000  C
  C22      1.0000 0.80390  0.02780  0.69700  Biso   1.000  C
  C23      1.0000 0.69610  0.52780  0.80300  Biso   1.000  C
  C24      1.0000 0.30390  0.52780  0.69700  Biso   1.000  C
  H33      1.0000 0.76720  0.91150  0.18650  Biso   1.000  H
  H34      1.0000 0.23280  0.91150  0.31350  Biso   1.000  H
  H35      1.0000 0.26720  0.41150  0.18650  Biso   1.000  H
  H36      1.0000 0.73280  0.41150  0.31350  Biso   1.000  H
  H37      1.0000 0.23280  0.08850  0.81350  Biso   1.000  H
  H38      1.0000 0.76720  0.08850  0.68650  Biso   1.000  H
  H39      1.0000 0.73280  0.58850  0.81350  Biso   1.000  H
  H40      1.0000 0.26720  0.58850  0.68650  Biso   1.000  H
  C25      1.0000 0.89730  0.96190  0.22240  Biso   1.000  C
  C26      1.0000 0.10270  0.96190  0.27760  Biso   1.000  C
  C27      1.0000 0.39730  0.46190  0.22240  Biso   1.000  C
  C28      1.0000 0.60270  0.46190  0.27760  Biso   1.000  C
  C29      1.0000 0.10270  0.03810  0.77760  Biso   1.000  C
  C30      1.0000 0.89730  0.03810  0.72240  Biso   1.000  C
  C31      1.0000 0.60270  0.53810  0.77760  Biso   1.000  C
  C32      1.0000 0.39730  0.53810  0.72240  Biso   1.000  C
  H41      1.0000 0.92450  0.89450  0.22940  Biso   1.000  H
  H42      1.0000 0.07550  0.89450  0.27060  Biso   1.000  H
  H43      1.0000 0.42450  0.39450  0.22940  Biso   1.000  H
  H44      1.0000 0.57550  0.39450  0.27060  Biso   1.000  H
  H45      1.0000 0.07550  0.10550  0.77060  Biso   1.000  H
  H46      1.0000 0.92450  0.10550  0.72940  Biso   1.000  H
  H47      1.0000 0.57550  0.60550  0.77060  Biso   1.000  H
  H48      1.0000 0.42450  0.60550  0.72940  Biso   1.000  H
  C33      1.0000 0.94957  0.05450  0.23720  Biso   1.000  C
  C34      1.0000 0.05043  0.05450  0.26280  Biso   1.000  C
  C35      1.0000 0.44957  0.55450  0.23720  Biso   1.000  C
  C36      1.0000 0.55043  0.55450  0.26280  Biso   1.000  C
  C37      1.0000 0.05043  0.94550  0.76280  Biso   1.000  C
  C38      1.0000 0.94957  0.94550  0.73720  Biso   1.000  C
  C39      1.0000 0.55043  0.44550  0.76280  Biso   1.000  C
  C40      1.0000 0.44957  0.44550  0.73720  Biso   1.000  C
  S1       1.0000 0.00000  0.34606  0.75000  Biso   1.000  S
  S2       1.0000 0.50000  0.84606  0.75000  Biso   1.000  S
  S3       1.0000 0.00000  0.65394  0.25000  Biso   1.000  S
  S4       1.0000 0.50000  0.15394  0.25000  Biso   1.000  S
  O9       1.0000 0.03492  0.28004  0.61390  Biso   1.000  O
  O10      1.0000 0.96508  0.28004  0.88610  Biso   1.000  O
  O11      1.0000 0.53492  0.78004  0.61390  Biso   1.000  O
  O12      1.0000 0.46508  0.78004  0.88610  Biso   1.000  O
  O13      1.0000 0.96508  0.71996  0.38610  Biso   1.000  O
  O14      1.0000 0.03492  0.71996  0.11390  Biso   1.000  O
  O15      1.0000 0.46508  0.21996  0.38610  Biso   1.000  O
  O16      1.0000 0.53492  0.21996  0.11390  Biso   1.000  O
  O17      1.0000 0.07481  0.41617  0.86850  Biso   1.000  O
  O18      1.0000 0.92519  0.41617  0.63150  Biso   1.000  O
  O19      1.0000 0.57481  0.91617  0.86850  Biso   1.000  O
  O20      1.0000 0.42519  0.91617  0.63150  Biso   1.000  O
  O21      1.0000 0.92519  0.58383  0.13150  Biso   1.000  O
  O22      1.0000 0.07481  0.58383  0.36850  Biso   1.000  O
  O23      1.0000 0.42519  0.08383  0.13150  Biso   1.000  O
  O24      1.0000 0.57481  0.08383  0.36850  Biso   1.000  O
