data_image0
_cell_length_a       6.963
_cell_length_b       9.804
_cell_length_c       9.819
_cell_angle_alpha    78.9
_cell_angle_beta     77.68
_cell_angle_gamma    78.05

_symmetry_space_group_name_H-M    "P 1"
_symmetry_int_tables_number       1

loop_
  _symmetry_equiv_pos_as_xyz
  'x, y, z'

loop_
  _atom_site_label
  _atom_site_occupancy
  _atom_site_fract_x
  _atom_site_fract_y
  _atom_site_fract_z
  _atom_site_thermal_displace_type
  _atom_site_B_iso_or_equiv
  _atom_site_type_symbol
  Cu1      1.0000 0.25000  0.27435  0.22566  Biso   1.000  Cu
  Cu2      1.0000 0.75000  0.72565  0.77434  Biso   1.000  Cu
  S1       1.0000 0.74980  0.34610  0.15390  Biso   1.000  S
  S2       1.0000 0.25020  0.65390  0.84610  Biso   1.000  S
  O1       1.0000 0.88640  0.31480  0.25500  Biso   1.000  O
  O2       1.0000 0.11360  0.68520  0.74500  Biso   1.000  O
  O3       1.0000 0.63130  0.49120  0.15830  Biso   1.000  O
  O4       1.0000 0.36870  0.50880  0.84170  Biso   1.000  O
  O5       1.0000 0.86840  0.34130  0.00870  Biso   1.000  O
  O6       1.0000 0.13160  0.65870  0.99130  Biso   1.000  O
  O7       1.0000 0.61350  0.24570  0.18490  Biso   1.000  O
  O8       1.0000 0.38650  0.75430  0.81510  Biso   1.000  O
  N1       1.0000 0.27210  0.06410  0.25960  Biso   1.000  N
  N2       1.0000 0.72790  0.93590  0.74040  Biso   1.000  N
  N3       1.0000 0.22760  0.24080  0.43570  Biso   1.000  N
  N4       1.0000 0.77240  0.75920  0.56430  Biso   1.000  N
  C1       1.0000 0.29610  0.98200  0.16020  Biso   1.000  C
  C2       1.0000 0.70390  0.01800  0.83980  Biso   1.000  C
  C3       1.0000 0.31320  0.83820  0.19190  Biso   1.000  C
  C4       1.0000 0.68680  0.16180  0.80810  Biso   1.000  C
  C5       1.0000 0.30290  0.77640  0.33160  Biso   1.000  C
  C6       1.0000 0.69710  0.22360  0.66840  Biso   1.000  C
  C7       1.0000 0.27810  0.85870  0.43520  Biso   1.000  C
  C8       1.0000 0.72190  0.14130  0.56480  Biso   1.000  C
  C9       1.0000 0.26190  0.00350  0.39600  Biso   1.000  C
  C10      1.0000 0.73810  0.99650  0.60400  Biso   1.000  C
  C11      1.0000 0.23680  0.10500  0.49580  Biso   1.000  C
  C12      1.0000 0.76320  0.89500  0.50420  Biso   1.000  C
  C13      1.0000 0.22320  0.06430  0.64040  Biso   1.000  C
  C14      1.0000 0.77680  0.93570  0.35960  Biso   1.000  C
  C15      1.0000 0.19690  0.16820  0.72460  Biso   1.000  C
  C16      1.0000 0.80310  0.83180  0.27540  Biso   1.000  C
  C17      1.0000 0.18620  0.30860  0.66160  Biso   1.000  C
  C18      1.0000 0.81380  0.69140  0.33840  Biso   1.000  C
  C19      1.0000 0.20350  0.34040  0.51680  Biso   1.000  C
  C20      1.0000 0.79650  0.65960  0.48320  Biso   1.000  C
  O9       1.0000 0.24730  0.28940  0.02270  Biso   1.000  O
  O10      1.0000 0.75270  0.71060  0.97730  Biso   1.000  O
  O11      1.0000 0.25300  0.47790  0.21080  Biso   1.000  O
  O12      1.0000 0.74700  0.52210  0.78920  Biso   1.000  O
  H1       1.0000 0.30170  0.02560  0.06340  Biso   1.000  H
  H2       1.0000 0.69830  0.97440  0.93660  Biso   1.000  H
  H3       1.0000 0.33180  0.78210  0.11850  Biso   1.000  H
  H4       1.0000 0.66820  0.21790  0.88150  Biso   1.000  H
  H5       1.0000 0.31340  0.67590  0.35620  Biso   1.000  H
  H6       1.0000 0.68660  0.32410  0.64380  Biso   1.000  H
  H7       1.0000 0.27220  0.81710  0.53250  Biso   1.000  H
  H8       1.0000 0.72780  0.18290  0.46750  Biso   1.000  H
  H9       1.0000 0.23450  0.96640  0.68120  Biso   1.000  H
  H10      1.0000 0.76550  0.03360  0.31880  Biso   1.000  H
  H11      1.0000 0.18210  0.14250  0.82520  Biso   1.000  H
  H12      1.0000 0.81790  0.85750  0.17480  Biso   1.000  H
  H13      1.0000 0.16890  0.38200  0.71760  Biso   1.000  H
  H14      1.0000 0.83110  0.61800  0.28240  Biso   1.000  H
  H15      1.0000 0.20000  0.43680  0.47230  Biso   1.000  H
  H16      1.0000 0.80000  0.56320  0.52770  Biso   1.000  H
  H17      1.0000 0.12310  0.29780  0.01240  Biso   1.000  H
  H18      1.0000 0.87690  0.70220  0.98760  Biso   1.000  H
  H19      1.0000 0.32760  0.32820  0.95600  Biso   1.000  H
  H20      1.0000 0.67240  0.67180  0.04400  Biso   1.000  H
  H21      1.0000 0.37040  0.49270  0.19940  Biso   1.000  H
  H22      1.0000 0.62960  0.50730  0.80060  Biso   1.000  H
  H23      1.0000 0.19790  0.51350  0.13870  Biso   1.000  H
  H24      1.0000 0.80210  0.48650  0.86130  Biso   1.000  H
