data_image0
_cell_length_a       15.136
_cell_length_b       12.464
_cell_length_c       6.999
_cell_angle_alpha    90
_cell_angle_beta     105.97
_cell_angle_gamma    90

_symmetry_space_group_name_H-M    "P 1"
_symmetry_int_tables_number       1

loop_
  _symmetry_equiv_pos_as_xyz
  'x, y, z'

loop_
  _atom_site_label
  _atom_site_occupancy
  _atom_site_fract_x
  _atom_site_fract_y
  _atom_site_fract_z
  _atom_site_thermal_displace_type
  _atom_site_B_iso_or_equiv
  _atom_site_type_symbol
  Cu1      1.0000 0.00000  0.22540  0.25000  Biso   1.000  Cu
  Cu2      1.0000 0.50000  0.72540  0.25000  Biso   1.000  Cu
  Cu3      1.0000 0.00000  0.77460  0.75000  Biso   1.000  Cu
  Cu4      1.0000 0.50000  0.27460  0.75000  Biso   1.000  Cu
  C1       1.0000 0.05060  0.44330  0.26100  Biso   1.000  C
  C2       1.0000 0.55060  0.94330  0.26100  Biso   1.000  C
  C3       1.0000 0.94940  0.44330  0.23900  Biso   1.000  C
  C4       1.0000 0.44940  0.94330  0.23900  Biso   1.000  C
  C5       1.0000 0.94940  0.55670  0.73900  Biso   1.000  C
  C6       1.0000 0.44940  0.05670  0.73900  Biso   1.000  C
  C7       1.0000 0.05060  0.55670  0.76100  Biso   1.000  C
  C8       1.0000 0.55060  0.05670  0.76100  Biso   1.000  C
  C9       1.0000 0.17970  0.34060  0.29800  Biso   1.000  C
  C10      1.0000 0.67970  0.84060  0.29800  Biso   1.000  C
  C11      1.0000 0.82030  0.34060  0.20200  Biso   1.000  C
  C12      1.0000 0.32030  0.84060  0.20200  Biso   1.000  C
  C13      1.0000 0.82030  0.65940  0.70200  Biso   1.000  C
  C14      1.0000 0.32030  0.15940  0.70200  Biso   1.000  C
  C15      1.0000 0.17970  0.65940  0.79800  Biso   1.000  C
  C16      1.0000 0.67970  0.15940  0.79800  Biso   1.000  C
  C17      1.0000 0.23620  0.42600  0.31400  Biso   1.000  C
  C18      1.0000 0.73620  0.92600  0.31400  Biso   1.000  C
  C19      1.0000 0.76380  0.42600  0.18600  Biso   1.000  C
  C20      1.0000 0.26380  0.92600  0.18600  Biso   1.000  C
  C21      1.0000 0.76380  0.57400  0.68600  Biso   1.000  C
  C22      1.0000 0.26380  0.07400  0.68600  Biso   1.000  C
  C23      1.0000 0.23620  0.57400  0.81400  Biso   1.000  C
  C24      1.0000 0.73620  0.07400  0.81400  Biso   1.000  C
  C25      1.0000 0.19580  0.52900  0.30500  Biso   1.000  C
  C26      1.0000 0.69580  0.02900  0.30500  Biso   1.000  C
  C27      1.0000 0.80420  0.52900  0.19500  Biso   1.000  C
  C28      1.0000 0.30420  0.02900  0.19500  Biso   1.000  C
  C29      1.0000 0.80420  0.47100  0.69500  Biso   1.000  C
  C30      1.0000 0.30420  0.97100  0.69500  Biso   1.000  C
  C31      1.0000 0.19580  0.47100  0.80500  Biso   1.000  C
  C32      1.0000 0.69580  0.97100  0.80500  Biso   1.000  C
  C33      1.0000 0.10290  0.53830  0.27900  Biso   1.000  C
  C34      1.0000 0.60290  0.03830  0.27900  Biso   1.000  C
  C35      1.0000 0.89710  0.53830  0.22100  Biso   1.000  C
  C36      1.0000 0.39710  0.03830  0.22100  Biso   1.000  C
  C37      1.0000 0.89710  0.46170  0.72100  Biso   1.000  C
  C38      1.0000 0.39710  0.96170  0.72100  Biso   1.000  C
  C39      1.0000 0.10290  0.46170  0.77900  Biso   1.000  C
  C40      1.0000 0.60290  0.96170  0.77900  Biso   1.000  C
  N1       1.0000 0.08830  0.34780  0.27400  Biso   1.000  N
  N2       1.0000 0.58830  0.84780  0.27400  Biso   1.000  N
  N3       1.0000 0.91170  0.34780  0.22600  Biso   1.000  N
  N4       1.0000 0.41170  0.84780  0.22600  Biso   1.000  N
  N5       1.0000 0.91170  0.65220  0.72600  Biso   1.000  N
  N6       1.0000 0.41170  0.15220  0.72600  Biso   1.000  N
  N7       1.0000 0.08830  0.65220  0.77400  Biso   1.000  N
  N8       1.0000 0.58830  0.15220  0.77400  Biso   1.000  N
  O1       1.0000 0.07460  0.08390  0.86900  Biso   1.000  O
  O2       1.0000 0.57460  0.58390  0.86900  Biso   1.000  O
  O3       1.0000 0.92540  0.08390  0.63100  Biso   1.000  O
  O4       1.0000 0.42540  0.58390  0.63100  Biso   1.000  O
  O5       1.0000 0.92540  0.91610  0.13100  Biso   1.000  O
  O6       1.0000 0.42540  0.41610  0.13100  Biso   1.000  O
  O7       1.0000 0.07460  0.91610  0.36900  Biso   1.000  O
  O8       1.0000 0.57460  0.41610  0.36900  Biso   1.000  O
  O9       1.0000 0.03410  0.21850  0.61100  Biso   1.000  O
  O10      1.0000 0.53410  0.71850  0.61100  Biso   1.000  O
  O11      1.0000 0.96590  0.21850  0.88900  Biso   1.000  O
  O12      1.0000 0.46590  0.71850  0.88900  Biso   1.000  O
  O13      1.0000 0.96590  0.78150  0.38900  Biso   1.000  O
  O14      1.0000 0.46590  0.28150  0.38900  Biso   1.000  O
  O15      1.0000 0.03410  0.78150  0.11100  Biso   1.000  O
  O16      1.0000 0.53410  0.28150  0.11100  Biso   1.000  O
  O17      1.0000 0.09420  0.11660  0.24500  Biso   1.000  O
  O18      1.0000 0.59420  0.61660  0.24500  Biso   1.000  O
  O19      1.0000 0.90580  0.11660  0.25500  Biso   1.000  O
  O20      1.0000 0.40580  0.61660  0.25500  Biso   1.000  O
  O21      1.0000 0.90580  0.88340  0.75500  Biso   1.000  O
  O22      1.0000 0.40580  0.38340  0.75500  Biso   1.000  O
  O23      1.0000 0.09420  0.88340  0.74500  Biso   1.000  O
  O24      1.0000 0.59420  0.38340  0.74500  Biso   1.000  O
  S1       1.0000 0.00000  0.15440  0.75000  Biso   1.000  S
  S2       1.0000 0.50000  0.65440  0.75000  Biso   1.000  S
  S3       1.0000 0.00000  0.84560  0.25000  Biso   1.000  S
  S4       1.0000 0.50000  0.34560  0.25000  Biso   1.000  S
