data_image0
_cell_length_a       15.1279
_cell_length_b       12.4488
_cell_length_c       6.9987
_cell_angle_alpha    90
_cell_angle_beta     105.958
_cell_angle_gamma    90

_symmetry_space_group_name_H-M    "P 1"
_symmetry_int_tables_number       1

loop_
  _symmetry_equiv_pos_as_xyz
  'x, y, z'

loop_
  _atom_site_label
  _atom_site_occupancy
  _atom_site_fract_x
  _atom_site_fract_y
  _atom_site_fract_z
  _atom_site_thermal_displace_type
  _atom_site_B_iso_or_equiv
  _atom_site_type_symbol
  O1       1.0000 0.03482  0.72007  0.61372  Biso   1.000  O
  O2       1.0000 0.96518  0.72007  0.88628  Biso   1.000  O
  O3       1.0000 0.53482  0.22007  0.61372  Biso   1.000  O
  O4       1.0000 0.46518  0.22007  0.88628  Biso   1.000  O
  O5       1.0000 0.96518  0.27993  0.38628  Biso   1.000  O
  O6       1.0000 0.03482  0.27993  0.11372  Biso   1.000  O
  O7       1.0000 0.46518  0.77993  0.38628  Biso   1.000  O
  O8       1.0000 0.53482  0.77993  0.11372  Biso   1.000  O
  Cu1      1.0000 0.00000  0.72562  0.25000  Biso   1.000  Cu
  Cu2      1.0000 0.50000  0.22562  0.25000  Biso   1.000  Cu
  Cu3      1.0000 0.00000  0.27438  0.75000  Biso   1.000  Cu
  Cu4      1.0000 0.50000  0.77438  0.75000  Biso   1.000  Cu
  S1       1.0000 0.00000  0.65395  0.75000  Biso   1.000  S
  S2       1.0000 0.50000  0.15395  0.75000  Biso   1.000  S
  S3       1.0000 0.00000  0.34605  0.25000  Biso   1.000  S
  S4       1.0000 0.50000  0.84605  0.25000  Biso   1.000  S
  O9       1.0000 0.09436  0.61661  0.24780  Biso   1.000  O
  O10      1.0000 0.90564  0.61661  0.25220  Biso   1.000  O
  O11      1.0000 0.59436  0.11661  0.24780  Biso   1.000  O
  O12      1.0000 0.40564  0.11661  0.25220  Biso   1.000  O
  O13      1.0000 0.90564  0.38339  0.75220  Biso   1.000  O
  O14      1.0000 0.09436  0.38339  0.74780  Biso   1.000  O
  O15      1.0000 0.40564  0.88339  0.75220  Biso   1.000  O
  O16      1.0000 0.59436  0.88339  0.74780  Biso   1.000  O
  H1       1.0000 0.09520  0.60520  0.13290  Biso   1.000  H
  H2       1.0000 0.90480  0.60520  0.36710  Biso   1.000  H
  H3       1.0000 0.59520  0.10520  0.13290  Biso   1.000  H
  H4       1.0000 0.40480  0.10520  0.36710  Biso   1.000  H
  H5       1.0000 0.90480  0.39480  0.86710  Biso   1.000  H
  H6       1.0000 0.09520  0.39480  0.63290  Biso   1.000  H
  H7       1.0000 0.40480  0.89480  0.86710  Biso   1.000  H
  H8       1.0000 0.59520  0.89480  0.63290  Biso   1.000  H
  N1       1.0000 0.91204  0.84735  0.22835  Biso   1.000  N
  N2       1.0000 0.08796  0.84735  0.27165  Biso   1.000  N
  N3       1.0000 0.41204  0.34735  0.22835  Biso   1.000  N
  N4       1.0000 0.58796  0.34735  0.27165  Biso   1.000  N
  N5       1.0000 0.08796  0.15265  0.77165  Biso   1.000  N
  N6       1.0000 0.91204  0.15265  0.72835  Biso   1.000  N
  N7       1.0000 0.58796  0.65265  0.77165  Biso   1.000  N
  N8       1.0000 0.41204  0.65265  0.72835  Biso   1.000  N
  O17      1.0000 0.92529  0.58374  0.63136  Biso   1.000  O
  O18      1.0000 0.07471  0.58374  0.86864  Biso   1.000  O
  O19      1.0000 0.42529  0.08374  0.63136  Biso   1.000  O
  O20      1.0000 0.57471  0.08374  0.86864  Biso   1.000  O
  O21      1.0000 0.07471  0.41626  0.36864  Biso   1.000  O
  O22      1.0000 0.92529  0.41626  0.13136  Biso   1.000  O
  O23      1.0000 0.57471  0.91626  0.36864  Biso   1.000  O
  O24      1.0000 0.42529  0.91626  0.13136  Biso   1.000  O
  C1       1.0000 0.89738  0.03825  0.22260  Biso   1.000  C
  C2       1.0000 0.10262  0.03825  0.27740  Biso   1.000  C
  C3       1.0000 0.39738  0.53825  0.22260  Biso   1.000  C
  C4       1.0000 0.60262  0.53825  0.27740  Biso   1.000  C
  C5       1.0000 0.10262  0.96175  0.77740  Biso   1.000  C
  C6       1.0000 0.89738  0.96175  0.72260  Biso   1.000  C
  C7       1.0000 0.60262  0.46175  0.77740  Biso   1.000  C
  C8       1.0000 0.39738  0.46175  0.72260  Biso   1.000  C
  H9       1.0000 0.92450  0.10570  0.22990  Biso   1.000  H
  H10      1.0000 0.07550  0.10570  0.27010  Biso   1.000  H
  H11      1.0000 0.42450  0.60570  0.22990  Biso   1.000  H
  H12      1.0000 0.57550  0.60570  0.27010  Biso   1.000  H
  H13      1.0000 0.07550  0.89430  0.77010  Biso   1.000  H
  H14      1.0000 0.92450  0.89430  0.72990  Biso   1.000  H
  H15      1.0000 0.57550  0.39430  0.77010  Biso   1.000  H
  H16      1.0000 0.42450  0.39430  0.72990  Biso   1.000  H
  C9       1.0000 0.94972  0.94574  0.23720  Biso   1.000  C
  C10      1.0000 0.05028  0.94574  0.26280  Biso   1.000  C
  C11      1.0000 0.44972  0.44574  0.23720  Biso   1.000  C
  C12      1.0000 0.55028  0.44574  0.26280  Biso   1.000  C
  C13      1.0000 0.05028  0.05426  0.76280  Biso   1.000  C
  C14      1.0000 0.94972  0.05426  0.73720  Biso   1.000  C
  C15      1.0000 0.55028  0.55426  0.76280  Biso   1.000  C
  C16      1.0000 0.44972  0.55426  0.73720  Biso   1.000  C
  C17      1.0000 0.80377  0.02799  0.19690  Biso   1.000  C
  C18      1.0000 0.19623  0.02799  0.30310  Biso   1.000  C
  C19      1.0000 0.30377  0.52799  0.19690  Biso   1.000  C
  C20      1.0000 0.69623  0.52799  0.30310  Biso   1.000  C
  C21      1.0000 0.19623  0.97201  0.80310  Biso   1.000  C
  C22      1.0000 0.80377  0.97201  0.69690  Biso   1.000  C
  C23      1.0000 0.69623  0.47201  0.80310  Biso   1.000  C
  C24      1.0000 0.30377  0.47201  0.69690  Biso   1.000  C
  H17      1.0000 0.76710  0.08890  0.18600  Biso   1.000  H
  H18      1.0000 0.23290  0.08890  0.31400  Biso   1.000  H
  H19      1.0000 0.26710  0.58890  0.18600  Biso   1.000  H
  H20      1.0000 0.73290  0.58890  0.31400  Biso   1.000  H
  H21      1.0000 0.23290  0.91110  0.81400  Biso   1.000  H
  H22      1.0000 0.76710  0.91110  0.68600  Biso   1.000  H
  H23      1.0000 0.73290  0.41110  0.81400  Biso   1.000  H
  H24      1.0000 0.26710  0.41110  0.68600  Biso   1.000  H
  C25      1.0000 0.82127  0.83883  0.20380  Biso   1.000  C
  C26      1.0000 0.17873  0.83883  0.29620  Biso   1.000  C
  C27      1.0000 0.32127  0.33883  0.20380  Biso   1.000  C
  C28      1.0000 0.67873  0.33883  0.29620  Biso   1.000  C
  C29      1.0000 0.17873  0.16117  0.79620  Biso   1.000  C
  C30      1.0000 0.82127  0.16117  0.70380  Biso   1.000  C
  C31      1.0000 0.67873  0.66117  0.79620  Biso   1.000  C
  C32      1.0000 0.32127  0.66117  0.70380  Biso   1.000  C
  H25      1.0000 0.79540  0.77070  0.19770  Biso   1.000  H
  H26      1.0000 0.20460  0.77070  0.30230  Biso   1.000  H
  H27      1.0000 0.29540  0.27070  0.19770  Biso   1.000  H
  H28      1.0000 0.70460  0.27070  0.30230  Biso   1.000  H
  H29      1.0000 0.20460  0.22930  0.80230  Biso   1.000  H
  H30      1.0000 0.79540  0.22930  0.69770  Biso   1.000  H
  H31      1.0000 0.70460  0.72930  0.80230  Biso   1.000  H
  H32      1.0000 0.29540  0.72930  0.69770  Biso   1.000  H
  C33      1.0000 0.76500  0.92713  0.18750  Biso   1.000  C
  C34      1.0000 0.23500  0.92713  0.31250  Biso   1.000  C
  C35      1.0000 0.26500  0.42713  0.18750  Biso   1.000  C
  C36      1.0000 0.73500  0.42713  0.31250  Biso   1.000  C
  C37      1.0000 0.23500  0.07287  0.81250  Biso   1.000  C
  C38      1.0000 0.76500  0.07287  0.68750  Biso   1.000  C
  C39      1.0000 0.73500  0.57287  0.81250  Biso   1.000  C
  C40      1.0000 0.26500  0.57287  0.68750  Biso   1.000  C
  H33      1.0000 0.70220  0.91900  0.17040  Biso   1.000  H
  H34      1.0000 0.29780  0.91900  0.32960  Biso   1.000  H
  H35      1.0000 0.20220  0.41900  0.17040  Biso   1.000  H
  H36      1.0000 0.79780  0.41900  0.32960  Biso   1.000  H
  H37      1.0000 0.29780  0.08100  0.82960  Biso   1.000  H
  H38      1.0000 0.70220  0.08100  0.67040  Biso   1.000  H
  H39      1.0000 0.79780  0.58100  0.82960  Biso   1.000  H
  H40      1.0000 0.20220  0.58100  0.67040  Biso   1.000  H
  H41      1.0000 0.08690  0.55800  0.30400  Biso   1.000  H
  H42      1.0000 0.91310  0.55800  0.19600  Biso   1.000  H
  H43      1.0000 0.58690  0.05800  0.30400  Biso   1.000  H
  H44      1.0000 0.41310  0.05800  0.19600  Biso   1.000  H
  H45      1.0000 0.91310  0.44200  0.69600  Biso   1.000  H
  H46      1.0000 0.08690  0.44200  0.80400  Biso   1.000  H
  H47      1.0000 0.41310  0.94200  0.69600  Biso   1.000  H
  H48      1.0000 0.58690  0.94200  0.80400  Biso   1.000  H
