data_image0
_cell_length_a       15.125
_cell_length_b       12.442
_cell_length_c       6.992
_cell_angle_alpha    90
_cell_angle_beta     105.94
_cell_angle_gamma    90

_symmetry_space_group_name_H-M    "P 1"
_symmetry_int_tables_number       1

loop_
  _symmetry_equiv_pos_as_xyz
  'x, y, z'

loop_
  _atom_site_label
  _atom_site_occupancy
  _atom_site_fract_x
  _atom_site_fract_y
  _atom_site_fract_z
  _atom_site_thermal_displace_type
  _atom_site_B_iso_or_equiv
  _atom_site_type_symbol
  Cu1      1.0000 0.50000  0.27438  0.75000  Biso   1.000  Cu
  Cu2      1.0000 0.00000  0.77438  0.75000  Biso   1.000  Cu
  Cu3      1.0000 0.50000  0.72562  0.25000  Biso   1.000  Cu
  Cu4      1.0000 0.00000  0.22562  0.25000  Biso   1.000  Cu
  O1       1.0000 0.40555  0.38319  0.75260  Biso   1.000  O
  O2       1.0000 0.90555  0.88319  0.75260  Biso   1.000  O
  O3       1.0000 0.59445  0.38319  0.74740  Biso   1.000  O
  O4       1.0000 0.09445  0.88319  0.74740  Biso   1.000  O
  O5       1.0000 0.59445  0.61681  0.24740  Biso   1.000  O
  O6       1.0000 0.09445  0.11681  0.24740  Biso   1.000  O
  O7       1.0000 0.40555  0.61681  0.25260  Biso   1.000  O
  O8       1.0000 0.90555  0.11681  0.25260  Biso   1.000  O
  N1       1.0000 0.58794  0.15265  0.77180  Biso   1.000  N
  N2       1.0000 0.08794  0.65265  0.77180  Biso   1.000  N
  N3       1.0000 0.41206  0.15265  0.72820  Biso   1.000  N
  N4       1.0000 0.91206  0.65265  0.72820  Biso   1.000  N
  N5       1.0000 0.41206  0.84735  0.22820  Biso   1.000  N
  N6       1.0000 0.91206  0.34735  0.22820  Biso   1.000  N
  N7       1.0000 0.58794  0.84735  0.27180  Biso   1.000  N
  N8       1.0000 0.08794  0.34735  0.27180  Biso   1.000  N
  C1       1.0000 0.67871  0.16125  0.79630  Biso   1.000  C
  C2       1.0000 0.17871  0.66125  0.79630  Biso   1.000  C
  C3       1.0000 0.32129  0.16125  0.70370  Biso   1.000  C
  C4       1.0000 0.82129  0.66125  0.70370  Biso   1.000  C
  C5       1.0000 0.32129  0.83875  0.20370  Biso   1.000  C
  C6       1.0000 0.82129  0.33875  0.20370  Biso   1.000  C
  C7       1.0000 0.67871  0.83875  0.29630  Biso   1.000  C
  C8       1.0000 0.17871  0.33875  0.29630  Biso   1.000  C
  H1       1.0000 0.70450  0.22950  0.80260  Biso   1.000  H
  H2       1.0000 0.20450  0.72950  0.80260  Biso   1.000  H
  H3       1.0000 0.29550  0.22950  0.69740  Biso   1.000  H
  H4       1.0000 0.79550  0.72950  0.69740  Biso   1.000  H
  H5       1.0000 0.29550  0.77050  0.19740  Biso   1.000  H
  H6       1.0000 0.79550  0.27050  0.19740  Biso   1.000  H
  H7       1.0000 0.70450  0.77050  0.30260  Biso   1.000  H
  H8       1.0000 0.20450  0.27050  0.30260  Biso   1.000  H
  C9       1.0000 0.73520  0.07310  0.81250  Biso   1.000  C
  C10      1.0000 0.23520  0.57310  0.81250  Biso   1.000  C
  C11      1.0000 0.26480  0.07310  0.68750  Biso   1.000  C
  C12      1.0000 0.76480  0.57310  0.68750  Biso   1.000  C
  C13      1.0000 0.26480  0.92690  0.18750  Biso   1.000  C
  C14      1.0000 0.76480  0.42690  0.18750  Biso   1.000  C
  C15      1.0000 0.73520  0.92690  0.31250  Biso   1.000  C
  C16      1.0000 0.23520  0.42690  0.31250  Biso   1.000  C
  H9       1.0000 0.79800  0.08120  0.82910  Biso   1.000  H
  H10      1.0000 0.29800  0.58120  0.82910  Biso   1.000  H
  H11      1.0000 0.20200  0.08120  0.67090  Biso   1.000  H
  H12      1.0000 0.70200  0.58120  0.67090  Biso   1.000  H
  H13      1.0000 0.20200  0.91880  0.17090  Biso   1.000  H
  H14      1.0000 0.70200  0.41880  0.17090  Biso   1.000  H
  H15      1.0000 0.79800  0.91880  0.32910  Biso   1.000  H
  H16      1.0000 0.29800  0.41880  0.32910  Biso   1.000  H
  C17      1.0000 0.69626  0.97202  0.80340  Biso   1.000  C
  C18      1.0000 0.19626  0.47202  0.80340  Biso   1.000  C
  C19      1.0000 0.30374  0.97202  0.69660  Biso   1.000  C
  C20      1.0000 0.80374  0.47202  0.69660  Biso   1.000  C
  C21      1.0000 0.30374  0.02798  0.19660  Biso   1.000  C
  C22      1.0000 0.80374  0.52798  0.19660  Biso   1.000  C
  C23      1.0000 0.69626  0.02798  0.30340  Biso   1.000  C
  C24      1.0000 0.19626  0.52798  0.30340  Biso   1.000  C
  H17      1.0000 0.73300  0.91110  0.81480  Biso   1.000  H
  H18      1.0000 0.23300  0.41110  0.81480  Biso   1.000  H
  H19      1.0000 0.26700  0.91110  0.68520  Biso   1.000  H
  H20      1.0000 0.76700  0.41110  0.68520  Biso   1.000  H
  H21      1.0000 0.26700  0.08890  0.18520  Biso   1.000  H
  H22      1.0000 0.76700  0.58890  0.18520  Biso   1.000  H
  H23      1.0000 0.73300  0.08890  0.31480  Biso   1.000  H
  H24      1.0000 0.23300  0.58890  0.31480  Biso   1.000  H
  C25      1.0000 0.60263  0.96158  0.77720  Biso   1.000  C
  C26      1.0000 0.10263  0.46158  0.77720  Biso   1.000  C
  C27      1.0000 0.39737  0.96158  0.72280  Biso   1.000  C
  C28      1.0000 0.89737  0.46158  0.72280  Biso   1.000  C
  C29      1.0000 0.39737  0.03842  0.22280  Biso   1.000  C
  C30      1.0000 0.89737  0.53842  0.22280  Biso   1.000  C
  C31      1.0000 0.60263  0.03842  0.27720  Biso   1.000  C
  C32      1.0000 0.10263  0.53842  0.27720  Biso   1.000  C
  H25      1.0000 0.57560  0.89400  0.76970  Biso   1.000  H
  H26      1.0000 0.07560  0.39400  0.76970  Biso   1.000  H
  H27      1.0000 0.42440  0.89400  0.73030  Biso   1.000  H
  H28      1.0000 0.92440  0.39400  0.73030  Biso   1.000  H
  H29      1.0000 0.42440  0.10600  0.23030  Biso   1.000  H
  H30      1.0000 0.92440  0.60600  0.23030  Biso   1.000  H
  H31      1.0000 0.57560  0.10600  0.26970  Biso   1.000  H
  H32      1.0000 0.07560  0.60600  0.26970  Biso   1.000  H
  C33      1.0000 0.55013  0.05400  0.76250  Biso   1.000  C
  C34      1.0000 0.05013  0.55400  0.76250  Biso   1.000  C
  C35      1.0000 0.44987  0.05400  0.73750  Biso   1.000  C
  C36      1.0000 0.94987  0.55400  0.73750  Biso   1.000  C
  C37      1.0000 0.44987  0.94600  0.23750  Biso   1.000  C
  C38      1.0000 0.94987  0.44600  0.23750  Biso   1.000  C
  C39      1.0000 0.55013  0.94600  0.26250  Biso   1.000  C
  C40      1.0000 0.05013  0.44600  0.26250  Biso   1.000  C
  S1       1.0000 0.50000  0.34601  0.25000  Biso   1.000  S
  S2       1.0000 0.00000  0.84601  0.25000  Biso   1.000  S
  S3       1.0000 0.50000  0.65399  0.75000  Biso   1.000  S
  S4       1.0000 0.00000  0.15399  0.75000  Biso   1.000  S
  O9       1.0000 0.53483  0.27996  0.11360  Biso   1.000  O
  O10      1.0000 0.03483  0.77996  0.11360  Biso   1.000  O
  O11      1.0000 0.46517  0.27996  0.38640  Biso   1.000  O
  O12      1.0000 0.96517  0.77996  0.38640  Biso   1.000  O
  O13      1.0000 0.46517  0.72004  0.88640  Biso   1.000  O
  O14      1.0000 0.96517  0.22004  0.88640  Biso   1.000  O
  O15      1.0000 0.53483  0.72004  0.61360  Biso   1.000  O
  O16      1.0000 0.03483  0.22004  0.61360  Biso   1.000  O
  O17      1.0000 0.42510  0.41618  0.13120  Biso   1.000  O
  O18      1.0000 0.92510  0.91618  0.13120  Biso   1.000  O
  O19      1.0000 0.57490  0.41618  0.36880  Biso   1.000  O
  O20      1.0000 0.07490  0.91618  0.36880  Biso   1.000  O
  O21      1.0000 0.57490  0.58382  0.86880  Biso   1.000  O
  O22      1.0000 0.07490  0.08382  0.86880  Biso   1.000  O
  O23      1.0000 0.42510  0.58382  0.63120  Biso   1.000  O
  O24      1.0000 0.92510  0.08382  0.63120  Biso   1.000  O
  H33      1.0000 0.41100  0.43200  0.71100  Biso   1.000  H
  H34      1.0000 0.91100  0.93200  0.71100  Biso   1.000  H
  H35      1.0000 0.58900  0.43200  0.78900  Biso   1.000  H
  H36      1.0000 0.08900  0.93200  0.78900  Biso   1.000  H
  H37      1.0000 0.58900  0.56800  0.28900  Biso   1.000  H
  H38      1.0000 0.08900  0.06800  0.28900  Biso   1.000  H
  H39      1.0000 0.41100  0.56800  0.21100  Biso   1.000  H
  H40      1.0000 0.91100  0.06800  0.21100  Biso   1.000  H
  H41      1.0000 0.41100  0.39200  0.87700  Biso   1.000  H
  H42      1.0000 0.91100  0.89200  0.87700  Biso   1.000  H
  H43      1.0000 0.58900  0.39200  0.62300  Biso   1.000  H
  H44      1.0000 0.08900  0.89200  0.62300  Biso   1.000  H
  H45      1.0000 0.58900  0.60800  0.12300  Biso   1.000  H
  H46      1.0000 0.08900  0.10800  0.12300  Biso   1.000  H
  H47      1.0000 0.41100  0.60800  0.37700  Biso   1.000  H
  H48      1.0000 0.91100  0.10800  0.37700  Biso   1.000  H
