data_image0
_cell_length_a       6.963
_cell_length_b       12.4686
_cell_length_c       14.854
_cell_angle_alpha    90
_cell_angle_beta     101.01
_cell_angle_gamma    90

_symmetry_space_group_name_H-M    "P 1"
_symmetry_int_tables_number       1

loop_
  _symmetry_equiv_pos_as_xyz
  'x, y, z'

loop_
  _atom_site_label
  _atom_site_occupancy
  _atom_site_fract_x
  _atom_site_fract_y
  _atom_site_fract_z
  _atom_site_thermal_displace_type
  _atom_site_B_iso_or_equiv
  _atom_site_type_symbol
  Cu1      1.0000 0.75000  0.27434  0.50000  Biso   1.000  Cu
  Cu2      1.0000 0.25000  0.77434  0.00000  Biso   1.000  Cu
  Cu3      1.0000 0.25000  0.72566  0.50000  Biso   1.000  Cu
  Cu4      1.0000 0.75000  0.22566  0.00000  Biso   1.000  Cu
  S1       1.0000 0.25000  0.34610  0.50000  Biso   1.000  S
  S2       1.0000 0.75000  0.84610  0.00000  Biso   1.000  S
  S3       1.0000 0.75000  0.65390  0.50000  Biso   1.000  S
  S4       1.0000 0.25000  0.15390  0.00000  Biso   1.000  S
  O1       1.0000 0.42125  0.28015  0.53480  Biso   1.000  O
  O2       1.0000 0.92125  0.78015  0.03480  Biso   1.000  O
  O3       1.0000 0.07875  0.28015  0.46520  Biso   1.000  O
  O4       1.0000 0.57875  0.78015  0.96520  Biso   1.000  O
  O5       1.0000 0.57875  0.71985  0.46520  Biso   1.000  O
  O6       1.0000 0.07875  0.21985  0.96520  Biso   1.000  O
  O7       1.0000 0.92125  0.71985  0.53480  Biso   1.000  O
  O8       1.0000 0.42125  0.21985  0.03480  Biso   1.000  O
  O9       1.0000 0.20633  0.41637  0.57487  Biso   1.000  O
  O10      1.0000 0.70633  0.91637  0.07487  Biso   1.000  O
  O11      1.0000 0.29367  0.41637  0.42513  Biso   1.000  O
  O12      1.0000 0.79367  0.91637  0.92513  Biso   1.000  O
  O13      1.0000 0.79367  0.58363  0.42513  Biso   1.000  O
  O14      1.0000 0.29367  0.08363  0.92513  Biso   1.000  O
  O15      1.0000 0.70633  0.58363  0.57487  Biso   1.000  O
  O16      1.0000 0.20633  0.08363  0.07487  Biso   1.000  O
  O17      1.0000 0.65300  0.38345  0.40585  Biso   1.000  O
  O18      1.0000 0.15300  0.88345  0.90585  Biso   1.000  O
  O19      1.0000 0.84700  0.38345  0.59415  Biso   1.000  O
  O20      1.0000 0.34700  0.88345  0.09415  Biso   1.000  O
  O21      1.0000 0.34700  0.61655  0.59415  Biso   1.000  O
  O22      1.0000 0.84700  0.11655  0.09415  Biso   1.000  O
  O23      1.0000 0.15300  0.61655  0.40585  Biso   1.000  O
  O24      1.0000 0.65300  0.11655  0.90585  Biso   1.000  O
  N1       1.0000 0.68405  0.15240  0.41180  Biso   1.000  N
  N2       1.0000 0.18405  0.65240  0.91180  Biso   1.000  N
  N3       1.0000 0.81595  0.15240  0.58820  Biso   1.000  N
  N4       1.0000 0.31595  0.65240  0.08820  Biso   1.000  N
  N5       1.0000 0.31595  0.84760  0.58820  Biso   1.000  N
  N6       1.0000 0.81595  0.34760  0.08820  Biso   1.000  N
  N7       1.0000 0.18405  0.84760  0.41180  Biso   1.000  N
  N8       1.0000 0.68405  0.34760  0.91180  Biso   1.000  N
  C1       1.0000 0.61755  0.16135  0.32125  Biso   1.000  C
  C2       1.0000 0.11755  0.66135  0.82125  Biso   1.000  C
  C3       1.0000 0.88245  0.16135  0.67875  Biso   1.000  C
  C4       1.0000 0.38245  0.66135  0.17875  Biso   1.000  C
  C5       1.0000 0.38245  0.83865  0.67875  Biso   1.000  C
  C6       1.0000 0.88245  0.33865  0.17875  Biso   1.000  C
  C7       1.0000 0.11755  0.83865  0.32125  Biso   1.000  C
  C8       1.0000 0.61755  0.33865  0.82125  Biso   1.000  C
  C9       1.0000 0.57847  0.07333  0.26497  Biso   1.000  C
  C10      1.0000 0.07847  0.57333  0.76497  Biso   1.000  C
  C11      1.0000 0.92153  0.07333  0.73503  Biso   1.000  C
  C12      1.0000 0.42153  0.57333  0.23503  Biso   1.000  C
  C13      1.0000 0.42153  0.92667  0.73503  Biso   1.000  C
  C14      1.0000 0.92153  0.42667  0.23503  Biso   1.000  C
  C15      1.0000 0.07847  0.92667  0.26497  Biso   1.000  C
  C16      1.0000 0.57847  0.42667  0.76497  Biso   1.000  C
  C17      1.0000 0.60680  0.97210  0.30380  Biso   1.000  C
  C18      1.0000 0.10680  0.47210  0.80380  Biso   1.000  C
  C19      1.0000 0.89320  0.97210  0.69620  Biso   1.000  C
  C20      1.0000 0.39320  0.47210  0.19620  Biso   1.000  C
  C21      1.0000 0.39320  0.02790  0.69620  Biso   1.000  C
  C22      1.0000 0.89320  0.52790  0.19620  Biso   1.000  C
  C23      1.0000 0.10680  0.02790  0.30380  Biso   1.000  C
  C24      1.0000 0.60680  0.52790  0.80380  Biso   1.000  C
  C25      1.0000 0.67475  0.96185  0.39730  Biso   1.000  C
  C26      1.0000 0.17475  0.46185  0.89730  Biso   1.000  C
  C27      1.0000 0.82525  0.96185  0.60270  Biso   1.000  C
  C28      1.0000 0.32525  0.46185  0.10270  Biso   1.000  C
  C29      1.0000 0.32525  0.03815  0.60270  Biso   1.000  C
  C30      1.0000 0.82525  0.53815  0.10270  Biso   1.000  C
  C31      1.0000 0.17475  0.03815  0.39730  Biso   1.000  C
  C32      1.0000 0.67475  0.53815  0.89730  Biso   1.000  C
  C33      1.0000 0.71223  0.05418  0.44967  Biso   1.000  C
  C34      1.0000 0.21223  0.55418  0.94967  Biso   1.000  C
  C35      1.0000 0.78777  0.05418  0.55033  Biso   1.000  C
  C36      1.0000 0.28777  0.55418  0.05033  Biso   1.000  C
  C37      1.0000 0.28777  0.94582  0.55033  Biso   1.000  C
  C38      1.0000 0.78777  0.44582  0.05033  Biso   1.000  C
  C39      1.0000 0.21223  0.94582  0.44967  Biso   1.000  C
  C40      1.0000 0.71223  0.44582  0.94967  Biso   1.000  C
