data_image0
_cell_length_a       9.0062
_cell_length_b       19.4623
_cell_length_c       16.0701
_cell_angle_alpha    90
_cell_angle_beta     94.442
_cell_angle_gamma    90

_symmetry_space_group_name_H-M    "P 1"
_symmetry_int_tables_number       1

loop_
  _symmetry_equiv_pos_as_xyz
  'x, y, z'

loop_
  _atom_site_label
  _atom_site_occupancy
  _atom_site_fract_x
  _atom_site_fract_y
  _atom_site_fract_z
  _atom_site_thermal_displace_type
  _atom_site_B_iso_or_equiv
  _atom_site_type_symbol
  Cu1      1.0000 0.31423  0.02798  0.76174  Biso   1.000  Cu
  Cu2      1.0000 0.68577  0.52798  0.73826  Biso   1.000  Cu
  Cu3      1.0000 0.68577  0.97202  0.23826  Biso   1.000  Cu
  Cu4      1.0000 0.31423  0.47202  0.26174  Biso   1.000  Cu
  O1       1.0000 0.51140  0.99428  0.74972  Biso   1.000  O
  O2       1.0000 0.48860  0.49428  0.75028  Biso   1.000  O
  O3       1.0000 0.48860  0.00572  0.25028  Biso   1.000  O
  O4       1.0000 0.51140  0.50572  0.24972  Biso   1.000  O
  N1       1.0000 0.39680  0.08360  0.86310  Biso   1.000  N
  N2       1.0000 0.60320  0.58360  0.63690  Biso   1.000  N
  N3       1.0000 0.60320  0.91640  0.13690  Biso   1.000  N
  N4       1.0000 0.39680  0.41640  0.36310  Biso   1.000  N
  C1       1.0000 0.33730  0.14510  0.87680  Biso   1.000  C
  C2       1.0000 0.66270  0.64510  0.62320  Biso   1.000  C
  C3       1.0000 0.66270  0.85490  0.12320  Biso   1.000  C
  C4       1.0000 0.33730  0.35490  0.37680  Biso   1.000  C
  H1       1.0000 0.25330  0.15850  0.84340  Biso   1.000  H
  H2       1.0000 0.74670  0.65850  0.65660  Biso   1.000  H
  H3       1.0000 0.74670  0.84150  0.15660  Biso   1.000  H
  H4       1.0000 0.25330  0.34150  0.34340  Biso   1.000  H
  O5       1.0000 0.30780  0.12940  0.68834  Biso   1.000  O
  O6       1.0000 0.69220  0.62940  0.81166  Biso   1.000  O
  O7       1.0000 0.69220  0.87060  0.31166  Biso   1.000  O
  O8       1.0000 0.30780  0.37060  0.18834  Biso   1.000  O
  H5       1.0000 0.24790  0.14810  0.65160  Biso   1.000  H
  H6       1.0000 0.75210  0.64810  0.84840  Biso   1.000  H
  H7       1.0000 0.75210  0.85190  0.34840  Biso   1.000  H
  H8       1.0000 0.24790  0.35190  0.15160  Biso   1.000  H
  H9       1.0000 0.39550  0.14140  0.67860  Biso   1.000  H
  H10      1.0000 0.60450  0.64140  0.82140  Biso   1.000  H
  H11      1.0000 0.60450  0.85860  0.32140  Biso   1.000  H
  H12      1.0000 0.39550  0.35860  0.17860  Biso   1.000  H
  O9       1.0000 0.59080  0.07797  0.67040  Biso   1.000  O
  O10      1.0000 0.40920  0.57797  0.82960  Biso   1.000  O
  O11      1.0000 0.40920  0.92203  0.32960  Biso   1.000  O
  O12      1.0000 0.59080  0.42203  0.17040  Biso   1.000  O
  N5       1.0000 0.76240  0.47738  0.84610  Biso   1.000  N
  N6       1.0000 0.23760  0.97738  0.65390  Biso   1.000  N
  N7       1.0000 0.23760  0.52262  0.15390  Biso   1.000  N
  N8       1.0000 0.76240  0.02262  0.34610  Biso   1.000  N
  C5       1.0000 0.39320  0.18920  0.93700  Biso   1.000  C
  C6       1.0000 0.60680  0.68920  0.56300  Biso   1.000  C
  C7       1.0000 0.60680  0.81080  0.06300  Biso   1.000  C
  C8       1.0000 0.39320  0.31080  0.43700  Biso   1.000  C
  H13      1.0000 0.34890  0.23180  0.94340  Biso   1.000  H
  H14      1.0000 0.65110  0.73180  0.55660  Biso   1.000  H
  H15      1.0000 0.65110  0.76820  0.05660  Biso   1.000  H
  H16      1.0000 0.34890  0.26820  0.44340  Biso   1.000  H
  O13      1.0000 0.17710  0.94544  0.87820  Biso   1.000  O
  O14      1.0000 0.82290  0.44544  0.62180  Biso   1.000  O
  O15      1.0000 0.82290  0.05456  0.12180  Biso   1.000  O
  O16      1.0000 0.17710  0.55456  0.37820  Biso   1.000  O
  C9       1.0000 0.51680  0.17015  0.98900  Biso   1.000  C
  C10      1.0000 0.48320  0.67015  0.51100  Biso   1.000  C
  C11      1.0000 0.48320  0.82985  0.01100  Biso   1.000  C
  C12      1.0000 0.51680  0.32985  0.48900  Biso   1.000  C
  N9       1.0000 0.67810  0.19989  0.11290  Biso   1.000  N
  N10      1.0000 0.32190  0.69989  0.38710  Biso   1.000  N
  N11      1.0000 0.32190  0.80011  0.88710  Biso   1.000  N
  N12      1.0000 0.67810  0.30011  0.61290  Biso   1.000  N
  H17      1.0000 0.72020  0.16070  0.10700  Biso   1.000  H
  H18      1.0000 0.27980  0.66070  0.39300  Biso   1.000  H
  H19      1.0000 0.27980  0.83930  0.89300  Biso   1.000  H
  H20      1.0000 0.72020  0.33930  0.60700  Biso   1.000  H
  O17      1.0000 0.11450  0.03499  0.79833  Biso   1.000  O
  O18      1.0000 0.88550  0.53499  0.70167  Biso   1.000  O
  O19      1.0000 0.88550  0.96501  0.20167  Biso   1.000  O
  O20      1.0000 0.11450  0.46501  0.29833  Biso   1.000  O
  N13      1.0000 0.82840  0.33306  0.10690  Biso   1.000  N
  N14      1.0000 0.17160  0.83306  0.39310  Biso   1.000  N
  N15      1.0000 0.17160  0.66694  0.89310  Biso   1.000  N
  N16      1.0000 0.82840  0.16694  0.60690  Biso   1.000  N
  H21      1.0000 0.73760  0.34630  0.09730  Biso   1.000  H
  H22      1.0000 0.26240  0.84630  0.40270  Biso   1.000  H
  H23      1.0000 0.26240  0.65370  0.90270  Biso   1.000  H
  H24      1.0000 0.73760  0.15370  0.59730  Biso   1.000  H
  C13      1.0000 0.57640  0.10630  0.97650  Biso   1.000  C
  C14      1.0000 0.42360  0.60630  0.52350  Biso   1.000  C
  C15      1.0000 0.42360  0.89370  0.02350  Biso   1.000  C
  C16      1.0000 0.57640  0.39370  0.47650  Biso   1.000  C
  H25      1.0000 0.65800  0.09100  0.01060  Biso   1.000  H
  H26      1.0000 0.34200  0.59100  0.48940  Biso   1.000  H
  H27      1.0000 0.34200  0.90900  0.98940  Biso   1.000  H
  H28      1.0000 0.65800  0.40900  0.51060  Biso   1.000  H
  O21      1.0000 0.52220  0.27964  0.05400  Biso   1.000  O
  O22      1.0000 0.47780  0.77964  0.44600  Biso   1.000  O
  O23      1.0000 0.47780  0.72036  0.94600  Biso   1.000  O
  O24      1.0000 0.52220  0.22036  0.55400  Biso   1.000  O
  C17      1.0000 0.51480  0.06510  0.91350  Biso   1.000  C
  C18      1.0000 0.48520  0.56510  0.58650  Biso   1.000  C
  C19      1.0000 0.48520  0.93490  0.08650  Biso   1.000  C
  C20      1.0000 0.51480  0.43490  0.41350  Biso   1.000  C
  H29      1.0000 0.55740  0.02230  0.90550  Biso   1.000  H
  H30      1.0000 0.44260  0.52230  0.59450  Biso   1.000  H
  H31      1.0000 0.44260  0.97770  0.09450  Biso   1.000  H
  H32      1.0000 0.55740  0.47770  0.40550  Biso   1.000  H
  O25      1.0000 0.06060  0.34426  0.06660  Biso   1.000  O
  O26      1.0000 0.93940  0.84426  0.43340  Biso   1.000  O
  O27      1.0000 0.93940  0.65574  0.93340  Biso   1.000  O
  O28      1.0000 0.06060  0.15574  0.56660  Biso   1.000  O
  C21      1.0000 0.57370  0.22120  0.05470  Biso   1.000  C
  C22      1.0000 0.42630  0.72120  0.44530  Biso   1.000  C
  C23      1.0000 0.42630  0.77880  0.94530  Biso   1.000  C
  C24      1.0000 0.57370  0.27880  0.55470  Biso   1.000  C
  C25      1.0000 0.72200  0.24160  0.18620  Biso   1.000  C
  C26      1.0000 0.27800  0.74160  0.31380  Biso   1.000  C
  C27      1.0000 0.27800  0.75840  0.81380  Biso   1.000  C
  C28      1.0000 0.72200  0.25840  0.68620  Biso   1.000  C
  H33      1.0000 0.63980  0.27310  0.19480  Biso   1.000  H
  H34      1.0000 0.36020  0.77310  0.30520  Biso   1.000  H
  H35      1.0000 0.36020  0.72690  0.80520  Biso   1.000  H
  H36      1.0000 0.63980  0.22690  0.69480  Biso   1.000  H
  C29      1.0000 0.74370  0.19580  0.26300  Biso   1.000  C
  C30      1.0000 0.25630  0.69580  0.23700  Biso   1.000  C
  C31      1.0000 0.25630  0.80420  0.73700  Biso   1.000  C
  C32      1.0000 0.74370  0.30420  0.76300  Biso   1.000  C
  H37      1.0000 0.65250  0.17070  0.26990  Biso   1.000  H
  H38      1.0000 0.34750  0.67070  0.23010  Biso   1.000  H
  H39      1.0000 0.34750  0.82930  0.73010  Biso   1.000  H
  H40      1.0000 0.65250  0.32930  0.76990  Biso   1.000  H
  H41      1.0000 0.82190  0.16270  0.25520  Biso   1.000  H
  H42      1.0000 0.17810  0.66270  0.24480  Biso   1.000  H
  H43      1.0000 0.17810  0.83730  0.74480  Biso   1.000  H
  H44      1.0000 0.82190  0.33730  0.75520  Biso   1.000  H
  C33      1.0000 0.78490  0.23810  0.34090  Biso   1.000  C
  C34      1.0000 0.21510  0.73810  0.15910  Biso   1.000  C
  C35      1.0000 0.21510  0.76190  0.65910  Biso   1.000  C
  C36      1.0000 0.78490  0.26190  0.84090  Biso   1.000  C
  H45      1.0000 0.70500  0.27000  0.35020  Biso   1.000  H
  H46      1.0000 0.29500  0.77000  0.14980  Biso   1.000  H
  H47      1.0000 0.29500  0.73000  0.64980  Biso   1.000  H
  H48      1.0000 0.70500  0.23000  0.85020  Biso   1.000  H
  H49      1.0000 0.79840  0.20810  0.38900  Biso   1.000  H
  H50      1.0000 0.20160  0.70810  0.11100  Biso   1.000  H
  H51      1.0000 0.20160  0.79190  0.61100  Biso   1.000  H
  H52      1.0000 0.79840  0.29190  0.88900  Biso   1.000  H
  C37      1.0000 0.92760  0.27760  0.33070  Biso   1.000  C
  C38      1.0000 0.07240  0.77760  0.16930  Biso   1.000  C
  C39      1.0000 0.07240  0.72240  0.66930  Biso   1.000  C
  C40      1.0000 0.92760  0.22240  0.83070  Biso   1.000  C
  H53      1.0000 0.95330  0.30470  0.38030  Biso   1.000  H
  H54      1.0000 0.04670  0.80470  0.11970  Biso   1.000  H
  H55      1.0000 0.04670  0.69530  0.61970  Biso   1.000  H
  H56      1.0000 0.95330  0.19530  0.88030  Biso   1.000  H
  H57      1.0000 0.00830  0.24560  0.32360  Biso   1.000  H
  H58      1.0000 0.99170  0.74560  0.17640  Biso   1.000  H
  H59      1.0000 0.99170  0.75440  0.67640  Biso   1.000  H
  H60      1.0000 0.00830  0.25440  0.82360  Biso   1.000  H
  C41      1.0000 0.90730  0.32420  0.25560  Biso   1.000  C
  C42      1.0000 0.09270  0.82420  0.24440  Biso   1.000  C
  C43      1.0000 0.09270  0.67580  0.74440  Biso   1.000  C
  C44      1.0000 0.90730  0.17580  0.75560  Biso   1.000  C
  H61      1.0000 0.00000  0.34810  0.24880  Biso   1.000  H
  H62      1.0000 0.00000  0.84810  0.25120  Biso   1.000  H
  H63      1.0000 0.00000  0.65190  0.75120  Biso   1.000  H
  H64      1.0000 0.00000  0.15190  0.74880  Biso   1.000  H
  H65      1.0000 0.83210  0.35830  0.26530  Biso   1.000  H
  H66      1.0000 0.16790  0.85830  0.23470  Biso   1.000  H
  H67      1.0000 0.16790  0.64170  0.73470  Biso   1.000  H
  H68      1.0000 0.83210  0.14170  0.76530  Biso   1.000  H
  C45      1.0000 0.86070  0.28490  0.17540  Biso   1.000  C
  C46      1.0000 0.13930  0.78490  0.32460  Biso   1.000  C
  C47      1.0000 0.13930  0.71510  0.82460  Biso   1.000  C
  C48      1.0000 0.86070  0.21510  0.67540  Biso   1.000  C
  H69      1.0000 0.94230  0.25460  0.16180  Biso   1.000  H
  H70      1.0000 0.05770  0.75460  0.33820  Biso   1.000  H
  H71      1.0000 0.05770  0.74540  0.83820  Biso   1.000  H
  H72      1.0000 0.94230  0.24540  0.66180  Biso   1.000  H
  C49      1.0000 0.92710  0.35800  0.05840  Biso   1.000  C
  C50      1.0000 0.07290  0.85800  0.44160  Biso   1.000  C
  C51      1.0000 0.07290  0.64200  0.94160  Biso   1.000  C
  C52      1.0000 0.92710  0.14200  0.55840  Biso   1.000  C
  C53      1.0000 0.86650  0.40370  0.98820  Biso   1.000  C
  C54      1.0000 0.13350  0.90370  0.51180  Biso   1.000  C
  C55      1.0000 0.13350  0.59630  0.01180  Biso   1.000  C
  C56      1.0000 0.86650  0.09630  0.48820  Biso   1.000  C
  C57      1.0000 0.95640  0.41850  0.92630  Biso   1.000  C
  C58      1.0000 0.04360  0.91850  0.57370  Biso   1.000  C
  C59      1.0000 0.04360  0.58150  0.07370  Biso   1.000  C
  C60      1.0000 0.95640  0.08150  0.42630  Biso   1.000  C
  H73      1.0000 0.05520  0.40410  0.93080  Biso   1.000  H
  H74      1.0000 0.94480  0.90410  0.56920  Biso   1.000  H
  H75      1.0000 0.94480  0.59590  0.06920  Biso   1.000  H
  H76      1.0000 0.05520  0.09590  0.43080  Biso   1.000  H
  C61      1.0000 0.90120  0.45460  0.85700  Biso   1.000  C
  C62      1.0000 0.09880  0.95460  0.64300  Biso   1.000  C
  C63      1.0000 0.09880  0.54540  0.14300  Biso   1.000  C
  C64      1.0000 0.90120  0.04540  0.35700  Biso   1.000  C
  H77      1.0000 0.96500  0.46350  0.81550  Biso   1.000  H
  H78      1.0000 0.03500  0.96350  0.68450  Biso   1.000  H
  H79      1.0000 0.03500  0.53650  0.18450  Biso   1.000  H
  H80      1.0000 0.96500  0.03650  0.31550  Biso   1.000  H
  C65      1.0000 0.68130  0.46260  0.90610  Biso   1.000  C
  C66      1.0000 0.31870  0.96260  0.59390  Biso   1.000  C
  C67      1.0000 0.31870  0.53740  0.09390  Biso   1.000  C
  C68      1.0000 0.68130  0.03740  0.40610  Biso   1.000  C
  H81      1.0000 0.58310  0.47770  0.90110  Biso   1.000  H
  H82      1.0000 0.41690  0.97770  0.59890  Biso   1.000  H
  H83      1.0000 0.41690  0.52230  0.09890  Biso   1.000  H
  H84      1.0000 0.58310  0.02230  0.40110  Biso   1.000  H
  C69      1.0000 0.72720  0.42630  0.97720  Biso   1.000  C
  C70      1.0000 0.27280  0.92630  0.52280  Biso   1.000  C
  C71      1.0000 0.27280  0.57370  0.02280  Biso   1.000  C
  C72      1.0000 0.72720  0.07370  0.47720  Biso   1.000  C
  H85      1.0000 0.66060  0.41760  0.01740  Biso   1.000  H
  H86      1.0000 0.33940  0.91760  0.48260  Biso   1.000  H
  H87      1.0000 0.33940  0.58240  0.98260  Biso   1.000  H
  H88      1.0000 0.66060  0.08240  0.51740  Biso   1.000  H
  C73      1.0000 0.60930  0.02400  0.70950  Biso   1.000  C
  C74      1.0000 0.39070  0.52400  0.79050  Biso   1.000  C
  C75      1.0000 0.39070  0.97600  0.29050  Biso   1.000  C
  C76      1.0000 0.60930  0.47600  0.20950  Biso   1.000  C
  C77      1.0000 0.75700  0.98630  0.70830  Biso   1.000  C
  C78      1.0000 0.24300  0.48630  0.79170  Biso   1.000  C
  C79      1.0000 0.24300  0.01370  0.29170  Biso   1.000  C
  C80      1.0000 0.75700  0.51370  0.20830  Biso   1.000  C
  H89      1.0000 0.76960  0.97200  0.65140  Biso   1.000  H
  H90      1.0000 0.23040  0.47200  0.84860  Biso   1.000  H
  H91      1.0000 0.23040  0.02800  0.34860  Biso   1.000  H
  H92      1.0000 0.76960  0.52800  0.15140  Biso   1.000  H
  H93      1.0000 0.83670  0.01820  0.72460  Biso   1.000  H
  H94      1.0000 0.16330  0.51820  0.77540  Biso   1.000  H
  H95      1.0000 0.16330  0.98180  0.27540  Biso   1.000  H
  H96      1.0000 0.83670  0.48180  0.22460  Biso   1.000  H
  C81      1.0000 0.77280  0.92440  0.76390  Biso   1.000  C
  C82      1.0000 0.22720  0.42440  0.73610  Biso   1.000  C
  C83      1.0000 0.22720  0.07560  0.23610  Biso   1.000  C
  C84      1.0000 0.77280  0.57560  0.26390  Biso   1.000  C
  C85      1.0000 0.70620  0.86330  0.73490  Biso   1.000  C
  C86      1.0000 0.29380  0.36330  0.76510  Biso   1.000  C
  C87      1.0000 0.29380  0.13670  0.26510  Biso   1.000  C
  C88      1.0000 0.70620  0.63670  0.23490  Biso   1.000  C
  H97      1.0000 0.65920  0.86170  0.68130  Biso   1.000  H
  H98      1.0000 0.34080  0.36170  0.81870  Biso   1.000  H
  H99      1.0000 0.34080  0.13830  0.31870  Biso   1.000  H
  H100     1.0000 0.65920  0.63830  0.18130  Biso   1.000  H
  C89      1.0000 0.70870  0.80580  0.78380  Biso   1.000  C
  C90      1.0000 0.29130  0.30580  0.71620  Biso   1.000  C
  C91      1.0000 0.29130  0.19420  0.21620  Biso   1.000  C
  C92      1.0000 0.70870  0.69420  0.28380  Biso   1.000  C
  H101     1.0000 0.66350  0.76560  0.76350  Biso   1.000  H
  H102     1.0000 0.33650  0.26560  0.73650  Biso   1.000  H
  H103     1.0000 0.33650  0.23440  0.23650  Biso   1.000  H
  H104     1.0000 0.66350  0.73440  0.26350  Biso   1.000  H
  C93      1.0000 0.77780  0.80730  0.86290  Biso   1.000  C
  C94      1.0000 0.22220  0.30730  0.63710  Biso   1.000  C
  C95      1.0000 0.22220  0.19270  0.13710  Biso   1.000  C
  C96      1.0000 0.77780  0.69270  0.36290  Biso   1.000  C
  H105     1.0000 0.77800  0.76850  0.89670  Biso   1.000  H
  H106     1.0000 0.22200  0.26850  0.60330  Biso   1.000  H
  H107     1.0000 0.22200  0.23150  0.10330  Biso   1.000  H
  H108     1.0000 0.77800  0.73150  0.39670  Biso   1.000  H
  C97      1.0000 0.84660  0.86640  0.89190  Biso   1.000  C
  C98      1.0000 0.15340  0.36640  0.60810  Biso   1.000  C
  C99      1.0000 0.15340  0.13360  0.10810  Biso   1.000  C
  C100     1.0000 0.84660  0.63360  0.39190  Biso   1.000  C
  H109     1.0000 0.89570  0.86670  0.94500  Biso   1.000  H
  H110     1.0000 0.10430  0.36670  0.55500  Biso   1.000  H
  H111     1.0000 0.10430  0.13330  0.05500  Biso   1.000  H
  H112     1.0000 0.89570  0.63330  0.44500  Biso   1.000  H
  C101     1.0000 0.84500  0.92590  0.84420  Biso   1.000  C
  C102     1.0000 0.15500  0.42590  0.65580  Biso   1.000  C
  C103     1.0000 0.15500  0.07410  0.15580  Biso   1.000  C
  C104     1.0000 0.84500  0.57410  0.34420  Biso   1.000  C
  C105     1.0000 0.92700  0.98880  0.87820  Biso   1.000  C
  C106     1.0000 0.07300  0.48880  0.62180  Biso   1.000  C
  C107     1.0000 0.07300  0.01120  0.12180  Biso   1.000  C
  C108     1.0000 0.92700  0.51120  0.37820  Biso   1.000  C
  H113     1.0000 0.92910  0.98890  0.93860  Biso   1.000  H
  H114     1.0000 0.07090  0.48890  0.56140  Biso   1.000  H
  H115     1.0000 0.07090  0.01110  0.06140  Biso   1.000  H
  H116     1.0000 0.92910  0.51110  0.43860  Biso   1.000  H
  H117     1.0000 0.87510  0.02980  0.85760  Biso   1.000  H
  H118     1.0000 0.12490  0.52980  0.64240  Biso   1.000  H
  H119     1.0000 0.12490  0.97020  0.14240  Biso   1.000  H
  H120     1.0000 0.87510  0.47020  0.35760  Biso   1.000  H
  C109     1.0000 0.08700  0.98950  0.85130  Biso   1.000  C
  C110     1.0000 0.91300  0.48950  0.64870  Biso   1.000  C
  C111     1.0000 0.91300  0.01050  0.14870  Biso   1.000  C
  C112     1.0000 0.08700  0.51050  0.35130  Biso   1.000  C
  O29      1.0000 0.32640  0.38040  0.97970  Biso   1.000  O
  O30      1.0000 0.67360  0.88040  0.52030  Biso   1.000  O
  O31      1.0000 0.67360  0.61960  0.02030  Biso   1.000  O
  O32      1.0000 0.32640  0.11960  0.47970  Biso   1.000  O
  H121     1.0000 0.38760  0.34920  0.99650  Biso   1.000  H
  H122     1.0000 0.61240  0.84920  0.50350  Biso   1.000  H
  H123     1.0000 0.61240  0.65080  0.00350  Biso   1.000  H
  H124     1.0000 0.38760  0.15080  0.49650  Biso   1.000  H
  H125     1.0000 0.25010  0.37320  0.00650  Biso   1.000  H
  H126     1.0000 0.74990  0.87320  0.49350  Biso   1.000  H
  H127     1.0000 0.74990  0.62680  0.99350  Biso   1.000  H
  H128     1.0000 0.25010  0.12680  0.50650  Biso   1.000  H
