data_image0
_cell_length_a       14.835
_cell_length_b       19.359
_cell_length_c       18.279
_cell_angle_alpha    90
_cell_angle_beta     100.87
_cell_angle_gamma    90

_symmetry_space_group_name_H-M    "P 1"
_symmetry_int_tables_number       1

loop_
  _symmetry_equiv_pos_as_xyz
  'x, y, z'

loop_
  _atom_site_label
  _atom_site_occupancy
  _atom_site_fract_x
  _atom_site_fract_y
  _atom_site_fract_z
  _atom_site_thermal_displace_type
  _atom_site_B_iso_or_equiv
  _atom_site_type_symbol
  La1      1.0000 0.68316  0.28655  0.54244  Biso   1.000  La
  La2      1.0000 0.31684  0.78655  0.95756  Biso   1.000  La
  La3      1.0000 0.31684  0.71345  0.45756  Biso   1.000  La
  La4      1.0000 0.68316  0.21345  0.04244  Biso   1.000  La
  Br1      1.0000 0.92334  0.08962  0.45963  Biso   1.000  Br
  Br2      1.0000 0.07666  0.58962  0.04037  Biso   1.000  Br
  Br3      1.0000 0.07666  0.91038  0.54037  Biso   1.000  Br
  Br4      1.0000 0.92334  0.41038  0.95963  Biso   1.000  Br
  Cu1      1.0000 0.03702  0.26446  0.23972  Biso   1.000  Cu
  Cu2      1.0000 0.96298  0.76446  0.26028  Biso   1.000  Cu
  Cu3      1.0000 0.96298  0.73554  0.76028  Biso   1.000  Cu
  Cu4      1.0000 0.03702  0.23554  0.73972  Biso   1.000  Cu
  F1       1.0000 0.88521  0.47398  0.23282  Biso   1.000  F
  F2       1.0000 0.11479  0.97398  0.26718  Biso   1.000  F
  F3       1.0000 0.11479  0.52602  0.76718  Biso   1.000  F
  F4       1.0000 0.88521  0.02602  0.73282  Biso   1.000  F
  F5       1.0000 0.83227  0.42550  0.12796  Biso   1.000  F
  F6       1.0000 0.16773  0.92550  0.37204  Biso   1.000  F
  F7       1.0000 0.16773  0.57450  0.87204  Biso   1.000  F
  F8       1.0000 0.83227  0.07450  0.62796  Biso   1.000  F
  F9       1.0000 0.68260  0.04966  0.43116  Biso   1.000  F
  F10      1.0000 0.31740  0.54966  0.06884  Biso   1.000  F
  F11      1.0000 0.31740  0.95034  0.56884  Biso   1.000  F
  F12      1.0000 0.68260  0.45034  0.93116  Biso   1.000  F
  F13      1.0000 0.48318  0.40942  0.72208  Biso   1.000  F
  F14      1.0000 0.51682  0.90942  0.77792  Biso   1.000  F
  F15      1.0000 0.51682  0.59058  0.27792  Biso   1.000  F
  F16      1.0000 0.48318  0.09058  0.22208  Biso   1.000  F
  F17      1.0000 0.61590  0.38052  0.78296  Biso   1.000  F
  F18      1.0000 0.38410  0.88052  0.71704  Biso   1.000  F
  F19      1.0000 0.38410  0.61948  0.21704  Biso   1.000  F
  F20      1.0000 0.61590  0.11948  0.28296  Biso   1.000  F
  F21      1.0000 0.34190  0.26013  0.52961  Biso   1.000  F
  F22      1.0000 0.65810  0.76013  0.97039  Biso   1.000  F
  F23      1.0000 0.65810  0.73987  0.47039  Biso   1.000  F
  F24      1.0000 0.34190  0.23987  0.02961  Biso   1.000  F
  F25      1.0000 0.33920  0.27482  0.41307  Biso   1.000  F
  F26      1.0000 0.66080  0.77482  0.08693  Biso   1.000  F
  F27      1.0000 0.66080  0.72518  0.58693  Biso   1.000  F
  F28      1.0000 0.33920  0.22518  0.91307  Biso   1.000  F
  F29      1.0000 0.57550  0.57518  0.50768  Biso   1.000  F
  F30      1.0000 0.42450  0.07518  0.99232  Biso   1.000  F
  F31      1.0000 0.42450  0.42482  0.49232  Biso   1.000  F
  F32      1.0000 0.57550  0.92482  0.00768  Biso   1.000  F
  F33      1.0000 0.87190  0.38032  0.35916  Biso   1.000  F
  F34      1.0000 0.12810  0.88032  0.14084  Biso   1.000  F
  F35      1.0000 0.12810  0.61968  0.64084  Biso   1.000  F
  F36      1.0000 0.87190  0.11968  0.85916  Biso   1.000  F
  F37      1.0000 0.92893  0.50908  0.13366  Biso   1.000  F
  F38      1.0000 0.07107  0.00908  0.36634  Biso   1.000  F
  F39      1.0000 0.07107  0.49092  0.86634  Biso   1.000  F
  F40      1.0000 0.92893  0.99092  0.63366  Biso   1.000  F
  F41      1.0000 0.83000  0.44682  0.73486  Biso   1.000  F
  F42      1.0000 0.17000  0.94682  0.76514  Biso   1.000  F
  F43      1.0000 0.17000  0.55318  0.26514  Biso   1.000  F
  F44      1.0000 0.83000  0.05318  0.23486  Biso   1.000  F
  F45      1.0000 0.89470  0.51724  0.67052  Biso   1.000  F
  F46      1.0000 0.10530  0.01724  0.82948  Biso   1.000  F
  F47      1.0000 0.10530  0.48276  0.32948  Biso   1.000  F
  F48      1.0000 0.89470  0.98276  0.17052  Biso   1.000  F
  F49      1.0000 0.58650  0.48672  0.75416  Biso   1.000  F
  F50      1.0000 0.41350  0.98672  0.74584  Biso   1.000  F
  F51      1.0000 0.41350  0.51328  0.24584  Biso   1.000  F
  F52      1.0000 0.58650  0.01328  0.25416  Biso   1.000  F
  F53      1.0000 0.96610  0.42710  0.71882  Biso   1.000  F
  F54      1.0000 0.03390  0.92710  0.78118  Biso   1.000  F
  F55      1.0000 0.03390  0.57290  0.28118  Biso   1.000  F
  F56      1.0000 0.96610  0.07290  0.21882  Biso   1.000  F
  F57      1.0000 0.30820  0.17538  0.45402  Biso   1.000  F
  F58      1.0000 0.69180  0.67538  0.04598  Biso   1.000  F
  F59      1.0000 0.69180  0.82462  0.54598  Biso   1.000  F
  F60      1.0000 0.30820  0.32462  0.95402  Biso   1.000  F
  F61      1.0000 0.72050  0.56175  0.52370  Biso   1.000  F
  F62      1.0000 0.27950  0.06175  0.97630  Biso   1.000  F
  F63      1.0000 0.27950  0.43825  0.47630  Biso   1.000  F
  F64      1.0000 0.72050  0.93825  0.02370  Biso   1.000  F
  F65      1.0000 0.63290  0.52166  0.42628  Biso   1.000  F
  F66      1.0000 0.36710  0.02166  0.07372  Biso   1.000  F
  F67      1.0000 0.36710  0.47834  0.57372  Biso   1.000  F
  F68      1.0000 0.63290  0.97834  0.92628  Biso   1.000  F
  F69      1.0000 0.82340  0.47788  0.38650  Biso   1.000  F
  F70      1.0000 0.17660  0.97788  0.11350  Biso   1.000  F
  F71      1.0000 0.17660  0.52212  0.61350  Biso   1.000  F
  F72      1.0000 0.82340  0.02212  0.88650  Biso   1.000  F
  F73      1.0000 0.96120  0.44770  0.42874  Biso   1.000  F
  F74      1.0000 0.03880  0.94770  0.07126  Biso   1.000  F
  F75      1.0000 0.03880  0.55230  0.57126  Biso   1.000  F
  F76      1.0000 0.96120  0.05230  0.92874  Biso   1.000  F
  F77      1.0000 0.23880  0.45150  0.14170  Biso   1.000  F
  F78      1.0000 0.76120  0.95150  0.35830  Biso   1.000  F
  F79      1.0000 0.76120  0.54850  0.85830  Biso   1.000  F
  F80      1.0000 0.23880  0.04850  0.64170  Biso   1.000  F
  F81      1.0000 0.29860  0.39460  0.23560  Biso   1.000  F
  F82      1.0000 0.70140  0.89460  0.26440  Biso   1.000  F
  F83      1.0000 0.70140  0.60540  0.76440  Biso   1.000  F
  F84      1.0000 0.29860  0.10540  0.73560  Biso   1.000  F
  F85      1.0000 0.27050  0.34260  0.13250  Biso   1.000  F
  F86      1.0000 0.72950  0.84260  0.36750  Biso   1.000  F
  F87      1.0000 0.72950  0.65740  0.86750  Biso   1.000  F
  F88      1.0000 0.27050  0.15740  0.63250  Biso   1.000  F
  F89      1.0000 0.31567  0.16224  0.28171  Biso   1.000  F
  F90      1.0000 0.68433  0.66224  0.21829  Biso   1.000  F
  F91      1.0000 0.68433  0.83776  0.71829  Biso   1.000  F
  F92      1.0000 0.31567  0.33776  0.78171  Biso   1.000  F
  F93      1.0000 0.99230  0.20908  0.97708  Biso   1.000  F
  F94      1.0000 0.00770  0.70908  0.52292  Biso   1.000  F
  F95      1.0000 0.00770  0.79092  0.02292  Biso   1.000  F
  F96      1.0000 0.99230  0.29092  0.47708  Biso   1.000  F
  F97      1.0000 0.27420  0.06955  0.21935  Biso   1.000  F
  F98      1.0000 0.72580  0.56955  0.28065  Biso   1.000  F
  F99      1.0000 0.72580  0.93045  0.78065  Biso   1.000  F
  F100     1.0000 0.27420  0.43045  0.71935  Biso   1.000  F
  F101     1.0000 0.23200  0.08742  0.32311  Biso   1.000  F
  F102     1.0000 0.76800  0.58742  0.17689  Biso   1.000  F
  F103     1.0000 0.76800  0.91258  0.67689  Biso   1.000  F
  F104     1.0000 0.23200  0.41258  0.82311  Biso   1.000  F
  F105     1.0000 0.11910  0.15400  0.99060  Biso   1.000  F
  F106     1.0000 0.88090  0.65400  0.50940  Biso   1.000  F
  F107     1.0000 0.88090  0.84600  0.00940  Biso   1.000  F
  F108     1.0000 0.11910  0.34600  0.49060  Biso   1.000  F
  F109     1.0000 0.11790  0.26370  0.00580  Biso   1.000  F
  F110     1.0000 0.88210  0.76370  0.49420  Biso   1.000  F
  F111     1.0000 0.88210  0.73630  0.99420  Biso   1.000  F
  F112     1.0000 0.11790  0.23630  0.50580  Biso   1.000  F
  O1       1.0000 0.69680  0.28875  0.16227  Biso   1.000  O
  O2       1.0000 0.30320  0.78875  0.33773  Biso   1.000  O
  O3       1.0000 0.30320  0.71125  0.83773  Biso   1.000  O
  O4       1.0000 0.69680  0.21125  0.66227  Biso   1.000  O
  O5       1.0000 0.64190  0.40842  0.50527  Biso   1.000  O
  O6       1.0000 0.35810  0.90842  0.99473  Biso   1.000  O
  O7       1.0000 0.35810  0.59158  0.49473  Biso   1.000  O
  O8       1.0000 0.64190  0.09158  0.00527  Biso   1.000  O
  O9       1.0000 0.83180  0.21783  0.55976  Biso   1.000  O
  O10      1.0000 0.16820  0.71783  0.94024  Biso   1.000  O
  O11      1.0000 0.16820  0.78217  0.44024  Biso   1.000  O
  O12      1.0000 0.83180  0.28217  0.05976  Biso   1.000  O
  O13      1.0000 0.79420  0.34237  0.46968  Biso   1.000  O
  O14      1.0000 0.20580  0.84237  0.03032  Biso   1.000  O
  O15      1.0000 0.20580  0.65763  0.53032  Biso   1.000  O
  O16      1.0000 0.79420  0.15763  0.96968  Biso   1.000  O
  O17      1.0000 0.64600  0.25960  0.40184  Biso   1.000  O
  O18      1.0000 0.35400  0.75960  0.09816  Biso   1.000  O
  O19      1.0000 0.35400  0.74040  0.59816  Biso   1.000  O
  O20      1.0000 0.64600  0.24040  0.90184  Biso   1.000  O
  O21      1.0000 0.65249  0.16129  0.50800  Biso   1.000  O
  O22      1.0000 0.34751  0.66129  0.99200  Biso   1.000  O
  O23      1.0000 0.34751  0.83871  0.49200  Biso   1.000  O
  O24      1.0000 0.65249  0.33871  0.00800  Biso   1.000  O
  O25      1.0000 0.51590  0.26199  0.50901  Biso   1.000  O
  O26      1.0000 0.48410  0.76199  0.99099  Biso   1.000  O
  O27      1.0000 0.48410  0.73801  0.49099  Biso   1.000  O
  O28      1.0000 0.51590  0.23801  0.00901  Biso   1.000  O
  O29      1.0000 0.11670  0.18508  0.26570  Biso   1.000  O
  O30      1.0000 0.88330  0.68508  0.23430  Biso   1.000  O
  O31      1.0000 0.88330  0.81492  0.73430  Biso   1.000  O
  O32      1.0000 0.11670  0.31492  0.76570  Biso   1.000  O
  O33      1.0000 0.96310  0.34685  0.21653  Biso   1.000  O
  O34      1.0000 0.03690  0.84685  0.28347  Biso   1.000  O
  O35      1.0000 0.03690  0.65315  0.78347  Biso   1.000  O
  O36      1.0000 0.96310  0.15315  0.71653  Biso   1.000  O
  O37      1.0000 0.80214  0.35573  0.62633  Biso   1.000  O
  O38      1.0000 0.19786  0.85573  0.87367  Biso   1.000  O
  O39      1.0000 0.19786  0.64427  0.37367  Biso   1.000  O
  O40      1.0000 0.80214  0.14427  0.12633  Biso   1.000  O
  O41      1.0000 0.01000  0.22904  0.12235  Biso   1.000  O
  O42      1.0000 0.99000  0.72904  0.37765  Biso   1.000  O
  O43      1.0000 0.99000  0.77096  0.87765  Biso   1.000  O
  O44      1.0000 0.01000  0.27096  0.62235  Biso   1.000  O
  O45      1.0000 0.61060  0.34687  0.63915  Biso   1.000  O
  O46      1.0000 0.38940  0.84687  0.86085  Biso   1.000  O
  O47      1.0000 0.38940  0.65313  0.36085  Biso   1.000  O
  O48      1.0000 0.61060  0.15313  0.13915  Biso   1.000  O
  O49      1.0000 0.14490  0.31371  0.21940  Biso   1.000  O
  O50      1.0000 0.85510  0.81371  0.28060  Biso   1.000  O
  O51      1.0000 0.85510  0.68629  0.78060  Biso   1.000  O
  O52      1.0000 0.14490  0.18629  0.71940  Biso   1.000  O
  N1       1.0000 0.63770  0.28009  0.33445  Biso   1.000  N
  N2       1.0000 0.36230  0.78009  0.16555  Biso   1.000  N
  N3       1.0000 0.36230  0.71991  0.66555  Biso   1.000  N
  N4       1.0000 0.63770  0.21991  0.83445  Biso   1.000  N
  N5       1.0000 0.66250  0.29455  0.22169  Biso   1.000  N
  N6       1.0000 0.33750  0.79455  0.27831  Biso   1.000  N
  N7       1.0000 0.33750  0.70545  0.77831  Biso   1.000  N
  N8       1.0000 0.66250  0.20545  0.72169  Biso   1.000  N
  N9       1.0000 0.93890  0.22452  0.29010  Biso   1.000  N
  N10      1.0000 0.06110  0.72452  0.20990  Biso   1.000  N
  N11      1.0000 0.06110  0.77548  0.70990  Biso   1.000  N
  N12      1.0000 0.93890  0.27548  0.79010  Biso   1.000  N
  C1       1.0000 0.52060  0.36880  0.34470  Biso   1.000  C
  C2       1.0000 0.47940  0.86880  0.15530  Biso   1.000  C
  C3       1.0000 0.47940  0.63120  0.65530  Biso   1.000  C
  C4       1.0000 0.52060  0.13120  0.84470  Biso   1.000  C
  H1       1.0000 0.47100  0.39500  0.31660  Biso   1.000  H
  H2       1.0000 0.52900  0.89500  0.18340  Biso   1.000  H
  H3       1.0000 0.52900  0.60500  0.68340  Biso   1.000  H
  H4       1.0000 0.47100  0.10500  0.81660  Biso   1.000  H
  H5       1.0000 0.57070  0.39910  0.36380  Biso   1.000  H
  H6       1.0000 0.42930  0.89910  0.13620  Biso   1.000  H
  H7       1.0000 0.42930  0.60090  0.63620  Biso   1.000  H
  H8       1.0000 0.57070  0.10090  0.86380  Biso   1.000  H
  H9       1.0000 0.50010  0.34620  0.38550  Biso   1.000  H
  H10      1.0000 0.49990  0.84620  0.11450  Biso   1.000  H
  H11      1.0000 0.49990  0.65380  0.61450  Biso   1.000  H
  H12      1.0000 0.50010  0.15380  0.88550  Biso   1.000  H
  C5       1.0000 0.78400  0.22970  0.30860  Biso   1.000  C
  C6       1.0000 0.21600  0.72970  0.19140  Biso   1.000  C
  C7       1.0000 0.21600  0.77030  0.69140  Biso   1.000  C
  C8       1.0000 0.78400  0.27030  0.80860  Biso   1.000  C
  C9       1.0000 0.57300  0.42220  0.72950  Biso   1.000  C
  C10      1.0000 0.42700  0.92220  0.77050  Biso   1.000  C
  C11      1.0000 0.42700  0.57780  0.27050  Biso   1.000  C
  C12      1.0000 0.57300  0.07780  0.22950  Biso   1.000  C
  C13      1.0000 0.60420  0.40950  0.65500  Biso   1.000  C
  C14      1.0000 0.39580  0.90950  0.84500  Biso   1.000  C
  C15      1.0000 0.39580  0.59050  0.34500  Biso   1.000  C
  C16      1.0000 0.60420  0.09050  0.15500  Biso   1.000  C
  C17      1.0000 0.58740  0.34570  0.22690  Biso   1.000  C
  C18      1.0000 0.41260  0.84570  0.27310  Biso   1.000  C
  C19      1.0000 0.41260  0.65430  0.77310  Biso   1.000  C
  C20      1.0000 0.58740  0.15430  0.72690  Biso   1.000  C
  C21      1.0000 0.58340  0.12740  0.47710  Biso   1.000  C
  C22      1.0000 0.41660  0.62740  0.02290  Biso   1.000  C
  C23      1.0000 0.41660  0.87260  0.52290  Biso   1.000  C
  C24      1.0000 0.58340  0.37260  0.97710  Biso   1.000  C
  C25      1.0000 0.49170  0.14820  0.46100  Biso   1.000  C
  C26      1.0000 0.50830  0.64820  0.03900  Biso   1.000  C
  C27      1.0000 0.50830  0.85180  0.53900  Biso   1.000  C
  C28      1.0000 0.49170  0.35180  0.96100  Biso   1.000  C
  H13      1.0000 0.44750  0.11810  0.43620  Biso   1.000  H
  H14      1.0000 0.55250  0.61810  0.06380  Biso   1.000  H
  H15      1.0000 0.55250  0.88190  0.56380  Biso   1.000  H
  H16      1.0000 0.44750  0.38190  0.93620  Biso   1.000  H
  C29      1.0000 0.90780  0.45310  0.16980  Biso   1.000  C
  C30      1.0000 0.09220  0.95310  0.33020  Biso   1.000  C
  C31      1.0000 0.09220  0.54690  0.83020  Biso   1.000  C
  C32      1.0000 0.90780  0.04690  0.66980  Biso   1.000  C
  C33      1.0000 0.80320  0.18230  0.36650  Biso   1.000  C
  C34      1.0000 0.19680  0.68230  0.13350  Biso   1.000  C
  C35      1.0000 0.19680  0.81770  0.63350  Biso   1.000  C
  C36      1.0000 0.80320  0.31770  0.86650  Biso   1.000  C
  H17      1.0000 0.75860  0.16860  0.39300  Biso   1.000  H
  H18      1.0000 0.24140  0.66860  0.10700  Biso   1.000  H
  H19      1.0000 0.24140  0.83140  0.60700  Biso   1.000  H
  H20      1.0000 0.75860  0.33140  0.89300  Biso   1.000  H
  C37      1.0000 0.55190  0.31540  0.29520  Biso   1.000  C
  C38      1.0000 0.44810  0.81540  0.20480  Biso   1.000  C
  C39      1.0000 0.44810  0.68460  0.70480  Biso   1.000  C
  C40      1.0000 0.55190  0.18460  0.79520  Biso   1.000  C
  C41      1.0000 0.89170  0.15610  0.38290  Biso   1.000  C
  C42      1.0000 0.10830  0.65610  0.11710  Biso   1.000  C
  C43      1.0000 0.10830  0.84390  0.61710  Biso   1.000  C
  C44      1.0000 0.89170  0.34390  0.88290  Biso   1.000  C
  C45      1.0000 0.63420  0.46250  0.54050  Biso   1.000  C
  C46      1.0000 0.36580  0.96250  0.95950  Biso   1.000  C
  C47      1.0000 0.36580  0.53750  0.45950  Biso   1.000  C
  C48      1.0000 0.63420  0.03750  0.04050  Biso   1.000  C
  C49      1.0000 0.46540  0.21310  0.48130  Biso   1.000  C
  C50      1.0000 0.53460  0.71310  0.01870  Biso   1.000  C
  C51      1.0000 0.53460  0.78690  0.51870  Biso   1.000  C
  C52      1.0000 0.46540  0.28690  0.98130  Biso   1.000  C
  C53      1.0000 0.16130  0.15780  0.22170  Biso   1.000  C
  C54      1.0000 0.83870  0.65780  0.27830  Biso   1.000  C
  C55      1.0000 0.83870  0.84220  0.77830  Biso   1.000  C
  C56      1.0000 0.16130  0.34220  0.72170  Biso   1.000  C
  C57      1.0000 0.84310  0.39460  0.48150  Biso   1.000  C
  C58      1.0000 0.15690  0.89460  0.01850  Biso   1.000  C
  C59      1.0000 0.15690  0.60540  0.51850  Biso   1.000  C
  C60      1.0000 0.84310  0.10540  0.98150  Biso   1.000  C
  C61      1.0000 0.95850  0.17760  0.34540  Biso   1.000  C
  C62      1.0000 0.04150  0.67760  0.15460  Biso   1.000  C
  C63      1.0000 0.04150  0.82240  0.65460  Biso   1.000  C
  C64      1.0000 0.95850  0.32240  0.84540  Biso   1.000  C
  H21      1.0000 0.01760  0.15970  0.35810  Biso   1.000  H
  H22      1.0000 0.98240  0.65970  0.14190  Biso   1.000  H
  H23      1.0000 0.98240  0.84030  0.64190  Biso   1.000  H
  H24      1.0000 0.01760  0.34030  0.85810  Biso   1.000  H
  C65      1.0000 0.69560  0.26540  0.28820  Biso   1.000  C
  C66      1.0000 0.30440  0.76540  0.21180  Biso   1.000  C
  C67      1.0000 0.30440  0.73460  0.71180  Biso   1.000  C
  C68      1.0000 0.69560  0.23460  0.78820  Biso   1.000  C
  C69      1.0000 0.06940  0.41460  0.16540  Biso   1.000  C
  C70      1.0000 0.93060  0.91460  0.33460  Biso   1.000  C
  C71      1.0000 0.93060  0.58540  0.83460  Biso   1.000  C
  C72      1.0000 0.06940  0.08540  0.66540  Biso   1.000  C
  H25      1.0000 0.07650  0.45450  0.13860  Biso   1.000  H
  H26      1.0000 0.92350  0.95450  0.36140  Biso   1.000  H
  H27      1.0000 0.92350  0.54550  0.86140  Biso   1.000  H
  H28      1.0000 0.07650  0.04550  0.63860  Biso   1.000  H
  C73      1.0000 0.61920  0.46780  0.61370  Biso   1.000  C
  C74      1.0000 0.38080  0.96780  0.88630  Biso   1.000  C
  C75      1.0000 0.38080  0.53220  0.38630  Biso   1.000  C
  C76      1.0000 0.61920  0.03220  0.11370  Biso   1.000  C
  H29      1.0000 0.61920  0.51120  0.63540  Biso   1.000  H
  H30      1.0000 0.38080  0.01120  0.86460  Biso   1.000  H
  H31      1.0000 0.38080  0.48880  0.36460  Biso   1.000  H
  H32      1.0000 0.61920  0.98880  0.13540  Biso   1.000  H
  C77      1.0000 0.85360  0.24870  0.27140  Biso   1.000  C
  C78      1.0000 0.14640  0.74870  0.22860  Biso   1.000  C
  C79      1.0000 0.14640  0.75130  0.72860  Biso   1.000  C
  C80      1.0000 0.85360  0.25130  0.77140  Biso   1.000  C
  H33      1.0000 0.84020  0.27960  0.23180  Biso   1.000  H
  H34      1.0000 0.15980  0.77960  0.26820  Biso   1.000  H
  H35      1.0000 0.15980  0.72040  0.76820  Biso   1.000  H
  H36      1.0000 0.84020  0.22040  0.73180  Biso   1.000  H
  C81      1.0000 0.98580  0.40020  0.18440  Biso   1.000  C
  C82      1.0000 0.01420  0.90020  0.31560  Biso   1.000  C
  C83      1.0000 0.01420  0.59980  0.81560  Biso   1.000  C
  C84      1.0000 0.98580  0.09980  0.68440  Biso   1.000  C
  C85      1.0000 0.14700  0.16090  0.14410  Biso   1.000  C
  C86      1.0000 0.85300  0.66090  0.35590  Biso   1.000  C
  C87      1.0000 0.85300  0.83910  0.85590  Biso   1.000  C
  C88      1.0000 0.14700  0.33910  0.64410  Biso   1.000  C
  H37      1.0000 0.18760  0.13760  0.11970  Biso   1.000  H
  H38      1.0000 0.81240  0.63760  0.38030  Biso   1.000  H
  H39      1.0000 0.81240  0.86240  0.88030  Biso   1.000  H
  H40      1.0000 0.18760  0.36240  0.61970  Biso   1.000  H
  C89      1.0000 0.51710  0.34770  0.15540  Biso   1.000  C
  C90      1.0000 0.48290  0.84770  0.34460  Biso   1.000  C
  C91      1.0000 0.48290  0.65230  0.84460  Biso   1.000  C
  C92      1.0000 0.51710  0.15230  0.65540  Biso   1.000  C
  H41      1.0000 0.49580  0.30170  0.14230  Biso   1.000  H
  H42      1.0000 0.50420  0.80170  0.35770  Biso   1.000  H
  H43      1.0000 0.50420  0.69830  0.85770  Biso   1.000  H
  H44      1.0000 0.49580  0.19830  0.64230  Biso   1.000  H
  H45      1.0000 0.54460  0.36650  0.11630  Biso   1.000  H
  H46      1.0000 0.45540  0.86650  0.38370  Biso   1.000  H
  H47      1.0000 0.45540  0.63350  0.88370  Biso   1.000  H
  H48      1.0000 0.54460  0.13350  0.61630  Biso   1.000  H
  H49      1.0000 0.46630  0.37610  0.16220  Biso   1.000  H
  H50      1.0000 0.53370  0.87610  0.33780  Biso   1.000  H
  H51      1.0000 0.53370  0.62390  0.83780  Biso   1.000  H
  H52      1.0000 0.46630  0.12390  0.66220  Biso   1.000  H
  C93      1.0000 0.60680  0.05250  0.46040  Biso   1.000  C
  C94      1.0000 0.39320  0.55250  0.03960  Biso   1.000  C
  C95      1.0000 0.39320  0.94750  0.53960  Biso   1.000  C
  C96      1.0000 0.60680  0.44750  0.96040  Biso   1.000  C
  C97      1.0000 0.87590  0.42500  0.41370  Biso   1.000  C
  C98      1.0000 0.12410  0.92500  0.08630  Biso   1.000  C
  C99      1.0000 0.12410  0.57500  0.58630  Biso   1.000  C
  C100     1.0000 0.87590  0.07500  0.91370  Biso   1.000  C
  C101     1.0000 0.63590  0.41550  0.24170  Biso   1.000  C
  C102     1.0000 0.36410  0.91550  0.25830  Biso   1.000  C
  C103     1.0000 0.36410  0.58450  0.75830  Biso   1.000  C
  C104     1.0000 0.63590  0.08450  0.74170  Biso   1.000  C
  H53      1.0000 0.67090  0.42460  0.20360  Biso   1.000  H
  H54      1.0000 0.32910  0.92460  0.29640  Biso   1.000  H
  H55      1.0000 0.32910  0.57540  0.79640  Biso   1.000  H
  H56      1.0000 0.67090  0.07540  0.70360  Biso   1.000  H
  H57      1.0000 0.67620  0.41450  0.28940  Biso   1.000  H
  H58      1.0000 0.32380  0.91450  0.21060  Biso   1.000  H
  H59      1.0000 0.32380  0.58550  0.71060  Biso   1.000  H
  H60      1.0000 0.67620  0.08550  0.78940  Biso   1.000  H
  H61      1.0000 0.59110  0.45130  0.24140  Biso   1.000  H
  H62      1.0000 0.40890  0.95130  0.25860  Biso   1.000  H
  H63      1.0000 0.40890  0.54870  0.75860  Biso   1.000  H
  H64      1.0000 0.59110  0.04870  0.74140  Biso   1.000  H
  C105     1.0000 0.87030  0.43060  0.54840  Biso   1.000  C
  C106     1.0000 0.12970  0.93060  0.95160  Biso   1.000  C
  C107     1.0000 0.12970  0.56940  0.45160  Biso   1.000  C
  C108     1.0000 0.87030  0.06940  0.04840  Biso   1.000  C
  H65      1.0000 0.90490  0.47060  0.54850  Biso   1.000  H
  H66      1.0000 0.09510  0.97060  0.95150  Biso   1.000  H
  H67      1.0000 0.09510  0.52940  0.45150  Biso   1.000  H
  H68      1.0000 0.90490  0.02940  0.04850  Biso   1.000  H
  C109     1.0000 0.48000  0.25870  0.27380  Biso   1.000  C
  C110     1.0000 0.52000  0.75870  0.22620  Biso   1.000  C
  C111     1.0000 0.52000  0.74130  0.72620  Biso   1.000  C
  C112     1.0000 0.48000  0.24130  0.77380  Biso   1.000  C
  H69      1.0000 0.42360  0.27900  0.24850  Biso   1.000  H
  H70      1.0000 0.57640  0.77900  0.25150  Biso   1.000  H
  H71      1.0000 0.57640  0.72100  0.75150  Biso   1.000  H
  H72      1.0000 0.42360  0.22100  0.74850  Biso   1.000  H
  H73      1.0000 0.46980  0.23560  0.31800  Biso   1.000  H
  H74      1.0000 0.53020  0.73560  0.18200  Biso   1.000  H
  H75      1.0000 0.53020  0.76440  0.68200  Biso   1.000  H
  H76      1.0000 0.46980  0.26440  0.81800  Biso   1.000  H
  H77      1.0000 0.50160  0.22600  0.24150  Biso   1.000  H
  H78      1.0000 0.49840  0.72600  0.25850  Biso   1.000  H
  H79      1.0000 0.49840  0.77400  0.75850  Biso   1.000  H
  H80      1.0000 0.50160  0.27400  0.74150  Biso   1.000  H
  C113     1.0000 0.36290  0.23040  0.46910  Biso   1.000  C
  C114     1.0000 0.63710  0.73040  0.03090  Biso   1.000  C
  C115     1.0000 0.63710  0.76960  0.53090  Biso   1.000  C
  C116     1.0000 0.36290  0.26960  0.96910  Biso   1.000  C
  C117     1.0000 0.88450  0.45070  0.68460  Biso   1.000  C
  C118     1.0000 0.11550  0.95070  0.81540  Biso   1.000  C
  C119     1.0000 0.11550  0.54930  0.31540  Biso   1.000  C
  C120     1.0000 0.88450  0.04930  0.18460  Biso   1.000  C
  C121     1.0000 0.84720  0.40820  0.61530  Biso   1.000  C
  C122     1.0000 0.15280  0.90820  0.88470  Biso   1.000  C
  C123     1.0000 0.15280  0.59180  0.38470  Biso   1.000  C
  C124     1.0000 0.84720  0.09180  0.11530  Biso   1.000  C
  C125     1.0000 0.14310  0.37020  0.18580  Biso   1.000  C
  C126     1.0000 0.85690  0.87020  0.31420  Biso   1.000  C
  C127     1.0000 0.85690  0.62980  0.81420  Biso   1.000  C
  C128     1.0000 0.14310  0.12980  0.68580  Biso   1.000  C
  C129     1.0000 0.64070  0.53070  0.49890  Biso   1.000  C
  C130     1.0000 0.35930  0.03070  0.00110  Biso   1.000  C
  C131     1.0000 0.35930  0.46930  0.50110  Biso   1.000  C
  C132     1.0000 0.64070  0.96930  0.99890  Biso   1.000  C
  C133     1.0000 0.07450  0.19740  0.10130  Biso   1.000  C
  C134     1.0000 0.92550  0.69740  0.39870  Biso   1.000  C
  C135     1.0000 0.92550  0.80260  0.89870  Biso   1.000  C
  C136     1.0000 0.07450  0.30260  0.60130  Biso   1.000  C
  C137     1.0000 0.23760  0.39120  0.17030  Biso   1.000  C
  C138     1.0000 0.76240  0.89120  0.32970  Biso   1.000  C
  C139     1.0000 0.76240  0.60880  0.82970  Biso   1.000  C
  C140     1.0000 0.23760  0.10880  0.67030  Biso   1.000  C
  C141     1.0000 0.24680  0.11780  0.26150  Biso   1.000  C
  C142     1.0000 0.75320  0.61780  0.23850  Biso   1.000  C
  C143     1.0000 0.75320  0.88220  0.73850  Biso   1.000  C
  C144     1.0000 0.24680  0.38220  0.76150  Biso   1.000  C
  C145     1.0000 0.07580  0.20460  0.01760  Biso   1.000  C
  C146     1.0000 0.92420  0.70460  0.48240  Biso   1.000  C
  C147     1.0000 0.92420  0.79540  0.98240  Biso   1.000  C
  C148     1.0000 0.07580  0.29540  0.51760  Biso   1.000  C
  F113     1.0000 0.54090  0.02099  0.41154  Biso   1.000  F
  F114     1.0000 0.45910  0.52099  0.08846  Biso   1.000  F
  F115     1.0000 0.45910  0.97901  0.58846  Biso   1.000  F
  F116     1.0000 0.54090  0.47901  0.91154  Biso   1.000  F
  F117     1.0000 0.62160  0.01514  0.52255  Biso   1.000  F
  F118     1.0000 0.37840  0.51514  0.97745  Biso   1.000  F
  F119     1.0000 0.37840  0.98486  0.47745  Biso   1.000  F
  F120     1.0000 0.62160  0.48486  0.02255  Biso   1.000  F
  H81      1.0000 0.83600  0.17430  0.56400  Biso   1.000  H
  H82      1.0000 0.16400  0.67430  0.93600  Biso   1.000  H
  H83      1.0000 0.16400  0.82570  0.43600  Biso   1.000  H
  H84      1.0000 0.83600  0.32570  0.06400  Biso   1.000  H
  H85      1.0000 0.88500  0.23500  0.55700  Biso   1.000  H
  H86      1.0000 0.11500  0.73500  0.94300  Biso   1.000  H
  H87      1.0000 0.11500  0.76500  0.44300  Biso   1.000  H
  H88      1.0000 0.88500  0.26500  0.05700  Biso   1.000  H
