data_image0
_cell_length_a       14.802
_cell_length_b       19.305
_cell_length_c       18.193
_cell_angle_alpha    90
_cell_angle_beta     100.899
_cell_angle_gamma    90

_symmetry_space_group_name_H-M    "P 1"
_symmetry_int_tables_number       1

loop_
  _symmetry_equiv_pos_as_xyz
  'x, y, z'

loop_
  _atom_site_label
  _atom_site_occupancy
  _atom_site_fract_x
  _atom_site_fract_y
  _atom_site_fract_z
  _atom_site_thermal_displace_type
  _atom_site_B_iso_or_equiv
  _atom_site_type_symbol
  Pr1      1.0000 0.18380  0.21287  0.54291  Biso   1.000  Pr
  Pr2      1.0000 0.81620  0.71287  0.95709  Biso   1.000  Pr
  Pr3      1.0000 0.81620  0.78713  0.45709  Biso   1.000  Pr
  Pr4      1.0000 0.18380  0.28713  0.04291  Biso   1.000  Pr
  Br1      1.0000 0.42404  0.09045  0.96126  Biso   1.000  Br
  Br2      1.0000 0.57596  0.59045  0.53874  Biso   1.000  Br
  Br3      1.0000 0.57596  0.90955  0.03874  Biso   1.000  Br
  Br4      1.0000 0.42404  0.40955  0.46126  Biso   1.000  Br
  Cu1      1.0000 0.53748  0.26483  0.73980  Biso   1.000  Cu
  Cu2      1.0000 0.46252  0.76483  0.76020  Biso   1.000  Cu
  Cu3      1.0000 0.46252  0.73517  0.26020  Biso   1.000  Cu
  Cu4      1.0000 0.53748  0.23517  0.23980  Biso   1.000  Cu
  F1       1.0000 0.49227  0.20792  0.47626  Biso   1.000  F
  F2       1.0000 0.50773  0.70792  0.02374  Biso   1.000  F
  F3       1.0000 0.50773  0.79208  0.52374  Biso   1.000  F
  F4       1.0000 0.49227  0.29208  0.97626  Biso   1.000  F
  F5       1.0000 0.81702  0.16250  0.78272  Biso   1.000  F
  F6       1.0000 0.18298  0.66250  0.71728  Biso   1.000  F
  F7       1.0000 0.18298  0.83750  0.21728  Biso   1.000  F
  F8       1.0000 0.81702  0.33750  0.28272  Biso   1.000  F
  F9       1.0000 0.73300  0.08780  0.82495  Biso   1.000  F
  F10      1.0000 0.26700  0.58780  0.67505  Biso   1.000  F
  F11      1.0000 0.26700  0.91220  0.17505  Biso   1.000  F
  F12      1.0000 0.73300  0.41220  0.32495  Biso   1.000  F
  F13      1.0000 0.77560  0.06957  0.72040  Biso   1.000  F
  F14      1.0000 0.22440  0.56957  0.77960  Biso   1.000  F
  F15      1.0000 0.22440  0.93043  0.27960  Biso   1.000  F
  F16      1.0000 0.77560  0.43043  0.22040  Biso   1.000  F
  F17      1.0000 0.32873  0.05471  0.73614  Biso   1.000  F
  F18      1.0000 0.67127  0.55471  0.76386  Biso   1.000  F
  F19      1.0000 0.67127  0.94529  0.26386  Biso   1.000  F
  F20      1.0000 0.32873  0.44529  0.23614  Biso   1.000  F
  F21      1.0000 0.07513  0.92606  0.50704  Biso   1.000  F
  F22      1.0000 0.92487  0.42606  0.99296  Biso   1.000  F
  F23      1.0000 0.92487  0.07394  0.49296  Biso   1.000  F
  F24      1.0000 0.07513  0.57394  0.00704  Biso   1.000  F
  F25      1.0000 0.13341  0.97981  0.42549  Biso   1.000  F
  F26      1.0000 0.86659  0.47981  0.07451  Biso   1.000  F
  F27      1.0000 0.86659  0.02019  0.57451  Biso   1.000  F
  F28      1.0000 0.13341  0.52019  0.92549  Biso   1.000  F
  F29      1.0000 0.22049  0.93894  0.52377  Biso   1.000  F
  F30      1.0000 0.77951  0.43894  0.97623  Biso   1.000  F
  F31      1.0000 0.77951  0.06106  0.47623  Biso   1.000  F
  F32      1.0000 0.22049  0.56106  0.02377  Biso   1.000  F
  F33      1.0000 0.61843  0.26375  0.50534  Biso   1.000  F
  F34      1.0000 0.38157  0.76375  0.99466  Biso   1.000  F
  F35      1.0000 0.38157  0.73625  0.49466  Biso   1.000  F
  F36      1.0000 0.61843  0.23625  0.00534  Biso   1.000  F
  F37      1.0000 0.46182  0.05387  0.42925  Biso   1.000  F
  F38      1.0000 0.53818  0.55387  0.07075  Biso   1.000  F
  F39      1.0000 0.53818  0.94613  0.57075  Biso   1.000  F
  F40      1.0000 0.46182  0.44613  0.92925  Biso   1.000  F
  F41      1.0000 0.62107  0.15417  0.49028  Biso   1.000  F
  F42      1.0000 0.37893  0.65417  0.00972  Biso   1.000  F
  F43      1.0000 0.37893  0.84583  0.50972  Biso   1.000  F
  F44      1.0000 0.62107  0.34583  0.99028  Biso   1.000  F
  F45      1.0000 0.39201  0.98312  0.67150  Biso   1.000  F
  F46      1.0000 0.60799  0.48312  0.82850  Biso   1.000  F
  F47      1.0000 0.60799  0.01688  0.32850  Biso   1.000  F
  F48      1.0000 0.39201  0.51688  0.17150  Biso   1.000  F
  F49      1.0000 0.46518  0.07339  0.71993  Biso   1.000  F
  F50      1.0000 0.53482  0.57339  0.78007  Biso   1.000  F
  F51      1.0000 0.53482  0.92661  0.28007  Biso   1.000  F
  F52      1.0000 0.46518  0.42661  0.21993  Biso   1.000  F
  F53      1.0000 0.79893  0.39581  0.73413  Biso   1.000  F
  F54      1.0000 0.20107  0.89581  0.76587  Biso   1.000  F
  F55      1.0000 0.20107  0.60419  0.26587  Biso   1.000  F
  F56      1.0000 0.79893  0.10419  0.23413  Biso   1.000  F
  F57      1.0000 0.33139  0.42536  0.62794  Biso   1.000  F
  F58      1.0000 0.66861  0.92536  0.87206  Biso   1.000  F
  F59      1.0000 0.66861  0.57464  0.37206  Biso   1.000  F
  F60      1.0000 0.33139  0.07464  0.12794  Biso   1.000  F
  F61      1.0000 0.84474  0.23594  0.53074  Biso   1.000  F
  F62      1.0000 0.15526  0.73594  0.96926  Biso   1.000  F
  F63      1.0000 0.15526  0.76406  0.46926  Biso   1.000  F
  F64      1.0000 0.84474  0.26406  0.03074  Biso   1.000  F
  F65      1.0000 0.77109  0.34155  0.63144  Biso   1.000  F
  F66      1.0000 0.22891  0.84155  0.86856  Biso   1.000  F
  F67      1.0000 0.22891  0.65845  0.36856  Biso   1.000  F
  F68      1.0000 0.77109  0.15845  0.13144  Biso   1.000  F
  F69      1.0000 0.73825  0.45115  0.63870  Biso   1.000  F
  F70      1.0000 0.26175  0.95115  0.86130  Biso   1.000  F
  F71      1.0000 0.26175  0.54885  0.36130  Biso   1.000  F
  F72      1.0000 0.73825  0.04885  0.13870  Biso   1.000  F
  F73      1.0000 0.98307  0.09162  0.72151  Biso   1.000  F
  F74      1.0000 0.01693  0.59162  0.77849  Biso   1.000  F
  F75      1.0000 0.01693  0.90838  0.27849  Biso   1.000  F
  F76      1.0000 0.98307  0.40838  0.22151  Biso   1.000  F
  F77      1.0000 0.38537  0.47519  0.73253  Biso   1.000  F
  F78      1.0000 0.61463  0.97519  0.76747  Biso   1.000  F
  F79      1.0000 0.61463  0.52481  0.26747  Biso   1.000  F
  F80      1.0000 0.38537  0.02481  0.23253  Biso   1.000  F
  F81      1.0000 0.84142  0.22135  0.41373  Biso   1.000  F
  F82      1.0000 0.15858  0.72135  0.08627  Biso   1.000  F
  F83      1.0000 0.15858  0.77865  0.58627  Biso   1.000  F
  F84      1.0000 0.84142  0.27865  0.91373  Biso   1.000  F
  F85      1.0000 0.18410  0.44938  0.43311  Biso   1.000  F
  F86      1.0000 0.81590  0.94938  0.06689  Biso   1.000  F
  F87      1.0000 0.81590  0.55062  0.56689  Biso   1.000  F
  F88      1.0000 0.18410  0.05062  0.93311  Biso   1.000  F
  F89      1.0000 0.37072  0.12016  0.35865  Biso   1.000  F
  F90      1.0000 0.62928  0.62016  0.14135  Biso   1.000  F
  F91      1.0000 0.62928  0.87984  0.64135  Biso   1.000  F
  F92      1.0000 0.37072  0.37984  0.85865  Biso   1.000  F
  F93      1.0000 0.11541  0.12102  0.78380  Biso   1.000  F
  F94      1.0000 0.88459  0.62102  0.71620  Biso   1.000  F
  F95      1.0000 0.88459  0.87898  0.21620  Biso   1.000  F
  F96      1.0000 0.11541  0.37898  0.28380  Biso   1.000  F
  F97      1.0000 0.04158  0.47685  0.41213  Biso   1.000  F
  F98      1.0000 0.95842  0.97685  0.08787  Biso   1.000  F
  F99      1.0000 0.95842  0.52315  0.58787  Biso   1.000  F
  F100     1.0000 0.04158  0.02315  0.91213  Biso   1.000  F
  F101     1.0000 0.42762  0.50908  0.63176  Biso   1.000  F
  F102     1.0000 0.57238  0.00908  0.86824  Biso   1.000  F
  F103     1.0000 0.57238  0.49092  0.36824  Biso   1.000  F
  F104     1.0000 0.42762  0.99092  0.13176  Biso   1.000  F
  F105     1.0000 0.08665  0.01437  0.75473  Biso   1.000  F
  F106     1.0000 0.91335  0.51437  0.74527  Biso   1.000  F
  F107     1.0000 0.91335  0.98563  0.24527  Biso   1.000  F
  F108     1.0000 0.08665  0.48563  0.25473  Biso   1.000  F
  F109     1.0000 0.80974  0.32066  0.45494  Biso   1.000  F
  F110     1.0000 0.19026  0.82066  0.04506  Biso   1.000  F
  F111     1.0000 0.19026  0.67934  0.54506  Biso   1.000  F
  F112     1.0000 0.80974  0.17934  0.95494  Biso   1.000  F
  F113     1.0000 0.12064  0.48271  0.52372  Biso   1.000  F
  F114     1.0000 0.87936  0.98271  0.97628  Biso   1.000  F
  F115     1.0000 0.87936  0.51729  0.47628  Biso   1.000  F
  F116     1.0000 0.12064  0.01729  0.02372  Biso   1.000  F
  F117     1.0000 0.32473  0.02126  0.38742  Biso   1.000  F
  F118     1.0000 0.67527  0.52126  0.11258  Biso   1.000  F
  F119     1.0000 0.67527  0.97874  0.61258  Biso   1.000  F
  F120     1.0000 0.32473  0.47874  0.88742  Biso   1.000  F
  O1       1.0000 0.19660  0.28881  0.66145  Biso   1.000  O
  O2       1.0000 0.80340  0.78881  0.83855  Biso   1.000  O
  O3       1.0000 0.80340  0.71119  0.33855  Biso   1.000  O
  O4       1.0000 0.19660  0.21119  0.16145  Biso   1.000  O
  O5       1.0000 0.61731  0.18544  0.76664  Biso   1.000  O
  O6       1.0000 0.38269  0.68544  0.73336  Biso   1.000  O
  O7       1.0000 0.38269  0.81456  0.23336  Biso   1.000  O
  O8       1.0000 0.61731  0.31456  0.26664  Biso   1.000  O
  O9       1.0000 0.33084  0.28084  0.56055  Biso   1.000  O
  O10      1.0000 0.66916  0.78084  0.93945  Biso   1.000  O
  O11      1.0000 0.66916  0.71916  0.43945  Biso   1.000  O
  O12      1.0000 0.33084  0.21916  0.06055  Biso   1.000  O
  H1       1.0000 0.37050  0.25840  0.54190  Biso   1.000  H
  H2       1.0000 0.62950  0.75840  0.95810  Biso   1.000  H
  H3       1.0000 0.62950  0.74160  0.45810  Biso   1.000  H
  H4       1.0000 0.37050  0.24160  0.04190  Biso   1.000  H
  H5       1.0000 0.32080  0.31970  0.53860  Biso   1.000  H
  H6       1.0000 0.67920  0.81970  0.96140  Biso   1.000  H
  H7       1.0000 0.67920  0.68030  0.46140  Biso   1.000  H
  H8       1.0000 0.32080  0.18030  0.03860  Biso   1.000  H
  O13      1.0000 0.14266  0.09301  0.50524  Biso   1.000  O
  O14      1.0000 0.85734  0.59301  0.99476  Biso   1.000  O
  O15      1.0000 0.85734  0.90699  0.49476  Biso   1.000  O
  O16      1.0000 0.14266  0.40699  0.00524  Biso   1.000  O
  O17      1.0000 0.46344  0.34739  0.71643  Biso   1.000  O
  O18      1.0000 0.53656  0.84739  0.78357  Biso   1.000  O
  O19      1.0000 0.53656  0.65261  0.28357  Biso   1.000  O
  O20      1.0000 0.46344  0.15261  0.21643  Biso   1.000  O
  O21      1.0000 0.29372  0.15828  0.47005  Biso   1.000  O
  O22      1.0000 0.70628  0.65828  0.02995  Biso   1.000  O
  O23      1.0000 0.70628  0.84172  0.52995  Biso   1.000  O
  O24      1.0000 0.29372  0.34172  0.97005  Biso   1.000  O
  O25      1.0000 0.15431  0.33662  0.50853  Biso   1.000  O
  O26      1.0000 0.84569  0.83662  0.99147  Biso   1.000  O
  O27      1.0000 0.84569  0.66338  0.49147  Biso   1.000  O
  O28      1.0000 0.15431  0.16338  0.00853  Biso   1.000  O
  O29      1.0000 0.14597  0.26040  0.90243  Biso   1.000  O
  O30      1.0000 0.85403  0.76040  0.59757  Biso   1.000  O
  O31      1.0000 0.85403  0.73960  0.09757  Biso   1.000  O
  O32      1.0000 0.14597  0.23960  0.40243  Biso   1.000  O
  O33      1.0000 0.01927  0.23545  0.51050  Biso   1.000  O
  O34      1.0000 0.98073  0.73545  0.98950  Biso   1.000  O
  O35      1.0000 0.98073  0.76455  0.48950  Biso   1.000  O
  O36      1.0000 0.01927  0.26455  0.01050  Biso   1.000  O
  O37      1.0000 0.30045  0.14508  0.62641  Biso   1.000  O
  O38      1.0000 0.69955  0.64508  0.87359  Biso   1.000  O
  O39      1.0000 0.69955  0.85492  0.37359  Biso   1.000  O
  O40      1.0000 0.30045  0.35492  0.12641  Biso   1.000  O
  O41      1.0000 0.51038  0.22851  0.62236  Biso   1.000  O
  O42      1.0000 0.48962  0.72851  0.87764  Biso   1.000  O
  O43      1.0000 0.48962  0.77149  0.37764  Biso   1.000  O
  O44      1.0000 0.51038  0.27149  0.12236  Biso   1.000  O
  O45      1.0000 0.64533  0.31400  0.71840  Biso   1.000  O
  O46      1.0000 0.35467  0.81400  0.78160  Biso   1.000  O
  O47      1.0000 0.35467  0.68600  0.28160  Biso   1.000  O
  O48      1.0000 0.64533  0.18600  0.21840  Biso   1.000  O
  O49      1.0000 0.11193  0.15444  0.63949  Biso   1.000  O
  O50      1.0000 0.88807  0.65444  0.86051  Biso   1.000  O
  O51      1.0000 0.88807  0.84556  0.36051  Biso   1.000  O
  O52      1.0000 0.11193  0.34556  0.13949  Biso   1.000  O
  N1       1.0000 0.16207  0.29505  0.72102  Biso   1.000  N
  N2       1.0000 0.83793  0.79505  0.77898  Biso   1.000  N
  N3       1.0000 0.83793  0.70495  0.27898  Biso   1.000  N
  N4       1.0000 0.16207  0.20495  0.22102  Biso   1.000  N
  N5       1.0000 0.13796  0.28168  0.83479  Biso   1.000  N
  N6       1.0000 0.86204  0.78168  0.66521  Biso   1.000  N
  N7       1.0000 0.86204  0.71832  0.16521  Biso   1.000  N
  N8       1.0000 0.13796  0.21832  0.33479  Biso   1.000  N
  N9       1.0000 0.43959  0.22493  0.79000  Biso   1.000  N
  N10      1.0000 0.56041  0.72493  0.71000  Biso   1.000  N
  N11      1.0000 0.56041  0.77507  0.21000  Biso   1.000  N
  N12      1.0000 0.43959  0.27507  0.29000  Biso   1.000  N
  C1       1.0000 0.08742  0.34684  0.72638  Biso   1.000  C
  C2       1.0000 0.91258  0.84684  0.77362  Biso   1.000  C
  C3       1.0000 0.91258  0.65316  0.27362  Biso   1.000  C
  C4       1.0000 0.08742  0.15316  0.22638  Biso   1.000  C
  C5       1.0000 0.01687  0.34912  0.65458  Biso   1.000  C
  C6       1.0000 0.98313  0.84912  0.84542  Biso   1.000  C
  C7       1.0000 0.98313  0.65088  0.34542  Biso   1.000  C
  C8       1.0000 0.01687  0.15088  0.15458  Biso   1.000  C
  H9       1.0000 0.04420  0.36870  0.61550  Biso   1.000  H
  H10      1.0000 0.95580  0.86870  0.88450  Biso   1.000  H
  H11      1.0000 0.95580  0.63130  0.38450  Biso   1.000  H
  H12      1.0000 0.04420  0.13130  0.11550  Biso   1.000  H
  H13      1.0000 0.96560  0.37710  0.66180  Biso   1.000  H
  H14      1.0000 0.03440  0.87710  0.83820  Biso   1.000  H
  H15      1.0000 0.03440  0.62290  0.33820  Biso   1.000  H
  H16      1.0000 0.96560  0.12290  0.16180  Biso   1.000  H
  H17      1.0000 0.99600  0.30300  0.64090  Biso   1.000  H
  H18      1.0000 0.00400  0.80300  0.85910  Biso   1.000  H
  H19      1.0000 0.00400  0.69700  0.35910  Biso   1.000  H
  H20      1.0000 0.99600  0.19700  0.14090  Biso   1.000  H
  C9       1.0000 0.13633  0.41651  0.74120  Biso   1.000  C
  C10      1.0000 0.86367  0.91651  0.75880  Biso   1.000  C
  C11      1.0000 0.86367  0.58349  0.25880  Biso   1.000  C
  C12      1.0000 0.13633  0.08349  0.24120  Biso   1.000  C
  H21      1.0000 0.17720  0.41520  0.78890  Biso   1.000  H
  H22      1.0000 0.82280  0.91520  0.71110  Biso   1.000  H
  H23      1.0000 0.82280  0.58480  0.21110  Biso   1.000  H
  H24      1.0000 0.17720  0.08480  0.28890  Biso   1.000  H
  H25      1.0000 0.09160  0.45250  0.74140  Biso   1.000  H
  H26      1.0000 0.90840  0.95250  0.75860  Biso   1.000  H
  H27      1.0000 0.90840  0.54750  0.25860  Biso   1.000  H
  H28      1.0000 0.09160  0.04750  0.24140  Biso   1.000  H
  H29      1.0000 0.17090  0.42570  0.70260  Biso   1.000  H
  H30      1.0000 0.82910  0.92570  0.79740  Biso   1.000  H
  H31      1.0000 0.82910  0.57430  0.29740  Biso   1.000  H
  H32      1.0000 0.17090  0.07430  0.20260  Biso   1.000  H
  C13      1.0000 0.38321  0.05015  0.68563  Biso   1.000  C
  C14      1.0000 0.61679  0.55015  0.81437  Biso   1.000  C
  C15      1.0000 0.61679  0.94985  0.31437  Biso   1.000  C
  C16      1.0000 0.38321  0.44985  0.18563  Biso   1.000  C
  C17      1.0000 0.64772  0.16064  0.64484  Biso   1.000  C
  C18      1.0000 0.35228  0.66064  0.85516  Biso   1.000  C
  C19      1.0000 0.35228  0.83936  0.35516  Biso   1.000  C
  C20      1.0000 0.64772  0.33936  0.14484  Biso   1.000  C
  H33      1.0000 0.68840  0.13710  0.62060  Biso   1.000  H
  H34      1.0000 0.31160  0.63710  0.87940  Biso   1.000  H
  H35      1.0000 0.31160  0.86290  0.37940  Biso   1.000  H
  H36      1.0000 0.68840  0.36290  0.12060  Biso   1.000  H
  C21      1.0000 0.66211  0.15763  0.72223  Biso   1.000  C
  C22      1.0000 0.33789  0.65763  0.77777  Biso   1.000  C
  C23      1.0000 0.33789  0.84237  0.27777  Biso   1.000  C
  C24      1.0000 0.66211  0.34237  0.22223  Biso   1.000  C
  C25      1.0000 0.57514  0.19716  0.60123  Biso   1.000  C
  C26      1.0000 0.42486  0.69716  0.89877  Biso   1.000  C
  C27      1.0000 0.42486  0.80284  0.39877  Biso   1.000  C
  C28      1.0000 0.57514  0.30284  0.10123  Biso   1.000  C
  C29      1.0000 0.74753  0.11821  0.76280  Biso   1.000  C
  C30      1.0000 0.25247  0.61821  0.73720  Biso   1.000  C
  C31      1.0000 0.25247  0.88179  0.23720  Biso   1.000  C
  C32      1.0000 0.74753  0.38179  0.26280  Biso   1.000  C
  C33      1.0000 0.14058  0.97046  0.49884  Biso   1.000  C
  C34      1.0000 0.85942  0.47046  0.00116  Biso   1.000  C
  C35      1.0000 0.85942  0.02954  0.50116  Biso   1.000  C
  C36      1.0000 0.14058  0.52954  0.99884  Biso   1.000  C
  C37      1.0000 0.57680  0.20451  0.51772  Biso   1.000  C
  C38      1.0000 0.42320  0.70451  0.98228  Biso   1.000  C
  C39      1.0000 0.42320  0.79549  0.48228  Biso   1.000  C
  C40      1.0000 0.57680  0.29549  0.01772  Biso   1.000  C
  C41      1.0000 0.73730  0.39136  0.66840  Biso   1.000  C
  C42      1.0000 0.26270  0.89136  0.83160  Biso   1.000  C
  C43      1.0000 0.26270  0.60864  0.33160  Biso   1.000  C
  C44      1.0000 0.73730  0.10864  0.16840  Biso   1.000  C
  C45      1.0000 0.07328  0.07901  0.72945  Biso   1.000  C
  C46      1.0000 0.92672  0.57901  0.77055  Biso   1.000  C
  C47      1.0000 0.92672  0.92099  0.27055  Biso   1.000  C
  C48      1.0000 0.07328  0.42099  0.22945  Biso   1.000  C
  C49      1.0000 0.96764  0.28393  0.48169  Biso   1.000  C
  C50      1.0000 0.03236  0.78393  0.01831  Biso   1.000  C
  C51      1.0000 0.03236  0.71607  0.51831  Biso   1.000  C
  C52      1.0000 0.96764  0.21607  0.98169  Biso   1.000  C
  C53      1.0000 0.08538  0.37028  0.47747  Biso   1.000  C
  C54      1.0000 0.91462  0.87028  0.02253  Biso   1.000  C
  C55      1.0000 0.91462  0.62972  0.52253  Biso   1.000  C
  C56      1.0000 0.08538  0.12972  0.97747  Biso   1.000  C
  C57      1.0000 0.05171  0.31689  0.79475  Biso   1.000  C
  C58      1.0000 0.94829  0.81689  0.70525  Biso   1.000  C
  C59      1.0000 0.94829  0.68311  0.20525  Biso   1.000  C
  C60      1.0000 0.05171  0.18311  0.29475  Biso   1.000  C
  C61      1.0000 0.99342  0.34920  0.46128  Biso   1.000  C
  C62      1.0000 0.00658  0.84920  0.03872  Biso   1.000  C
  C63      1.0000 0.00658  0.65080  0.53872  Biso   1.000  C
  C64      1.0000 0.99342  0.15080  0.96128  Biso   1.000  C
  H37      1.0000 0.94890  0.37940  0.43650  Biso   1.000  H
  H38      1.0000 0.05110  0.87940  0.06350  Biso   1.000  H
  H39      1.0000 0.05110  0.62060  0.56350  Biso   1.000  H
  H40      1.0000 0.94890  0.12060  0.93650  Biso   1.000  H
  C65      1.0000 0.39219  0.15667  0.88393  Biso   1.000  C
  C66      1.0000 0.60781  0.65667  0.61607  Biso   1.000  C
  C67      1.0000 0.60781  0.84333  0.11607  Biso   1.000  C
  C68      1.0000 0.39219  0.34333  0.38393  Biso   1.000  C
  C69      1.0000 0.56881  0.41521  0.66403  Biso   1.000  C
  C70      1.0000 0.43119  0.91521  0.83597  Biso   1.000  C
  C71      1.0000 0.43119  0.58479  0.33597  Biso   1.000  C
  C72      1.0000 0.56881  0.08479  0.16403  Biso   1.000  C
  H41      1.0000 0.57550  0.45480  0.63640  Biso   1.000  H
  H42      1.0000 0.42450  0.95480  0.86360  Biso   1.000  H
  H43      1.0000 0.42450  0.54520  0.36360  Biso   1.000  H
  H44      1.0000 0.57550  0.04520  0.13640  Biso   1.000  H
  C73      1.0000 0.30343  0.18297  0.86749  Biso   1.000  C
  C74      1.0000 0.69657  0.68297  0.63251  Biso   1.000  C
  C75      1.0000 0.69657  0.81703  0.13251  Biso   1.000  C
  C76      1.0000 0.30343  0.31703  0.36749  Biso   1.000  C
  H45      1.0000 0.25890  0.16970  0.89450  Biso   1.000  H
  H46      1.0000 0.74110  0.66970  0.60550  Biso   1.000  H
  H47      1.0000 0.74110  0.83030  0.10550  Biso   1.000  H
  H48      1.0000 0.25890  0.33030  0.39450  Biso   1.000  H
  C77      1.0000 0.01969  0.37014  0.84461  Biso   1.000  C
  C78      1.0000 0.98031  0.87014  0.65539  Biso   1.000  C
  C79      1.0000 0.98031  0.62986  0.15539  Biso   1.000  C
  C80      1.0000 0.01969  0.12986  0.34461  Biso   1.000  C
  H49      1.0000 0.99960  0.34730  0.88560  Biso   1.000  H
  H50      1.0000 0.00040  0.84730  0.61440  Biso   1.000  H
  H51      1.0000 0.00040  0.65270  0.11440  Biso   1.000  H
  H52      1.0000 0.99960  0.15270  0.38560  Biso   1.000  H
  H53      1.0000 0.96960  0.39610  0.81640  Biso   1.000  H
  H54      1.0000 0.03040  0.89610  0.68360  Biso   1.000  H
  H55      1.0000 0.03040  0.60390  0.18360  Biso   1.000  H
  H56      1.0000 0.96960  0.10390  0.31640  Biso   1.000  H
  H57      1.0000 0.06950  0.40100  0.86370  Biso   1.000  H
  H58      1.0000 0.93050  0.90100  0.63630  Biso   1.000  H
  H59      1.0000 0.93050  0.59900  0.13630  Biso   1.000  H
  H60      1.0000 0.06950  0.09900  0.36370  Biso   1.000  H
  C81      1.0000 0.19559  0.26626  0.78799  Biso   1.000  C
  C82      1.0000 0.80441  0.76626  0.71201  Biso   1.000  C
  C83      1.0000 0.80441  0.73374  0.21201  Biso   1.000  C
  C84      1.0000 0.19559  0.23374  0.28799  Biso   1.000  C
  C85      1.0000 0.48509  0.40100  0.68396  Biso   1.000  C
  C86      1.0000 0.51491  0.90100  0.81604  Biso   1.000  C
  C87      1.0000 0.51491  0.59900  0.31604  Biso   1.000  C
  C88      1.0000 0.48509  0.09900  0.18396  Biso   1.000  C
  C89      1.0000 0.13473  0.03893  0.54028  Biso   1.000  C
  C90      1.0000 0.86527  0.53893  0.95972  Biso   1.000  C
  C91      1.0000 0.86527  0.96107  0.45972  Biso   1.000  C
  C92      1.0000 0.13473  0.46107  0.04028  Biso   1.000  C
  C93      1.0000 0.10558  0.09160  0.65529  Biso   1.000  C
  C94      1.0000 0.89442  0.59160  0.84471  Biso   1.000  C
  C95      1.0000 0.89442  0.90840  0.34471  Biso   1.000  C
  C96      1.0000 0.10558  0.40840  0.15529  Biso   1.000  C
  C97      1.0000 0.35380  0.24910  0.77115  Biso   1.000  C
  C98      1.0000 0.64620  0.74910  0.72885  Biso   1.000  C
  C99      1.0000 0.64620  0.75090  0.22885  Biso   1.000  C
  C100     1.0000 0.35380  0.25090  0.27115  Biso   1.000  C
  H61      1.0000 0.34020  0.27990  0.73120  Biso   1.000  H
  H62      1.0000 0.65980  0.77990  0.76880  Biso   1.000  H
  H63      1.0000 0.65980  0.72010  0.26880  Biso   1.000  H
  H64      1.0000 0.34020  0.22010  0.23120  Biso   1.000  H
  C101     1.0000 0.40740  0.45370  0.66888  Biso   1.000  C
  C102     1.0000 0.59260  0.95370  0.83112  Biso   1.000  C
  C103     1.0000 0.59260  0.54630  0.33112  Biso   1.000  C
  C104     1.0000 0.40740  0.04630  0.16888  Biso   1.000  C
  C105     1.0000 0.45916  0.17815  0.84578  Biso   1.000  C
  C106     1.0000 0.54084  0.67815  0.65422  Biso   1.000  C
  C107     1.0000 0.54084  0.82185  0.15422  Biso   1.000  C
  C108     1.0000 0.45916  0.32185  0.34578  Biso   1.000  C
  H65      1.0000 0.51840  0.16020  0.85860  Biso   1.000  H
  H66      1.0000 0.48160  0.66020  0.64140  Biso   1.000  H
  H67      1.0000 0.48160  0.83980  0.14140  Biso   1.000  H
  H68      1.0000 0.51840  0.33980  0.35860  Biso   1.000  H
  C109     1.0000 0.34235  0.10587  0.48196  Biso   1.000  C
  C110     1.0000 0.65765  0.60587  0.01804  Biso   1.000  C
  C111     1.0000 0.65765  0.89413  0.51804  Biso   1.000  C
  C112     1.0000 0.34235  0.39413  0.98196  Biso   1.000  C
  C113     1.0000 0.10790  0.44557  0.46089  Biso   1.000  C
  C114     1.0000 0.89210  0.94557  0.03911  Biso   1.000  C
  C115     1.0000 0.89210  0.55443  0.53911  Biso   1.000  C
  C116     1.0000 0.10790  0.05443  0.96089  Biso   1.000  C
  C117     1.0000 0.28386  0.23028  0.80858  Biso   1.000  C
  C118     1.0000 0.71614  0.73028  0.69142  Biso   1.000  C
  C119     1.0000 0.71614  0.76972  0.19142  Biso   1.000  C
  C120     1.0000 0.28386  0.26972  0.30858  Biso   1.000  C
  C121     1.0000 0.86467  0.26599  0.47020  Biso   1.000  C
  C122     1.0000 0.13533  0.76599  0.02980  Biso   1.000  C
  C123     1.0000 0.13533  0.73401  0.52980  Biso   1.000  C
  C124     1.0000 0.86467  0.23401  0.97020  Biso   1.000  C
  C125     1.0000 0.36939  0.06962  0.54933  Biso   1.000  C
  C126     1.0000 0.63061  0.56962  0.95067  Biso   1.000  C
  C127     1.0000 0.63061  0.93038  0.45067  Biso   1.000  C
  C128     1.0000 0.36939  0.43038  0.04933  Biso   1.000  C
  H69      1.0000 0.40370  0.02920  0.54960  Biso   1.000  H
  H70      1.0000 0.59630  0.52920  0.95040  Biso   1.000  H
  H71      1.0000 0.59630  0.97080  0.45040  Biso   1.000  H
  H72      1.0000 0.40370  0.47080  0.04960  Biso   1.000  H
  C129     1.0000 0.11964  0.03339  0.61352  Biso   1.000  C
  C130     1.0000 0.88036  0.53339  0.88648  Biso   1.000  C
  C131     1.0000 0.88036  0.96661  0.38648  Biso   1.000  C
  C132     1.0000 0.11964  0.46661  0.11352  Biso   1.000  C
  H73      1.0000 0.11890  0.98970  0.63500  Biso   1.000  H
  H74      1.0000 0.88110  0.48970  0.86500  Biso   1.000  H
  H75      1.0000 0.88110  0.01030  0.36500  Biso   1.000  H
  H76      1.0000 0.11890  0.51030  0.13500  Biso   1.000  H
  C133     1.0000 0.34619  0.09250  0.61569  Biso   1.000  C
  C134     1.0000 0.65381  0.59250  0.88431  Biso   1.000  C
  C135     1.0000 0.65381  0.90750  0.38431  Biso   1.000  C
  C136     1.0000 0.34619  0.40750  0.11569  Biso   1.000  C
  C137     1.0000 0.37571  0.07541  0.41385  Biso   1.000  C
  C138     1.0000 0.62429  0.57541  0.08615  Biso   1.000  C
  C139     1.0000 0.62429  0.92459  0.58615  Biso   1.000  C
  C140     1.0000 0.37571  0.42459  0.91385  Biso   1.000  C
  C141     1.0000 0.97998  0.26007  0.77365  Biso   1.000  C
  C142     1.0000 0.02002  0.76007  0.72635  Biso   1.000  C
  C143     1.0000 0.02002  0.73993  0.22635  Biso   1.000  C
  C144     1.0000 0.97998  0.23993  0.27365  Biso   1.000  C
  H77      1.0000 0.00000  0.22860  0.73910  Biso   1.000  H
  H78      1.0000 0.00000  0.72860  0.76090  Biso   1.000  H
  H79      1.0000 0.00000  0.77140  0.26090  Biso   1.000  H
  H80      1.0000 0.00000  0.27140  0.23910  Biso   1.000  H
  H81      1.0000 0.92240  0.28050  0.75070  Biso   1.000  H
  H82      1.0000 0.07760  0.78050  0.74930  Biso   1.000  H
  H83      1.0000 0.07760  0.71950  0.24930  Biso   1.000  H
  H84      1.0000 0.92240  0.21950  0.25070  Biso   1.000  H
  H85      1.0000 0.97230  0.23540  0.81790  Biso   1.000  H
  H86      1.0000 0.02770  0.73540  0.68210  Biso   1.000  H
  H87      1.0000 0.02770  0.76460  0.18210  Biso   1.000  H
  H88      1.0000 0.97230  0.26460  0.31790  Biso   1.000  H
  C145     1.0000 0.64329  0.37055  0.68517  Biso   1.000  C
  C146     1.0000 0.35671  0.87055  0.81483  Biso   1.000  C
  C147     1.0000 0.35671  0.62945  0.31483  Biso   1.000  C
  C148     1.0000 0.64329  0.12945  0.18517  Biso   1.000  C
