data_image0
_cell_length_a       27.622
_cell_length_b       10.446
_cell_length_c       23.476
_cell_angle_alpha    90
_cell_angle_beta     107.661
_cell_angle_gamma    90

_symmetry_space_group_name_H-M    "P 1"
_symmetry_int_tables_number       1

loop_
  _symmetry_equiv_pos_as_xyz
  'x, y, z'

loop_
  _atom_site_label
  _atom_site_occupancy
  _atom_site_fract_x
  _atom_site_fract_y
  _atom_site_fract_z
  _atom_site_thermal_displace_type
  _atom_site_B_iso_or_equiv
  _atom_site_type_symbol
  Gd1      1.0000 0.00000  0.98702  0.25000  Biso   1.000  Gd
  Gd2      1.0000 0.50000  0.48702  0.25000  Biso   1.000  Gd
  Gd3      1.0000 0.00000  0.01298  0.75000  Biso   1.000  Gd
  Gd4      1.0000 0.50000  0.51298  0.75000  Biso   1.000  Gd
  Cu1      1.0000 0.25000  0.25000  0.50000  Biso   1.000  Cu
  Cu2      1.0000 0.75000  0.25000  0.00000  Biso   1.000  Cu
  Cu3      1.0000 0.75000  0.75000  0.50000  Biso   1.000  Cu
  Cu4      1.0000 0.25000  0.75000  0.00000  Biso   1.000  Cu
  Br1      1.0000 0.09718  0.87683  0.48498  Biso   1.000  Br
  Br2      1.0000 0.90282  0.87683  0.01502  Biso   1.000  Br
  Br3      1.0000 0.59718  0.37683  0.48498  Biso   1.000  Br
  Br4      1.0000 0.40282  0.37683  0.01502  Biso   1.000  Br
  Br5      1.0000 0.90282  0.12317  0.51502  Biso   1.000  Br
  Br6      1.0000 0.09718  0.12317  0.98498  Biso   1.000  Br
  Br7      1.0000 0.40282  0.62317  0.51502  Biso   1.000  Br
  Br8      1.0000 0.59718  0.62317  0.98498  Biso   1.000  Br
  O1       1.0000 0.27129  0.10360  0.55544  Biso   1.000  O
  O2       1.0000 0.72871  0.10360  0.94456  Biso   1.000  O
  O3       1.0000 0.77129  0.60360  0.55544  Biso   1.000  O
  O4       1.0000 0.22871  0.60360  0.94456  Biso   1.000  O
  O5       1.0000 0.72871  0.89640  0.44456  Biso   1.000  O
  O6       1.0000 0.27129  0.89640  0.05544  Biso   1.000  O
  O7       1.0000 0.22871  0.39640  0.44456  Biso   1.000  O
  O8       1.0000 0.77129  0.39640  0.05544  Biso   1.000  O
  O9       1.0000 0.08016  0.90110  0.25982  Biso   1.000  O
  O10      1.0000 0.91984  0.90110  0.24018  Biso   1.000  O
  O11      1.0000 0.58016  0.40110  0.25982  Biso   1.000  O
  O12      1.0000 0.41984  0.40110  0.24018  Biso   1.000  O
  O13      1.0000 0.91984  0.09890  0.74018  Biso   1.000  O
  O14      1.0000 0.08016  0.09890  0.75982  Biso   1.000  O
  O15      1.0000 0.41984  0.59890  0.74018  Biso   1.000  O
  O16      1.0000 0.58016  0.59890  0.75982  Biso   1.000  O
  N1       1.0000 0.19597  0.13500  0.44910  Biso   1.000  N
  N2       1.0000 0.80403  0.13500  0.05090  Biso   1.000  N
  N3       1.0000 0.69597  0.63500  0.44910  Biso   1.000  N
  N4       1.0000 0.30403  0.63500  0.05090  Biso   1.000  N
  N5       1.0000 0.80403  0.86500  0.55090  Biso   1.000  N
  N6       1.0000 0.19597  0.86500  0.94910  Biso   1.000  N
  N7       1.0000 0.30403  0.36500  0.55090  Biso   1.000  N
  N8       1.0000 0.69597  0.36500  0.94910  Biso   1.000  N
  C1       1.0000 0.16140  0.01760  0.35920  Biso   1.000  C
  C2       1.0000 0.83860  0.01760  0.14080  Biso   1.000  C
  C3       1.0000 0.66140  0.51760  0.35920  Biso   1.000  C
  C4       1.0000 0.33860  0.51760  0.14080  Biso   1.000  C
  C5       1.0000 0.83860  0.98240  0.64080  Biso   1.000  C
  C6       1.0000 0.16140  0.98240  0.85920  Biso   1.000  C
  C7       1.0000 0.33860  0.48240  0.64080  Biso   1.000  C
  C8       1.0000 0.66140  0.48240  0.85920  Biso   1.000  C
  O17      1.0000 0.05692  0.15450  0.26348  Biso   1.000  O
  O18      1.0000 0.94308  0.15450  0.23652  Biso   1.000  O
  O19      1.0000 0.55692  0.65450  0.26348  Biso   1.000  O
  O20      1.0000 0.44308  0.65450  0.23652  Biso   1.000  O
  O21      1.0000 0.94308  0.84550  0.73652  Biso   1.000  O
  O22      1.0000 0.05692  0.84550  0.76348  Biso   1.000  O
  O23      1.0000 0.44308  0.34550  0.73652  Biso   1.000  O
  O24      1.0000 0.55692  0.34550  0.76348  Biso   1.000  O
  F1       1.0000 0.15168  0.29050  0.28411  Biso   1.000  F
  F2       1.0000 0.84832  0.29050  0.21589  Biso   1.000  F
  F3       1.0000 0.65168  0.79050  0.28411  Biso   1.000  F
  F4       1.0000 0.34832  0.79050  0.21589  Biso   1.000  F
  F5       1.0000 0.84832  0.70950  0.71589  Biso   1.000  F
  F6       1.0000 0.15168  0.70950  0.78411  Biso   1.000  F
  F7       1.0000 0.34832  0.20950  0.71589  Biso   1.000  F
  F8       1.0000 0.65168  0.20950  0.78411  Biso   1.000  F
  F9       1.0000 0.07348  0.61840  0.38871  Biso   1.000  F
  F10      1.0000 0.92652  0.61840  0.11129  Biso   1.000  F
  F11      1.0000 0.57348  0.11840  0.38871  Biso   1.000  F
  F12      1.0000 0.42652  0.11840  0.11129  Biso   1.000  F
  F13      1.0000 0.92652  0.38160  0.61129  Biso   1.000  F
  F14      1.0000 0.07348  0.38160  0.88871  Biso   1.000  F
  F15      1.0000 0.42652  0.88160  0.61129  Biso   1.000  F
  F16      1.0000 0.57348  0.88160  0.88871  Biso   1.000  F
  O25      1.0000 0.31196  0.18030  0.45615  Biso   1.000  O
  O26      1.0000 0.68804  0.18030  0.04385  Biso   1.000  O
  O27      1.0000 0.81196  0.68030  0.45615  Biso   1.000  O
  O28      1.0000 0.18804  0.68030  0.04385  Biso   1.000  O
  O29      1.0000 0.68804  0.81970  0.54385  Biso   1.000  O
  O30      1.0000 0.31196  0.81970  0.95615  Biso   1.000  O
  O31      1.0000 0.18804  0.31970  0.54385  Biso   1.000  O
  O32      1.0000 0.81196  0.31970  0.95615  Biso   1.000  O
  O33      1.0000 0.01359  0.81510  0.31336  Biso   1.000  O
  O34      1.0000 0.98641  0.81510  0.18664  Biso   1.000  O
  O35      1.0000 0.51359  0.31510  0.31336  Biso   1.000  O
  O36      1.0000 0.48641  0.31510  0.18664  Biso   1.000  O
  O37      1.0000 0.98641  0.18490  0.68664  Biso   1.000  O
  O38      1.0000 0.01359  0.18490  0.81336  Biso   1.000  O
  O39      1.0000 0.48641  0.68490  0.68664  Biso   1.000  O
  O40      1.0000 0.51359  0.68490  0.81336  Biso   1.000  O
  C9       1.0000 0.13440  0.97270  0.44440  Biso   1.000  C
  C10      1.0000 0.86560  0.97270  0.05560  Biso   1.000  C
  C11      1.0000 0.63440  0.47270  0.44440  Biso   1.000  C
  C12      1.0000 0.36560  0.47270  0.05560  Biso   1.000  C
  C13      1.0000 0.86560  0.02730  0.55560  Biso   1.000  C
  C14      1.0000 0.13440  0.02730  0.94440  Biso   1.000  C
  C15      1.0000 0.36560  0.52730  0.55560  Biso   1.000  C
  C16      1.0000 0.63440  0.52730  0.94440  Biso   1.000  C
  F17      1.0000 0.30110  0.77880  0.56740  Biso   1.000  F
  F18      1.0000 0.69890  0.77880  0.93260  Biso   1.000  F
  F19      1.0000 0.80110  0.27880  0.56740  Biso   1.000  F
  F20      1.0000 0.19890  0.27880  0.93260  Biso   1.000  F
  F21      1.0000 0.69890  0.22120  0.43260  Biso   1.000  F
  F22      1.0000 0.30110  0.22120  0.06740  Biso   1.000  F
  F23      1.0000 0.19890  0.72120  0.43260  Biso   1.000  F
  F24      1.0000 0.80110  0.72120  0.06740  Biso   1.000  F
  N9       1.0000 0.12454  0.93550  0.25547  Biso   1.000  N
  N10      1.0000 0.87546  0.93550  0.24453  Biso   1.000  N
  N11      1.0000 0.62454  0.43550  0.25547  Biso   1.000  N
  N12      1.0000 0.37546  0.43550  0.24453  Biso   1.000  N
  N13      1.0000 0.87546  0.06450  0.74453  Biso   1.000  N
  N14      1.0000 0.12454  0.06450  0.75547  Biso   1.000  N
  N15      1.0000 0.37546  0.56450  0.74453  Biso   1.000  N
  N16      1.0000 0.62454  0.56450  0.75547  Biso   1.000  N
  N17      1.0000 0.20304  0.00850  0.27750  Biso   1.000  N
  N18      1.0000 0.79696  0.00850  0.22250  Biso   1.000  N
  N19      1.0000 0.70304  0.50850  0.27750  Biso   1.000  N
  N20      1.0000 0.29696  0.50850  0.22250  Biso   1.000  N
  N21      1.0000 0.79696  0.99150  0.72250  Biso   1.000  N
  N22      1.0000 0.20304  0.99150  0.77750  Biso   1.000  N
  N23      1.0000 0.29696  0.49150  0.72250  Biso   1.000  N
  N24      1.0000 0.70304  0.49150  0.77750  Biso   1.000  N
  F25      1.0000 0.30580  0.90640  0.63871  Biso   1.000  F
  F26      1.0000 0.69420  0.90640  0.86129  Biso   1.000  F
  F27      1.0000 0.80580  0.40640  0.63871  Biso   1.000  F
  F28      1.0000 0.19420  0.40640  0.86129  Biso   1.000  F
  F29      1.0000 0.69420  0.09360  0.36129  Biso   1.000  F
  F30      1.0000 0.30580  0.09360  0.13871  Biso   1.000  F
  F31      1.0000 0.19420  0.59360  0.36129  Biso   1.000  F
  F32      1.0000 0.80580  0.59360  0.13871  Biso   1.000  F
  F33      1.0000 0.23368  0.87230  0.57440  Biso   1.000  F
  F34      1.0000 0.76632  0.87230  0.92560  Biso   1.000  F
  F35      1.0000 0.73368  0.37230  0.57440  Biso   1.000  F
  F36      1.0000 0.26632  0.37230  0.92560  Biso   1.000  F
  F37      1.0000 0.76632  0.12770  0.42560  Biso   1.000  F
  F38      1.0000 0.23368  0.12770  0.07440  Biso   1.000  F
  F39      1.0000 0.26632  0.62770  0.42560  Biso   1.000  F
  F40      1.0000 0.73368  0.62770  0.07440  Biso   1.000  F
  O41      1.0000 0.24560  0.05910  0.30570  Biso   1.000  O
  O42      1.0000 0.75440  0.05910  0.19430  Biso   1.000  O
  O43      1.0000 0.74560  0.55910  0.30570  Biso   1.000  O
  O44      1.0000 0.25440  0.55910  0.19430  Biso   1.000  O
  O45      1.0000 0.75440  0.94090  0.69430  Biso   1.000  O
  O46      1.0000 0.24560  0.94090  0.80570  Biso   1.000  O
  O47      1.0000 0.25440  0.44090  0.69430  Biso   1.000  O
  O48      1.0000 0.74560  0.44090  0.80570  Biso   1.000  O
  C17      1.0000 0.16640  0.06780  0.47460  Biso   1.000  C
  C18      1.0000 0.83360  0.06780  0.02540  Biso   1.000  C
  C19      1.0000 0.66640  0.56780  0.47460  Biso   1.000  C
  C20      1.0000 0.33360  0.56780  0.02540  Biso   1.000  C
  C21      1.0000 0.83360  0.93220  0.52540  Biso   1.000  C
  C22      1.0000 0.16640  0.93220  0.97460  Biso   1.000  C
  C23      1.0000 0.33360  0.43220  0.52540  Biso   1.000  C
  C24      1.0000 0.66640  0.43220  0.97460  Biso   1.000  C
  H1       1.0000 0.16770  0.08620  0.51380  Biso   1.000  H
  H2       1.0000 0.83230  0.08620  0.98620  Biso   1.000  H
  H3       1.0000 0.66770  0.58620  0.51380  Biso   1.000  H
  H4       1.0000 0.33230  0.58620  0.98620  Biso   1.000  H
  H5       1.0000 0.83230  0.91380  0.48620  Biso   1.000  H
  H6       1.0000 0.16770  0.91380  0.01380  Biso   1.000  H
  H7       1.0000 0.33230  0.41380  0.48620  Biso   1.000  H
  H8       1.0000 0.66770  0.41380  0.01380  Biso   1.000  H
  C25      1.0000 0.13100  0.94650  0.38540  Biso   1.000  C
  C26      1.0000 0.86900  0.94650  0.11460  Biso   1.000  C
  C27      1.0000 0.63100  0.44650  0.38540  Biso   1.000  C
  C28      1.0000 0.36900  0.44650  0.11460  Biso   1.000  C
  C29      1.0000 0.86900  0.05350  0.61460  Biso   1.000  C
  C30      1.0000 0.13100  0.05350  0.88540  Biso   1.000  C
  C31      1.0000 0.36900  0.55350  0.61460  Biso   1.000  C
  C32      1.0000 0.63100  0.55350  0.88540  Biso   1.000  C
  H9       1.0000 0.10910  0.88360  0.36400  Biso   1.000  H
  H10      1.0000 0.89090  0.88360  0.13600  Biso   1.000  H
  H11      1.0000 0.60910  0.38360  0.36400  Biso   1.000  H
  H12      1.0000 0.39090  0.38360  0.13600  Biso   1.000  H
  H13      1.0000 0.89090  0.11640  0.63600  Biso   1.000  H
  H14      1.0000 0.10910  0.11640  0.86400  Biso   1.000  H
  H15      1.0000 0.39090  0.61640  0.63600  Biso   1.000  H
  H16      1.0000 0.60910  0.61640  0.86400  Biso   1.000  H
  C33      1.0000 0.10020  0.90280  0.14580  Biso   1.000  C
  C34      1.0000 0.89980  0.90280  0.35420  Biso   1.000  C
  C35      1.0000 0.60020  0.40280  0.14580  Biso   1.000  C
  C36      1.0000 0.39980  0.40280  0.35420  Biso   1.000  C
  C37      1.0000 0.89980  0.09720  0.85420  Biso   1.000  C
  C38      1.0000 0.10020  0.09720  0.64580  Biso   1.000  C
  C39      1.0000 0.39980  0.59720  0.85420  Biso   1.000  C
  C40      1.0000 0.60020  0.59720  0.64580  Biso   1.000  C
  H17      1.0000 0.07270  0.84660  0.14590  Biso   1.000  H
  H18      1.0000 0.92730  0.84660  0.35410  Biso   1.000  H
  H19      1.0000 0.57270  0.34660  0.14590  Biso   1.000  H
  H20      1.0000 0.42730  0.34660  0.35410  Biso   1.000  H
  H21      1.0000 0.92730  0.15340  0.85410  Biso   1.000  H
  H22      1.0000 0.07270  0.15340  0.64590  Biso   1.000  H
  H23      1.0000 0.42730  0.65340  0.85410  Biso   1.000  H
  H24      1.0000 0.57270  0.65340  0.64590  Biso   1.000  H
  H25      1.0000 0.11270  0.88110  0.11310  Biso   1.000  H
  H26      1.0000 0.88730  0.88110  0.38690  Biso   1.000  H
  H27      1.0000 0.61270  0.38110  0.11310  Biso   1.000  H
  H28      1.0000 0.38730  0.38110  0.38690  Biso   1.000  H
  H29      1.0000 0.88730  0.11890  0.88690  Biso   1.000  H
  H30      1.0000 0.11270  0.11890  0.61310  Biso   1.000  H
  H31      1.0000 0.38730  0.61890  0.88690  Biso   1.000  H
  H32      1.0000 0.61270  0.61890  0.61310  Biso   1.000  H
  H33      1.0000 0.08830  0.98970  0.14150  Biso   1.000  H
  H34      1.0000 0.91170  0.98970  0.35850  Biso   1.000  H
  H35      1.0000 0.58830  0.48970  0.14150  Biso   1.000  H
  H36      1.0000 0.41170  0.48970  0.35850  Biso   1.000  H
  H37      1.0000 0.91170  0.01030  0.85850  Biso   1.000  H
  H38      1.0000 0.08830  0.01030  0.64150  Biso   1.000  H
  H39      1.0000 0.41170  0.51030  0.85850  Biso   1.000  H
  H40      1.0000 0.58830  0.51030  0.64150  Biso   1.000  H
  C41      1.0000 0.14260  0.88870  0.20430  Biso   1.000  C
  C42      1.0000 0.85740  0.88870  0.29570  Biso   1.000  C
  C43      1.0000 0.64260  0.38870  0.20430  Biso   1.000  C
  C44      1.0000 0.35740  0.38870  0.29570  Biso   1.000  C
  C45      1.0000 0.85740  0.11130  0.79570  Biso   1.000  C
  C46      1.0000 0.14260  0.11130  0.70430  Biso   1.000  C
  C47      1.0000 0.35740  0.61130  0.79570  Biso   1.000  C
  C48      1.0000 0.64260  0.61130  0.70430  Biso   1.000  C
  F41      1.0000 0.00119  0.66920  0.40020  Biso   1.000  F
  F42      1.0000 0.99881  0.66920  0.09980  Biso   1.000  F
  F43      1.0000 0.50119  0.16920  0.40020  Biso   1.000  F
  F44      1.0000 0.49881  0.16920  0.09980  Biso   1.000  F
  F45      1.0000 0.99881  0.33080  0.59980  Biso   1.000  F
  F46      1.0000 0.00119  0.33080  0.90020  Biso   1.000  F
  F47      1.0000 0.49881  0.83080  0.59980  Biso   1.000  F
  F48      1.0000 0.50119  0.83080  0.90020  Biso   1.000  F
  F49      1.0000 0.38810  0.12610  0.41290  Biso   1.000  F
  F50      1.0000 0.61190  0.12610  0.08710  Biso   1.000  F
  F51      1.0000 0.88810  0.62610  0.41290  Biso   1.000  F
  F52      1.0000 0.11190  0.62610  0.08710  Biso   1.000  F
  F53      1.0000 0.61190  0.87390  0.58710  Biso   1.000  F
  F54      1.0000 0.38810  0.87390  0.91290  Biso   1.000  F
  F55      1.0000 0.11190  0.37390  0.58710  Biso   1.000  F
  F56      1.0000 0.88810  0.37390  0.91290  Biso   1.000  F
  C49      1.0000 0.31900  0.97830  0.50500  Biso   1.000  C
  C50      1.0000 0.68100  0.97830  0.99500  Biso   1.000  C
  C51      1.0000 0.81900  0.47830  0.50500  Biso   1.000  C
  C52      1.0000 0.18100  0.47830  0.99500  Biso   1.000  C
  C53      1.0000 0.68100  0.02170  0.49500  Biso   1.000  C
  C54      1.0000 0.31900  0.02170  0.00500  Biso   1.000  C
  C55      1.0000 0.18100  0.52170  0.49500  Biso   1.000  C
  C56      1.0000 0.81900  0.52170  0.00500  Biso   1.000  C
  H41      1.0000 0.33130  0.89580  0.50370  Biso   1.000  H
  H42      1.0000 0.66870  0.89580  0.99630  Biso   1.000  H
  H43      1.0000 0.83130  0.39580  0.50370  Biso   1.000  H
  H44      1.0000 0.16870  0.39580  0.99630  Biso   1.000  H
  H45      1.0000 0.66870  0.10420  0.49630  Biso   1.000  H
  H46      1.0000 0.33130  0.10420  0.00370  Biso   1.000  H
  H47      1.0000 0.16870  0.60420  0.49630  Biso   1.000  H
  H48      1.0000 0.83130  0.60420  0.00370  Biso   1.000  H
  F57      1.0000 0.40950  0.97370  0.47170  Biso   1.000  F
  F58      1.0000 0.59050  0.97370  0.02830  Biso   1.000  F
  F59      1.0000 0.90950  0.47370  0.47170  Biso   1.000  F
  F60      1.0000 0.09050  0.47370  0.02830  Biso   1.000  F
  F61      1.0000 0.59050  0.02630  0.52830  Biso   1.000  F
  F62      1.0000 0.40950  0.02630  0.97170  Biso   1.000  F
  F63      1.0000 0.09050  0.52630  0.52830  Biso   1.000  F
  F64      1.0000 0.90950  0.52630  0.97170  Biso   1.000  F
  C57      1.0000 0.16196  0.98970  0.29850  Biso   1.000  C
  C58      1.0000 0.83804  0.98970  0.20150  Biso   1.000  C
  C59      1.0000 0.66196  0.48970  0.29850  Biso   1.000  C
  C60      1.0000 0.33804  0.48970  0.20150  Biso   1.000  C
  C61      1.0000 0.83804  0.01030  0.70150  Biso   1.000  C
  C62      1.0000 0.16196  0.01030  0.79850  Biso   1.000  C
  C63      1.0000 0.33804  0.51030  0.70150  Biso   1.000  C
  C64      1.0000 0.66196  0.51030  0.79850  Biso   1.000  C
  C65      1.0000 0.19349  0.11160  0.39230  Biso   1.000  C
  C66      1.0000 0.80651  0.11160  0.10770  Biso   1.000  C
  C67      1.0000 0.69349  0.61160  0.39230  Biso   1.000  C
  C68      1.0000 0.30651  0.61160  0.10770  Biso   1.000  C
  C69      1.0000 0.80651  0.88840  0.60770  Biso   1.000  C
  C70      1.0000 0.19349  0.88840  0.89230  Biso   1.000  C
  C71      1.0000 0.30651  0.38840  0.60770  Biso   1.000  C
  C72      1.0000 0.69349  0.38840  0.89230  Biso   1.000  C
  H49      1.0000 0.21360  0.15910  0.37460  Biso   1.000  H
  H50      1.0000 0.78640  0.15910  0.12540  Biso   1.000  H
  H51      1.0000 0.71360  0.65910  0.37460  Biso   1.000  H
  H52      1.0000 0.28640  0.65910  0.12540  Biso   1.000  H
  H53      1.0000 0.78640  0.84090  0.62540  Biso   1.000  H
  H54      1.0000 0.21360  0.84090  0.87460  Biso   1.000  H
  H55      1.0000 0.28640  0.34090  0.62540  Biso   1.000  H
  H56      1.0000 0.71360  0.34090  0.87460  Biso   1.000  H
  F65      1.0000 0.00870  0.49950  0.35120  Biso   1.000  F
  F66      1.0000 0.99130  0.49950  0.14880  Biso   1.000  F
  F67      1.0000 0.50870  0.99950  0.35120  Biso   1.000  F
  F68      1.0000 0.49130  0.99950  0.14880  Biso   1.000  F
  F69      1.0000 0.99130  0.50050  0.64880  Biso   1.000  F
  F70      1.0000 0.00870  0.50050  0.85120  Biso   1.000  F
  F71      1.0000 0.49130  0.00050  0.64880  Biso   1.000  F
  F72      1.0000 0.50870  0.00050  0.85120  Biso   1.000  F
  C73      1.0000 0.01080  0.69850  0.30410  Biso   1.000  C
  C74      1.0000 0.98920  0.69850  0.19590  Biso   1.000  C
  C75      1.0000 0.51080  0.19850  0.30410  Biso   1.000  C
  C76      1.0000 0.48920  0.19850  0.19590  Biso   1.000  C
  C77      1.0000 0.98920  0.30150  0.69590  Biso   1.000  C
  C78      1.0000 0.01080  0.30150  0.80410  Biso   1.000  C
  C79      1.0000 0.48920  0.80150  0.69590  Biso   1.000  C
  C80      1.0000 0.51080  0.80150  0.80410  Biso   1.000  C
  C81      1.0000 0.28340  0.88830  0.58130  Biso   1.000  C
  C82      1.0000 0.71660  0.88830  0.91870  Biso   1.000  C
  C83      1.0000 0.78340  0.38830  0.58130  Biso   1.000  C
  C84      1.0000 0.21660  0.38830  0.91870  Biso   1.000  C
  C85      1.0000 0.71660  0.11170  0.41870  Biso   1.000  C
  C86      1.0000 0.28340  0.11170  0.08130  Biso   1.000  C
  C87      1.0000 0.21660  0.61170  0.41870  Biso   1.000  C
  C88      1.0000 0.78340  0.61170  0.08130  Biso   1.000  C
  C89      1.0000 0.32950  0.07170  0.46660  Biso   1.000  C
  C90      1.0000 0.67050  0.07170  0.03340  Biso   1.000  C
  C91      1.0000 0.82950  0.57170  0.46660  Biso   1.000  C
  C92      1.0000 0.17050  0.57170  0.03340  Biso   1.000  C
  C93      1.0000 0.67050  0.92830  0.53340  Biso   1.000  C
  C94      1.0000 0.32950  0.92830  0.96660  Biso   1.000  C
  C95      1.0000 0.17050  0.42830  0.53340  Biso   1.000  C
  C96      1.0000 0.82950  0.42830  0.96660  Biso   1.000  C
  C97      1.0000 0.29170  0.00210  0.54410  Biso   1.000  C
  C98      1.0000 0.70830  0.00210  0.95590  Biso   1.000  C
  C99      1.0000 0.79170  0.50210  0.54410  Biso   1.000  C
  C100     1.0000 0.20830  0.50210  0.95590  Biso   1.000  C
  C101     1.0000 0.70830  0.99790  0.45590  Biso   1.000  C
  C102     1.0000 0.29170  0.99790  0.04410  Biso   1.000  C
  C103     1.0000 0.20830  0.49790  0.45590  Biso   1.000  C
  C104     1.0000 0.79170  0.49790  0.04410  Biso   1.000  C
  C105     1.0000 0.10590  0.33990  0.27790  Biso   1.000  C
  C106     1.0000 0.89410  0.33990  0.22210  Biso   1.000  C
  C107     1.0000 0.60590  0.83990  0.27790  Biso   1.000  C
  C108     1.0000 0.39410  0.83990  0.22210  Biso   1.000  C
  C109     1.0000 0.89410  0.66010  0.72210  Biso   1.000  C
  C110     1.0000 0.10590  0.66010  0.77790  Biso   1.000  C
  C111     1.0000 0.39410  0.16010  0.72210  Biso   1.000  C
  C112     1.0000 0.60590  0.16010  0.77790  Biso   1.000  C
  C113     1.0000 0.02310  0.61930  0.36150  Biso   1.000  C
  C114     1.0000 0.97690  0.61930  0.13850  Biso   1.000  C
  C115     1.0000 0.52310  0.11930  0.36150  Biso   1.000  C
  C116     1.0000 0.47690  0.11930  0.13850  Biso   1.000  C
  C117     1.0000 0.97690  0.38070  0.63850  Biso   1.000  C
  C118     1.0000 0.02310  0.38070  0.86150  Biso   1.000  C
  C119     1.0000 0.47690  0.88070  0.63850  Biso   1.000  C
  C120     1.0000 0.52310  0.88070  0.86150  Biso   1.000  C
  C121     1.0000 0.17750  0.10270  0.17910  Biso   1.000  C
  C122     1.0000 0.82250  0.10270  0.32090  Biso   1.000  C
  C123     1.0000 0.67750  0.60270  0.17910  Biso   1.000  C
  C124     1.0000 0.32250  0.60270  0.32090  Biso   1.000  C
  C125     1.0000 0.82250  0.89730  0.82090  Biso   1.000  C
  C126     1.0000 0.17750  0.89730  0.67910  Biso   1.000  C
  C127     1.0000 0.32250  0.39730  0.82090  Biso   1.000  C
  C128     1.0000 0.67750  0.39730  0.67910  Biso   1.000  C
  H57      1.0000 0.14760  0.13910  0.18550  Biso   1.000  H
  H58      1.0000 0.85240  0.13910  0.31450  Biso   1.000  H
  H59      1.0000 0.64760  0.63910  0.18550  Biso   1.000  H
  H60      1.0000 0.35240  0.63910  0.31450  Biso   1.000  H
  H61      1.0000 0.85240  0.86090  0.81450  Biso   1.000  H
  H62      1.0000 0.14760  0.86090  0.68550  Biso   1.000  H
  H63      1.0000 0.35240  0.36090  0.81450  Biso   1.000  H
  H64      1.0000 0.64760  0.36090  0.68550  Biso   1.000  H
  H65      1.0000 0.17140  0.08830  0.13710  Biso   1.000  H
  H66      1.0000 0.82860  0.08830  0.36290  Biso   1.000  H
  H67      1.0000 0.67140  0.58830  0.13710  Biso   1.000  H
  H68      1.0000 0.32860  0.58830  0.36290  Biso   1.000  H
  H69      1.0000 0.82860  0.91170  0.86290  Biso   1.000  H
  H70      1.0000 0.17140  0.91170  0.63710  Biso   1.000  H
  H71      1.0000 0.32860  0.41170  0.86290  Biso   1.000  H
  H72      1.0000 0.67140  0.41170  0.63710  Biso   1.000  H
  H73      1.0000 0.20550  0.16070  0.19360  Biso   1.000  H
  H74      1.0000 0.79450  0.16070  0.30640  Biso   1.000  H
  H75      1.0000 0.70550  0.66070  0.19360  Biso   1.000  H
  H76      1.0000 0.29450  0.66070  0.30640  Biso   1.000  H
  H77      1.0000 0.79450  0.83930  0.80640  Biso   1.000  H
  H78      1.0000 0.20550  0.83930  0.69360  Biso   1.000  H
  H79      1.0000 0.29450  0.33930  0.80640  Biso   1.000  H
  H80      1.0000 0.70550  0.33930  0.69360  Biso   1.000  H
  C129     1.0000 0.15670  0.74880  0.21910  Biso   1.000  C
  C130     1.0000 0.84330  0.74880  0.28090  Biso   1.000  C
  C131     1.0000 0.65670  0.24880  0.21910  Biso   1.000  C
  C132     1.0000 0.34330  0.24880  0.28090  Biso   1.000  C
  C133     1.0000 0.84330  0.25120  0.78090  Biso   1.000  C
  C134     1.0000 0.15670  0.25120  0.71910  Biso   1.000  C
  C135     1.0000 0.34330  0.75120  0.78090  Biso   1.000  C
  C136     1.0000 0.65670  0.75120  0.71910  Biso   1.000  C
  H81      1.0000 0.18090  0.74310  0.25820  Biso   1.000  H
  H82      1.0000 0.81910  0.74310  0.24180  Biso   1.000  H
  H83      1.0000 0.68090  0.24310  0.25820  Biso   1.000  H
  H84      1.0000 0.31910  0.24310  0.24180  Biso   1.000  H
  H85      1.0000 0.81910  0.25690  0.74180  Biso   1.000  H
  H86      1.0000 0.18090  0.25690  0.75820  Biso   1.000  H
  H87      1.0000 0.31910  0.75690  0.74180  Biso   1.000  H
  H88      1.0000 0.68090  0.75690  0.75820  Biso   1.000  H
  H89      1.0000 0.17120  0.71400  0.19020  Biso   1.000  H
  H90      1.0000 0.82880  0.71400  0.30980  Biso   1.000  H
  H91      1.0000 0.67120  0.21400  0.19020  Biso   1.000  H
  H92      1.0000 0.32880  0.21400  0.30980  Biso   1.000  H
  H93      1.0000 0.82880  0.28600  0.80980  Biso   1.000  H
  H94      1.0000 0.17120  0.28600  0.69020  Biso   1.000  H
  H95      1.0000 0.32880  0.78600  0.80980  Biso   1.000  H
  H96      1.0000 0.67120  0.78600  0.69020  Biso   1.000  H
  H97      1.0000 0.12670  0.70130  0.21830  Biso   1.000  H
  H98      1.0000 0.87330  0.70130  0.28170  Biso   1.000  H
  H99      1.0000 0.62670  0.20130  0.21830  Biso   1.000  H
  H100     1.0000 0.37330  0.20130  0.28170  Biso   1.000  H
  H101     1.0000 0.87330  0.29870  0.78170  Biso   1.000  H
  H102     1.0000 0.12670  0.29870  0.71830  Biso   1.000  H
  H103     1.0000 0.37330  0.79870  0.78170  Biso   1.000  H
  H104     1.0000 0.62670  0.79870  0.71830  Biso   1.000  H
  C137     1.0000 0.23620  0.91330  0.19990  Biso   1.000  C
  C138     1.0000 0.76380  0.91330  0.30010  Biso   1.000  C
  C139     1.0000 0.73620  0.41330  0.19990  Biso   1.000  C
  C140     1.0000 0.26380  0.41330  0.30010  Biso   1.000  C
  C141     1.0000 0.76380  0.08670  0.80010  Biso   1.000  C
  C142     1.0000 0.23620  0.08670  0.69990  Biso   1.000  C
  C143     1.0000 0.26380  0.58670  0.80010  Biso   1.000  C
  C144     1.0000 0.73620  0.58670  0.69990  Biso   1.000  C
  H105     1.0000 0.26440  0.97140  0.21050  Biso   1.000  H
  H106     1.0000 0.73560  0.97140  0.28950  Biso   1.000  H
  H107     1.0000 0.76440  0.47140  0.21050  Biso   1.000  H
  H108     1.0000 0.23560  0.47140  0.28950  Biso   1.000  H
  H109     1.0000 0.73560  0.02860  0.78950  Biso   1.000  H
  H110     1.0000 0.26440  0.02860  0.71050  Biso   1.000  H
  H111     1.0000 0.23560  0.52860  0.78950  Biso   1.000  H
  H112     1.0000 0.76440  0.52860  0.71050  Biso   1.000  H
  H113     1.0000 0.22780  0.89230  0.15820  Biso   1.000  H
  H114     1.0000 0.77220  0.89230  0.34180  Biso   1.000  H
  H115     1.0000 0.72780  0.39230  0.15820  Biso   1.000  H
  H116     1.0000 0.27220  0.39230  0.34180  Biso   1.000  H
  H117     1.0000 0.77220  0.10770  0.84180  Biso   1.000  H
  H118     1.0000 0.22780  0.10770  0.65820  Biso   1.000  H
  H119     1.0000 0.27220  0.60770  0.84180  Biso   1.000  H
  H120     1.0000 0.72780  0.60770  0.65820  Biso   1.000  H
  H121     1.0000 0.24500  0.83660  0.22330  Biso   1.000  H
  H122     1.0000 0.75500  0.83660  0.27670  Biso   1.000  H
  H123     1.0000 0.74500  0.33660  0.22330  Biso   1.000  H
  H124     1.0000 0.25500  0.33660  0.27670  Biso   1.000  H
  H125     1.0000 0.75500  0.16340  0.77670  Biso   1.000  H
  H126     1.0000 0.24500  0.16340  0.72330  Biso   1.000  H
  H127     1.0000 0.25500  0.66340  0.77670  Biso   1.000  H
  H128     1.0000 0.74500  0.66340  0.72330  Biso   1.000  H
  C145     1.0000 0.36930  0.02970  0.43520  Biso   1.000  C
  C146     1.0000 0.63070  0.02970  0.06480  Biso   1.000  C
  C147     1.0000 0.86930  0.52970  0.43520  Biso   1.000  C
  C148     1.0000 0.13070  0.52970  0.06480  Biso   1.000  C
  C149     1.0000 0.63070  0.97030  0.56480  Biso   1.000  C
  C150     1.0000 0.36930  0.97030  0.93520  Biso   1.000  C
  C151     1.0000 0.13070  0.47030  0.56480  Biso   1.000  C
  C152     1.0000 0.86930  0.47030  0.93520  Biso   1.000  C
  F73      1.0000 0.08930  0.39390  0.23140  Biso   1.000  F
  F74      1.0000 0.91070  0.39390  0.26860  Biso   1.000  F
  F75      1.0000 0.58930  0.89390  0.23140  Biso   1.000  F
  F76      1.0000 0.41070  0.89390  0.26860  Biso   1.000  F
  F77      1.0000 0.91070  0.60610  0.76860  Biso   1.000  F
  F78      1.0000 0.08930  0.60610  0.73140  Biso   1.000  F
  F79      1.0000 0.41070  0.10610  0.76860  Biso   1.000  F
  F80      1.0000 0.58930  0.10610  0.73140  Biso   1.000  F
  F81      1.0000 0.34920  0.95080  0.39250  Biso   1.000  F
  F82      1.0000 0.65080  0.95080  0.10750  Biso   1.000  F
  F83      1.0000 0.84920  0.45080  0.39250  Biso   1.000  F
  F84      1.0000 0.15080  0.45080  0.10750  Biso   1.000  F
  F85      1.0000 0.65080  0.04920  0.60750  Biso   1.000  F
  F86      1.0000 0.34920  0.04920  0.89250  Biso   1.000  F
  F87      1.0000 0.15080  0.54920  0.60750  Biso   1.000  F
  F88      1.0000 0.84920  0.54920  0.89250  Biso   1.000  F
  F89      1.0000 0.11030  0.42030  0.31890  Biso   1.000  F
  F90      1.0000 0.88970  0.42030  0.18110  Biso   1.000  F
  F91      1.0000 0.61030  0.92030  0.31890  Biso   1.000  F
  F92      1.0000 0.38970  0.92030  0.18110  Biso   1.000  F
  F93      1.0000 0.88970  0.57970  0.68110  Biso   1.000  F
  F94      1.0000 0.11030  0.57970  0.81890  Biso   1.000  F
  F95      1.0000 0.38970  0.07970  0.68110  Biso   1.000  F
  F96      1.0000 0.61030  0.07970  0.81890  Biso   1.000  F
  O49      1.0000 0.00808  0.06750  0.34376  Biso   1.000  O
  O50      1.0000 0.99192  0.06750  0.15624  Biso   1.000  O
  O51      1.0000 0.50808  0.56750  0.34376  Biso   1.000  O
  O52      1.0000 0.49192  0.56750  0.15624  Biso   1.000  O
  O53      1.0000 0.99192  0.93250  0.65624  Biso   1.000  O
  O54      1.0000 0.00808  0.93250  0.84376  Biso   1.000  O
  O55      1.0000 0.49192  0.43250  0.65624  Biso   1.000  O
  O56      1.0000 0.50808  0.43250  0.84376  Biso   1.000  O
  C153     1.0000 0.07070  0.23770  0.29920  Biso   1.000  C
  C154     1.0000 0.92930  0.23770  0.20080  Biso   1.000  C
  C155     1.0000 0.57070  0.73770  0.29920  Biso   1.000  C
  C156     1.0000 0.42930  0.73770  0.20080  Biso   1.000  C
  C157     1.0000 0.92930  0.76230  0.70080  Biso   1.000  C
  C158     1.0000 0.07070  0.76230  0.79920  Biso   1.000  C
  C159     1.0000 0.42930  0.26230  0.70080  Biso   1.000  C
  C160     1.0000 0.57070  0.26230  0.79920  Biso   1.000  C
  C161     1.0000 0.02760  0.16090  0.37000  Biso   1.000  C
  C162     1.0000 0.97240  0.16090  0.13000  Biso   1.000  C
  C163     1.0000 0.52760  0.66090  0.37000  Biso   1.000  C
  C164     1.0000 0.47240  0.66090  0.13000  Biso   1.000  C
  C165     1.0000 0.97240  0.83910  0.63000  Biso   1.000  C
  C166     1.0000 0.02760  0.83910  0.87000  Biso   1.000  C
  C167     1.0000 0.47240  0.33910  0.63000  Biso   1.000  C
  C168     1.0000 0.52760  0.33910  0.87000  Biso   1.000  C
  C169     1.0000 0.05870  0.25100  0.35390  Biso   1.000  C
  C170     1.0000 0.94130  0.25100  0.14610  Biso   1.000  C
  C171     1.0000 0.55870  0.75100  0.35390  Biso   1.000  C
  C172     1.0000 0.44130  0.75100  0.14610  Biso   1.000  C
  C173     1.0000 0.94130  0.74900  0.64610  Biso   1.000  C
  C174     1.0000 0.05870  0.74900  0.85390  Biso   1.000  C
  C175     1.0000 0.44130  0.24900  0.64610  Biso   1.000  C
  C176     1.0000 0.55870  0.24900  0.85390  Biso   1.000  C
  H129     1.0000 0.07150  0.32000  0.37900  Biso   1.000  H
  H130     1.0000 0.92850  0.32000  0.12100  Biso   1.000  H
  H131     1.0000 0.57150  0.82000  0.37900  Biso   1.000  H
  H132     1.0000 0.42850  0.82000  0.12100  Biso   1.000  H
  H133     1.0000 0.92850  0.68000  0.62100  Biso   1.000  H
  H134     1.0000 0.07150  0.68000  0.87900  Biso   1.000  H
  H135     1.0000 0.42850  0.18000  0.62100  Biso   1.000  H
  H136     1.0000 0.57150  0.18000  0.87900  Biso   1.000  H
  C177     1.0000 0.18990  0.97690  0.21220  Biso   1.000  C
  C178     1.0000 0.81010  0.97690  0.28780  Biso   1.000  C
  C179     1.0000 0.68990  0.47690  0.21220  Biso   1.000  C
  C180     1.0000 0.31010  0.47690  0.28780  Biso   1.000  C
  C181     1.0000 0.81010  0.02310  0.78780  Biso   1.000  C
  C182     1.0000 0.18990  0.02310  0.71220  Biso   1.000  C
  C183     1.0000 0.31010  0.52310  0.78780  Biso   1.000  C
  C184     1.0000 0.68990  0.52310  0.71220  Biso   1.000  C
  F97      1.0000 0.00080  0.09510  0.45360  Biso   1.000  F
  F98      1.0000 0.99920  0.09510  0.04640  Biso   1.000  F
  F99      1.0000 0.50080  0.59510  0.45360  Biso   1.000  F
  F100     1.0000 0.49920  0.59510  0.04640  Biso   1.000  F
  F101     1.0000 0.99920  0.90490  0.54640  Biso   1.000  F
  F102     1.0000 0.00080  0.90490  0.95360  Biso   1.000  F
  F103     1.0000 0.49920  0.40490  0.54640  Biso   1.000  F
  F104     1.0000 0.50080  0.40490  0.95360  Biso   1.000  F
  C185     1.0000 0.01250  0.19610  0.42720  Biso   1.000  C
  C186     1.0000 0.98750  0.19610  0.07280  Biso   1.000  C
  C187     1.0000 0.51250  0.69610  0.42720  Biso   1.000  C
  C188     1.0000 0.48750  0.69610  0.07280  Biso   1.000  C
  C189     1.0000 0.98750  0.80390  0.57280  Biso   1.000  C
  C190     1.0000 0.01250  0.80390  0.92720  Biso   1.000  C
  C191     1.0000 0.48750  0.30390  0.57280  Biso   1.000  C
  C192     1.0000 0.51250  0.30390  0.92720  Biso   1.000  C
  F105     1.0000 0.98250  0.28340  0.42800  Biso   1.000  F
  F106     1.0000 0.01750  0.28340  0.07200  Biso   1.000  F
  F107     1.0000 0.48250  0.78340  0.42800  Biso   1.000  F
  F108     1.0000 0.51750  0.78340  0.07200  Biso   1.000  F
  F109     1.0000 0.01750  0.71660  0.57200  Biso   1.000  F
  F110     1.0000 0.98250  0.71660  0.92800  Biso   1.000  F
  F111     1.0000 0.51750  0.21660  0.57200  Biso   1.000  F
  F112     1.0000 0.48250  0.21660  0.92800  Biso   1.000  F
  F113     1.0000 0.05620  0.23010  0.45750  Biso   1.000  F
  F114     1.0000 0.94380  0.23010  0.04250  Biso   1.000  F
  F115     1.0000 0.55620  0.73010  0.45750  Biso   1.000  F
  F116     1.0000 0.44380  0.73010  0.04250  Biso   1.000  F
  F117     1.0000 0.94380  0.76990  0.54250  Biso   1.000  F
  F118     1.0000 0.05620  0.76990  0.95750  Biso   1.000  F
  F119     1.0000 0.44380  0.26990  0.54250  Biso   1.000  F
  F120     1.0000 0.55620  0.26990  0.95750  Biso   1.000  F
  C193     1.0000 0.00000  0.63340  0.25000  Biso   1.000  C
  C194     1.0000 0.50000  0.13340  0.25000  Biso   1.000  C
  C195     1.0000 0.00000  0.36660  0.75000  Biso   1.000  C
  C196     1.0000 0.50000  0.86660  0.75000  Biso   1.000  C
  H137     1.0000 0.00000  0.54440  0.25000  Biso   1.000  H
  H138     1.0000 0.50000  0.04440  0.25000  Biso   1.000  H
  H139     1.0000 0.00000  0.45560  0.75000  Biso   1.000  H
  H140     1.0000 0.50000  0.95560  0.75000  Biso   1.000  H
  C197     1.0000 0.98900  0.17550  0.35960  Biso   1.000  C
  C198     1.0000 0.01100  0.17550  0.14040  Biso   1.000  C
  C199     1.0000 0.48900  0.67550  0.35960  Biso   1.000  C
  C200     1.0000 0.51100  0.67550  0.14040  Biso   1.000  C
  C201     1.0000 0.01100  0.82450  0.64040  Biso   1.000  C
  C202     1.0000 0.98900  0.82450  0.85960  Biso   1.000  C
  C203     1.0000 0.51100  0.32450  0.64040  Biso   1.000  C
  C204     1.0000 0.48900  0.32450  0.85960  Biso   1.000  C
