data_image0
_cell_length_a       27.231
_cell_length_b       10.521
_cell_length_c       23.519
_cell_angle_alpha    90
_cell_angle_beta     107.426
_cell_angle_gamma    90

_symmetry_space_group_name_H-M    "P 1"
_symmetry_int_tables_number       1

loop_
  _symmetry_equiv_pos_as_xyz
  'x, y, z'

loop_
  _atom_site_label
  _atom_site_occupancy
  _atom_site_fract_x
  _atom_site_fract_y
  _atom_site_fract_z
  _atom_site_thermal_displace_type
  _atom_site_B_iso_or_equiv
  _atom_site_type_symbol
  Tb1      1.0000 0.00000  0.98702  0.25000  Biso   1.000  Tb
  Tb2      1.0000 0.50000  0.48702  0.25000  Biso   1.000  Tb
  Tb3      1.0000 0.00000  0.01298  0.75000  Biso   1.000  Tb
  Tb4      1.0000 0.50000  0.51298  0.75000  Biso   1.000  Tb
  Cu1      1.0000 0.25000  0.25000  0.50000  Biso   1.000  Cu
  Cu2      1.0000 0.75000  0.25000  0.00000  Biso   1.000  Cu
  Cu3      1.0000 0.75000  0.75000  0.50000  Biso   1.000  Cu
  Cu4      1.0000 0.25000  0.75000  0.00000  Biso   1.000  Cu
  Br1      1.0000 0.09718  0.87683  0.48498  Biso   1.000  Br
  Br2      1.0000 0.90282  0.87683  0.01502  Biso   1.000  Br
  Br3      1.0000 0.59718  0.37683  0.48498  Biso   1.000  Br
  Br4      1.0000 0.40282  0.37683  0.01502  Biso   1.000  Br
  Br5      1.0000 0.90282  0.12317  0.51502  Biso   1.000  Br
  Br6      1.0000 0.09718  0.12317  0.98498  Biso   1.000  Br
  Br7      1.0000 0.40282  0.62317  0.51502  Biso   1.000  Br
  Br8      1.0000 0.59718  0.62317  0.98498  Biso   1.000  Br
  O1       1.0000 0.27130  0.10360  0.55548  Biso   1.000  O
  O2       1.0000 0.72870  0.10360  0.94452  Biso   1.000  O
  O3       1.0000 0.77130  0.60360  0.55548  Biso   1.000  O
  O4       1.0000 0.22870  0.60360  0.94452  Biso   1.000  O
  O5       1.0000 0.72870  0.89640  0.44452  Biso   1.000  O
  O6       1.0000 0.27130  0.89640  0.05548  Biso   1.000  O
  O7       1.0000 0.22870  0.39640  0.44452  Biso   1.000  O
  O8       1.0000 0.77130  0.39640  0.05548  Biso   1.000  O
  O9       1.0000 0.08014  0.90110  0.25977  Biso   1.000  O
  O10      1.0000 0.91986  0.90110  0.24023  Biso   1.000  O
  O11      1.0000 0.58014  0.40110  0.25977  Biso   1.000  O
  O12      1.0000 0.41986  0.40110  0.24023  Biso   1.000  O
  O13      1.0000 0.91986  0.09890  0.74023  Biso   1.000  O
  O14      1.0000 0.08014  0.09890  0.75977  Biso   1.000  O
  O15      1.0000 0.41986  0.59890  0.74023  Biso   1.000  O
  O16      1.0000 0.58014  0.59890  0.75977  Biso   1.000  O
  N1       1.0000 0.19596  0.13510  0.44911  Biso   1.000  N
  N2       1.0000 0.80404  0.13510  0.05089  Biso   1.000  N
  N3       1.0000 0.69596  0.63510  0.44911  Biso   1.000  N
  N4       1.0000 0.30404  0.63510  0.05089  Biso   1.000  N
  N5       1.0000 0.80404  0.86490  0.55089  Biso   1.000  N
  N6       1.0000 0.19596  0.86490  0.94911  Biso   1.000  N
  N7       1.0000 0.30404  0.36490  0.55089  Biso   1.000  N
  N8       1.0000 0.69596  0.36490  0.94911  Biso   1.000  N
  C1       1.0000 0.16146  0.01750  0.35920  Biso   1.000  C
  C2       1.0000 0.83854  0.01750  0.14080  Biso   1.000  C
  C3       1.0000 0.66146  0.51750  0.35920  Biso   1.000  C
  C4       1.0000 0.33854  0.51750  0.14080  Biso   1.000  C
  C5       1.0000 0.83854  0.98250  0.64080  Biso   1.000  C
  C6       1.0000 0.16146  0.98250  0.85920  Biso   1.000  C
  C7       1.0000 0.33854  0.48250  0.64080  Biso   1.000  C
  C8       1.0000 0.66146  0.48250  0.85920  Biso   1.000  C
  O17      1.0000 0.05692  0.15450  0.26352  Biso   1.000  O
  O18      1.0000 0.94308  0.15450  0.23648  Biso   1.000  O
  O19      1.0000 0.55692  0.65450  0.26352  Biso   1.000  O
  O20      1.0000 0.44308  0.65450  0.23648  Biso   1.000  O
  O21      1.0000 0.94308  0.84550  0.73648  Biso   1.000  O
  O22      1.0000 0.05692  0.84550  0.76352  Biso   1.000  O
  O23      1.0000 0.44308  0.34550  0.73648  Biso   1.000  O
  O24      1.0000 0.55692  0.34550  0.76352  Biso   1.000  O
  F1       1.0000 0.15167  0.29050  0.28409  Biso   1.000  F
  F2       1.0000 0.84833  0.29050  0.21591  Biso   1.000  F
  F3       1.0000 0.65167  0.79050  0.28409  Biso   1.000  F
  F4       1.0000 0.34833  0.79050  0.21591  Biso   1.000  F
  F5       1.0000 0.84833  0.70950  0.71591  Biso   1.000  F
  F6       1.0000 0.15167  0.70950  0.78409  Biso   1.000  F
  F7       1.0000 0.34833  0.20950  0.71591  Biso   1.000  F
  F8       1.0000 0.65167  0.20950  0.78409  Biso   1.000  F
  F9       1.0000 0.07352  0.61850  0.38869  Biso   1.000  F
  F10      1.0000 0.92648  0.61850  0.11131  Biso   1.000  F
  F11      1.0000 0.57352  0.11850  0.38869  Biso   1.000  F
  F12      1.0000 0.42648  0.11850  0.11131  Biso   1.000  F
  F13      1.0000 0.92648  0.38150  0.61131  Biso   1.000  F
  F14      1.0000 0.07352  0.38150  0.88869  Biso   1.000  F
  F15      1.0000 0.42648  0.88150  0.61131  Biso   1.000  F
  F16      1.0000 0.57352  0.88150  0.88869  Biso   1.000  F
  O25      1.0000 0.31196  0.18030  0.45615  Biso   1.000  O
  O26      1.0000 0.68804  0.18030  0.04385  Biso   1.000  O
  O27      1.0000 0.81196  0.68030  0.45615  Biso   1.000  O
  O28      1.0000 0.18804  0.68030  0.04385  Biso   1.000  O
  O29      1.0000 0.68804  0.81970  0.54385  Biso   1.000  O
  O30      1.0000 0.31196  0.81970  0.95615  Biso   1.000  O
  O31      1.0000 0.18804  0.31970  0.54385  Biso   1.000  O
  O32      1.0000 0.81196  0.31970  0.95615  Biso   1.000  O
  O33      1.0000 0.01360  0.81500  0.31334  Biso   1.000  O
  O34      1.0000 0.98640  0.81500  0.18666  Biso   1.000  O
  O35      1.0000 0.51360  0.31500  0.31334  Biso   1.000  O
  O36      1.0000 0.48640  0.31500  0.18666  Biso   1.000  O
  O37      1.0000 0.98640  0.18500  0.68666  Biso   1.000  O
  O38      1.0000 0.01360  0.18500  0.81334  Biso   1.000  O
  O39      1.0000 0.48640  0.68500  0.68666  Biso   1.000  O
  O40      1.0000 0.51360  0.68500  0.81334  Biso   1.000  O
  C9       1.0000 0.13442  0.97260  0.44430  Biso   1.000  C
  C10      1.0000 0.86558  0.97260  0.05570  Biso   1.000  C
  C11      1.0000 0.63442  0.47260  0.44430  Biso   1.000  C
  C12      1.0000 0.36558  0.47260  0.05570  Biso   1.000  C
  C13      1.0000 0.86558  0.02740  0.55570  Biso   1.000  C
  C14      1.0000 0.13442  0.02740  0.94430  Biso   1.000  C
  C15      1.0000 0.36558  0.52740  0.55570  Biso   1.000  C
  C16      1.0000 0.63442  0.52740  0.94430  Biso   1.000  C
  F17      1.0000 0.30098  0.77870  0.56730  Biso   1.000  F
  F18      1.0000 0.69902  0.77870  0.93270  Biso   1.000  F
  F19      1.0000 0.80098  0.27870  0.56730  Biso   1.000  F
  F20      1.0000 0.19902  0.27870  0.93270  Biso   1.000  F
  F21      1.0000 0.69902  0.22130  0.43270  Biso   1.000  F
  F22      1.0000 0.30098  0.22130  0.06730  Biso   1.000  F
  F23      1.0000 0.19902  0.72130  0.43270  Biso   1.000  F
  F24      1.0000 0.80098  0.72130  0.06730  Biso   1.000  F
  N9       1.0000 0.12454  0.93550  0.25543  Biso   1.000  N
  N10      1.0000 0.87546  0.93550  0.24457  Biso   1.000  N
  N11      1.0000 0.62454  0.43550  0.25543  Biso   1.000  N
  N12      1.0000 0.37546  0.43550  0.24457  Biso   1.000  N
  N13      1.0000 0.87546  0.06450  0.74457  Biso   1.000  N
  N14      1.0000 0.12454  0.06450  0.75543  Biso   1.000  N
  N15      1.0000 0.37546  0.56450  0.74457  Biso   1.000  N
  N16      1.0000 0.62454  0.56450  0.75543  Biso   1.000  N
  N17      1.0000 0.20306  0.00840  0.27750  Biso   1.000  N
  N18      1.0000 0.79694  0.00840  0.22250  Biso   1.000  N
  N19      1.0000 0.70306  0.50840  0.27750  Biso   1.000  N
  N20      1.0000 0.29694  0.50840  0.22250  Biso   1.000  N
  N21      1.0000 0.79694  0.99160  0.72250  Biso   1.000  N
  N22      1.0000 0.20306  0.99160  0.77750  Biso   1.000  N
  N23      1.0000 0.29694  0.49160  0.72250  Biso   1.000  N
  N24      1.0000 0.70306  0.49160  0.77750  Biso   1.000  N
  F25      1.0000 0.30570  0.90650  0.63872  Biso   1.000  F
  F26      1.0000 0.69430  0.90650  0.86128  Biso   1.000  F
  F27      1.0000 0.80570  0.40650  0.63872  Biso   1.000  F
  F28      1.0000 0.19430  0.40650  0.86128  Biso   1.000  F
  F29      1.0000 0.69430  0.09350  0.36128  Biso   1.000  F
  F30      1.0000 0.30570  0.09350  0.13872  Biso   1.000  F
  F31      1.0000 0.19430  0.59350  0.36128  Biso   1.000  F
  F32      1.0000 0.80570  0.59350  0.13872  Biso   1.000  F
  F33      1.0000 0.23365  0.87220  0.57440  Biso   1.000  F
  F34      1.0000 0.76635  0.87220  0.92560  Biso   1.000  F
  F35      1.0000 0.73365  0.37220  0.57440  Biso   1.000  F
  F36      1.0000 0.26635  0.37220  0.92560  Biso   1.000  F
  F37      1.0000 0.76635  0.12780  0.42560  Biso   1.000  F
  F38      1.0000 0.23365  0.12780  0.07440  Biso   1.000  F
  F39      1.0000 0.26635  0.62780  0.42560  Biso   1.000  F
  F40      1.0000 0.73365  0.62780  0.07440  Biso   1.000  F
  O41      1.0000 0.24560  0.05910  0.30571  Biso   1.000  O
  O42      1.0000 0.75440  0.05910  0.19429  Biso   1.000  O
  O43      1.0000 0.74560  0.55910  0.30571  Biso   1.000  O
  O44      1.0000 0.25440  0.55910  0.19429  Biso   1.000  O
  O45      1.0000 0.75440  0.94090  0.69429  Biso   1.000  O
  O46      1.0000 0.24560  0.94090  0.80571  Biso   1.000  O
  O47      1.0000 0.25440  0.44090  0.69429  Biso   1.000  O
  O48      1.0000 0.74560  0.44090  0.80571  Biso   1.000  O
  C17      1.0000 0.16640  0.06790  0.47460  Biso   1.000  C
  C18      1.0000 0.83360  0.06790  0.02540  Biso   1.000  C
  C19      1.0000 0.66640  0.56790  0.47460  Biso   1.000  C
  C20      1.0000 0.33360  0.56790  0.02540  Biso   1.000  C
  C21      1.0000 0.83360  0.93210  0.52540  Biso   1.000  C
  C22      1.0000 0.16640  0.93210  0.97460  Biso   1.000  C
  C23      1.0000 0.33360  0.43210  0.52540  Biso   1.000  C
  C24      1.0000 0.66640  0.43210  0.97460  Biso   1.000  C
  H1       1.0000 0.16750  0.08600  0.51360  Biso   1.000  H
  H2       1.0000 0.83250  0.08600  0.98640  Biso   1.000  H
  H3       1.0000 0.66750  0.58600  0.51360  Biso   1.000  H
  H4       1.0000 0.33250  0.58600  0.98640  Biso   1.000  H
  H5       1.0000 0.83250  0.91400  0.48640  Biso   1.000  H
  H6       1.0000 0.16750  0.91400  0.01360  Biso   1.000  H
  H7       1.0000 0.33250  0.41400  0.48640  Biso   1.000  H
  H8       1.0000 0.66750  0.41400  0.01360  Biso   1.000  H
  C25      1.0000 0.13100  0.94640  0.38550  Biso   1.000  C
  C26      1.0000 0.86900  0.94640  0.11450  Biso   1.000  C
  C27      1.0000 0.63100  0.44640  0.38550  Biso   1.000  C
  C28      1.0000 0.36900  0.44640  0.11450  Biso   1.000  C
  C29      1.0000 0.86900  0.05360  0.61450  Biso   1.000  C
  C30      1.0000 0.13100  0.05360  0.88550  Biso   1.000  C
  C31      1.0000 0.36900  0.55360  0.61450  Biso   1.000  C
  C32      1.0000 0.63100  0.55360  0.88550  Biso   1.000  C
  H9       1.0000 0.10910  0.88350  0.36430  Biso   1.000  H
  H10      1.0000 0.89090  0.88350  0.13570  Biso   1.000  H
  H11      1.0000 0.60910  0.38350  0.36430  Biso   1.000  H
  H12      1.0000 0.39090  0.38350  0.13570  Biso   1.000  H
  H13      1.0000 0.89090  0.11650  0.63570  Biso   1.000  H
  H14      1.0000 0.10910  0.11650  0.86430  Biso   1.000  H
  H15      1.0000 0.39090  0.61650  0.63570  Biso   1.000  H
  H16      1.0000 0.60910  0.61650  0.86430  Biso   1.000  H
  C33      1.0000 0.10010  0.90280  0.14590  Biso   1.000  C
  C34      1.0000 0.89990  0.90280  0.35410  Biso   1.000  C
  C35      1.0000 0.60010  0.40280  0.14590  Biso   1.000  C
  C36      1.0000 0.39990  0.40280  0.35410  Biso   1.000  C
  C37      1.0000 0.89990  0.09720  0.85410  Biso   1.000  C
  C38      1.0000 0.10010  0.09720  0.64590  Biso   1.000  C
  C39      1.0000 0.39990  0.59720  0.85410  Biso   1.000  C
  C40      1.0000 0.60010  0.59720  0.64590  Biso   1.000  C
  H17      1.0000 0.07230  0.84660  0.14560  Biso   1.000  H
  H18      1.0000 0.92770  0.84660  0.35440  Biso   1.000  H
  H19      1.0000 0.57230  0.34660  0.14560  Biso   1.000  H
  H20      1.0000 0.42770  0.34660  0.35440  Biso   1.000  H
  H21      1.0000 0.92770  0.15340  0.85440  Biso   1.000  H
  H22      1.0000 0.07230  0.15340  0.64560  Biso   1.000  H
  H23      1.0000 0.42770  0.65340  0.85440  Biso   1.000  H
  H24      1.0000 0.57230  0.65340  0.64560  Biso   1.000  H
  H25      1.0000 0.11320  0.88180  0.11340  Biso   1.000  H
  H26      1.0000 0.88680  0.88180  0.38660  Biso   1.000  H
  H27      1.0000 0.61320  0.38180  0.11340  Biso   1.000  H
  H28      1.0000 0.38680  0.38180  0.38660  Biso   1.000  H
  H29      1.0000 0.88680  0.11820  0.88660  Biso   1.000  H
  H30      1.0000 0.11320  0.11820  0.61340  Biso   1.000  H
  H31      1.0000 0.38680  0.61820  0.88660  Biso   1.000  H
  H32      1.0000 0.61320  0.61820  0.61340  Biso   1.000  H
  H33      1.0000 0.08790  0.98890  0.14160  Biso   1.000  H
  H34      1.0000 0.91210  0.98890  0.35840  Biso   1.000  H
  H35      1.0000 0.58790  0.48890  0.14160  Biso   1.000  H
  H36      1.0000 0.41210  0.48890  0.35840  Biso   1.000  H
  H37      1.0000 0.91210  0.01110  0.85840  Biso   1.000  H
  H38      1.0000 0.08790  0.01110  0.64160  Biso   1.000  H
  H39      1.0000 0.41210  0.51110  0.85840  Biso   1.000  H
  H40      1.0000 0.58790  0.51110  0.64160  Biso   1.000  H
  C41      1.0000 0.14258  0.88870  0.20430  Biso   1.000  C
  C42      1.0000 0.85742  0.88870  0.29570  Biso   1.000  C
  C43      1.0000 0.64258  0.38870  0.20430  Biso   1.000  C
  C44      1.0000 0.35742  0.38870  0.29570  Biso   1.000  C
  C45      1.0000 0.85742  0.11130  0.79570  Biso   1.000  C
  C46      1.0000 0.14258  0.11130  0.70430  Biso   1.000  C
  C47      1.0000 0.35742  0.61130  0.79570  Biso   1.000  C
  C48      1.0000 0.64258  0.61130  0.70430  Biso   1.000  C
  F41      1.0000 0.00121  0.66940  0.40030  Biso   1.000  F
  F42      1.0000 0.99879  0.66940  0.09970  Biso   1.000  F
  F43      1.0000 0.50121  0.16940  0.40030  Biso   1.000  F
  F44      1.0000 0.49879  0.16940  0.09970  Biso   1.000  F
  F45      1.0000 0.99879  0.33060  0.59970  Biso   1.000  F
  F46      1.0000 0.00121  0.33060  0.90030  Biso   1.000  F
  F47      1.0000 0.49879  0.83060  0.59970  Biso   1.000  F
  F48      1.0000 0.50121  0.83060  0.90030  Biso   1.000  F
  F49      1.0000 0.38800  0.12610  0.41290  Biso   1.000  F
  F50      1.0000 0.61200  0.12610  0.08710  Biso   1.000  F
  F51      1.0000 0.88800  0.62610  0.41290  Biso   1.000  F
  F52      1.0000 0.11200  0.62610  0.08710  Biso   1.000  F
  F53      1.0000 0.61200  0.87390  0.58710  Biso   1.000  F
  F54      1.0000 0.38800  0.87390  0.91290  Biso   1.000  F
  F55      1.0000 0.11200  0.37390  0.58710  Biso   1.000  F
  F56      1.0000 0.88800  0.37390  0.91290  Biso   1.000  F
  C49      1.0000 0.31900  0.97830  0.50510  Biso   1.000  C
  C50      1.0000 0.68100  0.97830  0.99490  Biso   1.000  C
  C51      1.0000 0.81900  0.47830  0.50510  Biso   1.000  C
  C52      1.0000 0.18100  0.47830  0.99490  Biso   1.000  C
  C53      1.0000 0.68100  0.02170  0.49490  Biso   1.000  C
  C54      1.0000 0.31900  0.02170  0.00510  Biso   1.000  C
  C55      1.0000 0.18100  0.52170  0.49490  Biso   1.000  C
  C56      1.0000 0.81900  0.52170  0.00510  Biso   1.000  C
  H41      1.0000 0.33140  0.89640  0.50360  Biso   1.000  H
  H42      1.0000 0.66860  0.89640  0.99640  Biso   1.000  H
  H43      1.0000 0.83140  0.39640  0.50360  Biso   1.000  H
  H44      1.0000 0.16860  0.39640  0.99640  Biso   1.000  H
  H45      1.0000 0.66860  0.10360  0.49640  Biso   1.000  H
  H46      1.0000 0.33140  0.10360  0.00360  Biso   1.000  H
  H47      1.0000 0.16860  0.60360  0.49640  Biso   1.000  H
  H48      1.0000 0.83140  0.60360  0.00360  Biso   1.000  H
  F57      1.0000 0.40950  0.97370  0.47170  Biso   1.000  F
  F58      1.0000 0.59050  0.97370  0.02830  Biso   1.000  F
  F59      1.0000 0.90950  0.47370  0.47170  Biso   1.000  F
  F60      1.0000 0.09050  0.47370  0.02830  Biso   1.000  F
  F61      1.0000 0.59050  0.02630  0.52830  Biso   1.000  F
  F62      1.0000 0.40950  0.02630  0.97170  Biso   1.000  F
  F63      1.0000 0.09050  0.52630  0.52830  Biso   1.000  F
  F64      1.0000 0.90950  0.52630  0.97170  Biso   1.000  F
  C57      1.0000 0.16195  0.98970  0.29840  Biso   1.000  C
  C58      1.0000 0.83805  0.98970  0.20160  Biso   1.000  C
  C59      1.0000 0.66195  0.48970  0.29840  Biso   1.000  C
  C60      1.0000 0.33805  0.48970  0.20160  Biso   1.000  C
  C61      1.0000 0.83805  0.01030  0.70160  Biso   1.000  C
  C62      1.0000 0.16195  0.01030  0.79840  Biso   1.000  C
  C63      1.0000 0.33805  0.51030  0.70160  Biso   1.000  C
  C64      1.0000 0.66195  0.51030  0.79840  Biso   1.000  C
  C65      1.0000 0.19351  0.11170  0.39230  Biso   1.000  C
  C66      1.0000 0.80649  0.11170  0.10770  Biso   1.000  C
  C67      1.0000 0.69351  0.61170  0.39230  Biso   1.000  C
  C68      1.0000 0.30649  0.61170  0.10770  Biso   1.000  C
  C69      1.0000 0.80649  0.88830  0.60770  Biso   1.000  C
  C70      1.0000 0.19351  0.88830  0.89230  Biso   1.000  C
  C71      1.0000 0.30649  0.38830  0.60770  Biso   1.000  C
  C72      1.0000 0.69351  0.38830  0.89230  Biso   1.000  C
  H49      1.0000 0.21370  0.15940  0.37460  Biso   1.000  H
  H50      1.0000 0.78630  0.15940  0.12540  Biso   1.000  H
  H51      1.0000 0.71370  0.65940  0.37460  Biso   1.000  H
  H52      1.0000 0.28630  0.65940  0.12540  Biso   1.000  H
  H53      1.0000 0.78630  0.84060  0.62540  Biso   1.000  H
  H54      1.0000 0.21370  0.84060  0.87460  Biso   1.000  H
  H55      1.0000 0.28630  0.34060  0.62540  Biso   1.000  H
  H56      1.0000 0.71370  0.34060  0.87460  Biso   1.000  H
  F65      1.0000 0.00870  0.49950  0.35120  Biso   1.000  F
  F66      1.0000 0.99130  0.49950  0.14880  Biso   1.000  F
  F67      1.0000 0.50870  0.99950  0.35120  Biso   1.000  F
  F68      1.0000 0.49130  0.99950  0.14880  Biso   1.000  F
  F69      1.0000 0.99130  0.50050  0.64880  Biso   1.000  F
  F70      1.0000 0.00870  0.50050  0.85120  Biso   1.000  F
  F71      1.0000 0.49130  0.00050  0.64880  Biso   1.000  F
  F72      1.0000 0.50870  0.00050  0.85120  Biso   1.000  F
  C73      1.0000 0.01085  0.69850  0.30410  Biso   1.000  C
  C74      1.0000 0.98915  0.69850  0.19590  Biso   1.000  C
  C75      1.0000 0.51085  0.19850  0.30410  Biso   1.000  C
  C76      1.0000 0.48915  0.19850  0.19590  Biso   1.000  C
  C77      1.0000 0.98915  0.30150  0.69590  Biso   1.000  C
  C78      1.0000 0.01085  0.30150  0.80410  Biso   1.000  C
  C79      1.0000 0.48915  0.80150  0.69590  Biso   1.000  C
  C80      1.0000 0.51085  0.80150  0.80410  Biso   1.000  C
  C81      1.0000 0.28340  0.88830  0.58140  Biso   1.000  C
  C82      1.0000 0.71660  0.88830  0.91860  Biso   1.000  C
  C83      1.0000 0.78340  0.38830  0.58140  Biso   1.000  C
  C84      1.0000 0.21660  0.38830  0.91860  Biso   1.000  C
  C85      1.0000 0.71660  0.11170  0.41860  Biso   1.000  C
  C86      1.0000 0.28340  0.11170  0.08140  Biso   1.000  C
  C87      1.0000 0.21660  0.61170  0.41860  Biso   1.000  C
  C88      1.0000 0.78340  0.61170  0.08140  Biso   1.000  C
  C89      1.0000 0.32950  0.07160  0.46660  Biso   1.000  C
  C90      1.0000 0.67050  0.07160  0.03340  Biso   1.000  C
  C91      1.0000 0.82950  0.57160  0.46660  Biso   1.000  C
  C92      1.0000 0.17050  0.57160  0.03340  Biso   1.000  C
  C93      1.0000 0.67050  0.92840  0.53340  Biso   1.000  C
  C94      1.0000 0.32950  0.92840  0.96660  Biso   1.000  C
  C95      1.0000 0.17050  0.42840  0.53340  Biso   1.000  C
  C96      1.0000 0.82950  0.42840  0.96660  Biso   1.000  C
  C97      1.0000 0.29180  0.00220  0.54410  Biso   1.000  C
  C98      1.0000 0.70820  0.00220  0.95590  Biso   1.000  C
  C99      1.0000 0.79180  0.50220  0.54410  Biso   1.000  C
  C100     1.0000 0.20820  0.50220  0.95590  Biso   1.000  C
  C101     1.0000 0.70820  0.99780  0.45590  Biso   1.000  C
  C102     1.0000 0.29180  0.99780  0.04410  Biso   1.000  C
  C103     1.0000 0.20820  0.49780  0.45590  Biso   1.000  C
  C104     1.0000 0.79180  0.49780  0.04410  Biso   1.000  C
  C105     1.0000 0.10590  0.34000  0.27790  Biso   1.000  C
  C106     1.0000 0.89410  0.34000  0.22210  Biso   1.000  C
  C107     1.0000 0.60590  0.84000  0.27790  Biso   1.000  C
  C108     1.0000 0.39410  0.84000  0.22210  Biso   1.000  C
  C109     1.0000 0.89410  0.66000  0.72210  Biso   1.000  C
  C110     1.0000 0.10590  0.66000  0.77790  Biso   1.000  C
  C111     1.0000 0.39410  0.16000  0.72210  Biso   1.000  C
  C112     1.0000 0.60590  0.16000  0.77790  Biso   1.000  C
  C113     1.0000 0.02310  0.61920  0.36150  Biso   1.000  C
  C114     1.0000 0.97690  0.61920  0.13850  Biso   1.000  C
  C115     1.0000 0.52310  0.11920  0.36150  Biso   1.000  C
  C116     1.0000 0.47690  0.11920  0.13850  Biso   1.000  C
  C117     1.0000 0.97690  0.38080  0.63850  Biso   1.000  C
  C118     1.0000 0.02310  0.38080  0.86150  Biso   1.000  C
  C119     1.0000 0.47690  0.88080  0.63850  Biso   1.000  C
  C120     1.0000 0.52310  0.88080  0.86150  Biso   1.000  C
  C121     1.0000 0.17760  0.10270  0.17910  Biso   1.000  C
  C122     1.0000 0.82240  0.10270  0.32090  Biso   1.000  C
  C123     1.0000 0.67760  0.60270  0.17910  Biso   1.000  C
  C124     1.0000 0.32240  0.60270  0.32090  Biso   1.000  C
  C125     1.0000 0.82240  0.89730  0.82090  Biso   1.000  C
  C126     1.0000 0.17760  0.89730  0.67910  Biso   1.000  C
  C127     1.0000 0.32240  0.39730  0.82090  Biso   1.000  C
  C128     1.0000 0.67760  0.39730  0.67910  Biso   1.000  C
  H57      1.0000 0.14760  0.13950  0.18590  Biso   1.000  H
  H58      1.0000 0.85240  0.13950  0.31410  Biso   1.000  H
  H59      1.0000 0.64760  0.63950  0.18590  Biso   1.000  H
  H60      1.0000 0.35240  0.63950  0.31410  Biso   1.000  H
  H61      1.0000 0.85240  0.86050  0.81410  Biso   1.000  H
  H62      1.0000 0.14760  0.86050  0.68590  Biso   1.000  H
  H63      1.0000 0.35240  0.36050  0.81410  Biso   1.000  H
  H64      1.0000 0.64760  0.36050  0.68590  Biso   1.000  H
  H65      1.0000 0.17110  0.08840  0.13710  Biso   1.000  H
  H66      1.0000 0.82890  0.08840  0.36290  Biso   1.000  H
  H67      1.0000 0.67110  0.58840  0.13710  Biso   1.000  H
  H68      1.0000 0.32890  0.58840  0.36290  Biso   1.000  H
  H69      1.0000 0.82890  0.91160  0.86290  Biso   1.000  H
  H70      1.0000 0.17110  0.91160  0.63710  Biso   1.000  H
  H71      1.0000 0.32890  0.41160  0.86290  Biso   1.000  H
  H72      1.0000 0.67110  0.41160  0.63710  Biso   1.000  H
  H73      1.0000 0.20620  0.15960  0.19320  Biso   1.000  H
  H74      1.0000 0.79380  0.15960  0.30680  Biso   1.000  H
  H75      1.0000 0.70620  0.65960  0.19320  Biso   1.000  H
  H76      1.0000 0.29380  0.65960  0.30680  Biso   1.000  H
  H77      1.0000 0.79380  0.84040  0.80680  Biso   1.000  H
  H78      1.0000 0.20620  0.84040  0.69320  Biso   1.000  H
  H79      1.0000 0.29380  0.34040  0.80680  Biso   1.000  H
  H80      1.0000 0.70620  0.34040  0.69320  Biso   1.000  H
  C129     1.0000 0.15660  0.74880  0.21920  Biso   1.000  C
  C130     1.0000 0.84340  0.74880  0.28080  Biso   1.000  C
  C131     1.0000 0.65660  0.24880  0.21920  Biso   1.000  C
  C132     1.0000 0.34340  0.24880  0.28080  Biso   1.000  C
  C133     1.0000 0.84340  0.25120  0.78080  Biso   1.000  C
  C134     1.0000 0.15660  0.25120  0.71920  Biso   1.000  C
  C135     1.0000 0.34340  0.75120  0.78080  Biso   1.000  C
  C136     1.0000 0.65660  0.75120  0.71920  Biso   1.000  C
  H81      1.0000 0.18090  0.74290  0.25820  Biso   1.000  H
  H82      1.0000 0.81910  0.74290  0.24180  Biso   1.000  H
  H83      1.0000 0.68090  0.24290  0.25820  Biso   1.000  H
  H84      1.0000 0.31910  0.24290  0.24180  Biso   1.000  H
  H85      1.0000 0.81910  0.25710  0.74180  Biso   1.000  H
  H86      1.0000 0.18090  0.25710  0.75820  Biso   1.000  H
  H87      1.0000 0.31910  0.75710  0.74180  Biso   1.000  H
  H88      1.0000 0.68090  0.75710  0.75820  Biso   1.000  H
  H89      1.0000 0.17160  0.71410  0.19040  Biso   1.000  H
  H90      1.0000 0.82840  0.71410  0.30960  Biso   1.000  H
  H91      1.0000 0.67160  0.21410  0.19040  Biso   1.000  H
  H92      1.0000 0.32840  0.21410  0.30960  Biso   1.000  H
  H93      1.0000 0.82840  0.28590  0.80960  Biso   1.000  H
  H94      1.0000 0.17160  0.28590  0.69040  Biso   1.000  H
  H95      1.0000 0.32840  0.78590  0.80960  Biso   1.000  H
  H96      1.0000 0.67160  0.78590  0.69040  Biso   1.000  H
  H97      1.0000 0.12610  0.70190  0.21810  Biso   1.000  H
  H98      1.0000 0.87390  0.70190  0.28190  Biso   1.000  H
  H99      1.0000 0.62610  0.20190  0.21810  Biso   1.000  H
  H100     1.0000 0.37390  0.20190  0.28190  Biso   1.000  H
  H101     1.0000 0.87390  0.29810  0.78190  Biso   1.000  H
  H102     1.0000 0.12610  0.29810  0.71810  Biso   1.000  H
  H103     1.0000 0.37390  0.79810  0.78190  Biso   1.000  H
  H104     1.0000 0.62610  0.79810  0.71810  Biso   1.000  H
  C137     1.0000 0.23610  0.91320  0.20000  Biso   1.000  C
  C138     1.0000 0.76390  0.91320  0.30000  Biso   1.000  C
  C139     1.0000 0.73610  0.41320  0.20000  Biso   1.000  C
  C140     1.0000 0.26390  0.41320  0.30000  Biso   1.000  C
  C141     1.0000 0.76390  0.08680  0.80000  Biso   1.000  C
  C142     1.0000 0.23610  0.08680  0.70000  Biso   1.000  C
  C143     1.0000 0.26390  0.58680  0.80000  Biso   1.000  C
  C144     1.0000 0.73610  0.58680  0.70000  Biso   1.000  C
  H105     1.0000 0.26510  0.96980  0.21100  Biso   1.000  H
  H106     1.0000 0.73490  0.96980  0.28900  Biso   1.000  H
  H107     1.0000 0.76510  0.46980  0.21100  Biso   1.000  H
  H108     1.0000 0.23490  0.46980  0.28900  Biso   1.000  H
  H109     1.0000 0.73490  0.03020  0.78900  Biso   1.000  H
  H110     1.0000 0.26510  0.03020  0.71100  Biso   1.000  H
  H111     1.0000 0.23490  0.53020  0.78900  Biso   1.000  H
  H112     1.0000 0.76510  0.53020  0.71100  Biso   1.000  H
  H113     1.0000 0.22790  0.89340  0.15830  Biso   1.000  H
  H114     1.0000 0.77210  0.89340  0.34170  Biso   1.000  H
  H115     1.0000 0.72790  0.39340  0.15830  Biso   1.000  H
  H116     1.0000 0.27210  0.39340  0.34170  Biso   1.000  H
  H117     1.0000 0.77210  0.10660  0.84170  Biso   1.000  H
  H118     1.0000 0.22790  0.10660  0.65830  Biso   1.000  H
  H119     1.0000 0.27210  0.60660  0.84170  Biso   1.000  H
  H120     1.0000 0.72790  0.60660  0.65830  Biso   1.000  H
  H121     1.0000 0.24450  0.83640  0.22280  Biso   1.000  H
  H122     1.0000 0.75550  0.83640  0.27720  Biso   1.000  H
  H123     1.0000 0.74450  0.33640  0.22280  Biso   1.000  H
  H124     1.0000 0.25550  0.33640  0.27720  Biso   1.000  H
  H125     1.0000 0.75550  0.16360  0.77720  Biso   1.000  H
  H126     1.0000 0.24450  0.16360  0.72280  Biso   1.000  H
  H127     1.0000 0.25550  0.66360  0.77720  Biso   1.000  H
  H128     1.0000 0.74450  0.66360  0.72280  Biso   1.000  H
  C145     1.0000 0.36930  0.02980  0.43520  Biso   1.000  C
  C146     1.0000 0.63070  0.02980  0.06480  Biso   1.000  C
  C147     1.0000 0.86930  0.52980  0.43520  Biso   1.000  C
  C148     1.0000 0.13070  0.52980  0.06480  Biso   1.000  C
  C149     1.0000 0.63070  0.97020  0.56480  Biso   1.000  C
  C150     1.0000 0.36930  0.97020  0.93520  Biso   1.000  C
  C151     1.0000 0.13070  0.47020  0.56480  Biso   1.000  C
  C152     1.0000 0.86930  0.47020  0.93520  Biso   1.000  C
  F73      1.0000 0.08940  0.39420  0.23130  Biso   1.000  F
  F74      1.0000 0.91060  0.39420  0.26870  Biso   1.000  F
  F75      1.0000 0.58940  0.89420  0.23130  Biso   1.000  F
  F76      1.0000 0.41060  0.89420  0.26870  Biso   1.000  F
  F77      1.0000 0.91060  0.60580  0.76870  Biso   1.000  F
  F78      1.0000 0.08940  0.60580  0.73130  Biso   1.000  F
  F79      1.0000 0.41060  0.10580  0.76870  Biso   1.000  F
  F80      1.0000 0.58940  0.10580  0.73130  Biso   1.000  F
  F81      1.0000 0.34920  0.95080  0.39240  Biso   1.000  F
  F82      1.0000 0.65080  0.95080  0.10760  Biso   1.000  F
  F83      1.0000 0.84920  0.45080  0.39240  Biso   1.000  F
  F84      1.0000 0.15080  0.45080  0.10760  Biso   1.000  F
  F85      1.0000 0.65080  0.04920  0.60760  Biso   1.000  F
  F86      1.0000 0.34920  0.04920  0.89240  Biso   1.000  F
  F87      1.0000 0.15080  0.54920  0.60760  Biso   1.000  F
  F88      1.0000 0.84920  0.54920  0.89240  Biso   1.000  F
  F89      1.0000 0.11020  0.42060  0.31880  Biso   1.000  F
  F90      1.0000 0.88980  0.42060  0.18120  Biso   1.000  F
  F91      1.0000 0.61020  0.92060  0.31880  Biso   1.000  F
  F92      1.0000 0.38980  0.92060  0.18120  Biso   1.000  F
  F93      1.0000 0.88980  0.57940  0.68120  Biso   1.000  F
  F94      1.0000 0.11020  0.57940  0.81880  Biso   1.000  F
  F95      1.0000 0.38980  0.07940  0.68120  Biso   1.000  F
  F96      1.0000 0.61020  0.07940  0.81880  Biso   1.000  F
  O49      1.0000 0.00813  0.06750  0.34380  Biso   1.000  O
  O50      1.0000 0.99187  0.06750  0.15620  Biso   1.000  O
  O51      1.0000 0.50813  0.56750  0.34380  Biso   1.000  O
  O52      1.0000 0.49187  0.56750  0.15620  Biso   1.000  O
  O53      1.0000 0.99187  0.93250  0.65620  Biso   1.000  O
  O54      1.0000 0.00813  0.93250  0.84380  Biso   1.000  O
  O55      1.0000 0.49187  0.43250  0.65620  Biso   1.000  O
  O56      1.0000 0.50813  0.43250  0.84380  Biso   1.000  O
  C153     1.0000 0.07050  0.23750  0.29930  Biso   1.000  C
  C154     1.0000 0.92950  0.23750  0.20070  Biso   1.000  C
  C155     1.0000 0.57050  0.73750  0.29930  Biso   1.000  C
  C156     1.0000 0.42950  0.73750  0.20070  Biso   1.000  C
  C157     1.0000 0.92950  0.76250  0.70070  Biso   1.000  C
  C158     1.0000 0.07050  0.76250  0.79930  Biso   1.000  C
  C159     1.0000 0.42950  0.26250  0.70070  Biso   1.000  C
  C160     1.0000 0.57050  0.26250  0.79930  Biso   1.000  C
  C161     1.0000 0.02770  0.16070  0.37000  Biso   1.000  C
  C162     1.0000 0.97230  0.16070  0.13000  Biso   1.000  C
  C163     1.0000 0.52770  0.66070  0.37000  Biso   1.000  C
  C164     1.0000 0.47230  0.66070  0.13000  Biso   1.000  C
  C165     1.0000 0.97230  0.83930  0.63000  Biso   1.000  C
  C166     1.0000 0.02770  0.83930  0.87000  Biso   1.000  C
  C167     1.0000 0.47230  0.33930  0.63000  Biso   1.000  C
  C168     1.0000 0.52770  0.33930  0.87000  Biso   1.000  C
  C169     1.0000 0.05880  0.25100  0.35390  Biso   1.000  C
  C170     1.0000 0.94120  0.25100  0.14610  Biso   1.000  C
  C171     1.0000 0.55880  0.75100  0.35390  Biso   1.000  C
  C172     1.0000 0.44120  0.75100  0.14610  Biso   1.000  C
  C173     1.0000 0.94120  0.74900  0.64610  Biso   1.000  C
  C174     1.0000 0.05880  0.74900  0.85390  Biso   1.000  C
  C175     1.0000 0.44120  0.24900  0.64610  Biso   1.000  C
  C176     1.0000 0.55880  0.24900  0.85390  Biso   1.000  C
  H129     1.0000 0.07180  0.31950  0.37880  Biso   1.000  H
  H130     1.0000 0.92820  0.31950  0.12120  Biso   1.000  H
  H131     1.0000 0.57180  0.81950  0.37880  Biso   1.000  H
  H132     1.0000 0.42820  0.81950  0.12120  Biso   1.000  H
  H133     1.0000 0.92820  0.68050  0.62120  Biso   1.000  H
  H134     1.0000 0.07180  0.68050  0.87880  Biso   1.000  H
  H135     1.0000 0.42820  0.18050  0.62120  Biso   1.000  H
  H136     1.0000 0.57180  0.18050  0.87880  Biso   1.000  H
  C177     1.0000 0.18990  0.97690  0.21210  Biso   1.000  C
  C178     1.0000 0.81010  0.97690  0.28790  Biso   1.000  C
  C179     1.0000 0.68990  0.47690  0.21210  Biso   1.000  C
  C180     1.0000 0.31010  0.47690  0.28790  Biso   1.000  C
  C181     1.0000 0.81010  0.02310  0.78790  Biso   1.000  C
  C182     1.0000 0.18990  0.02310  0.71210  Biso   1.000  C
  C183     1.0000 0.31010  0.52310  0.78790  Biso   1.000  C
  C184     1.0000 0.68990  0.52310  0.71210  Biso   1.000  C
  F97      1.0000 0.00080  0.09520  0.45350  Biso   1.000  F
  F98      1.0000 0.99920  0.09520  0.04650  Biso   1.000  F
  F99      1.0000 0.50080  0.59520  0.45350  Biso   1.000  F
  F100     1.0000 0.49920  0.59520  0.04650  Biso   1.000  F
  F101     1.0000 0.99920  0.90480  0.54650  Biso   1.000  F
  F102     1.0000 0.00080  0.90480  0.95350  Biso   1.000  F
  F103     1.0000 0.49920  0.40480  0.54650  Biso   1.000  F
  F104     1.0000 0.50080  0.40480  0.95350  Biso   1.000  F
  C185     1.0000 0.01240  0.19610  0.42710  Biso   1.000  C
  C186     1.0000 0.98760  0.19610  0.07290  Biso   1.000  C
  C187     1.0000 0.51240  0.69610  0.42710  Biso   1.000  C
  C188     1.0000 0.48760  0.69610  0.07290  Biso   1.000  C
  C189     1.0000 0.98760  0.80390  0.57290  Biso   1.000  C
  C190     1.0000 0.01240  0.80390  0.92710  Biso   1.000  C
  C191     1.0000 0.48760  0.30390  0.57290  Biso   1.000  C
  C192     1.0000 0.51240  0.30390  0.92710  Biso   1.000  C
  F105     1.0000 0.98260  0.28340  0.42800  Biso   1.000  F
  F106     1.0000 0.01740  0.28340  0.07200  Biso   1.000  F
  F107     1.0000 0.48260  0.78340  0.42800  Biso   1.000  F
  F108     1.0000 0.51740  0.78340  0.07200  Biso   1.000  F
  F109     1.0000 0.01740  0.71660  0.57200  Biso   1.000  F
  F110     1.0000 0.98260  0.71660  0.92800  Biso   1.000  F
  F111     1.0000 0.51740  0.21660  0.57200  Biso   1.000  F
  F112     1.0000 0.48260  0.21660  0.92800  Biso   1.000  F
  F113     1.0000 0.05600  0.23060  0.45760  Biso   1.000  F
  F114     1.0000 0.94400  0.23060  0.04240  Biso   1.000  F
  F115     1.0000 0.55600  0.73060  0.45760  Biso   1.000  F
  F116     1.0000 0.44400  0.73060  0.04240  Biso   1.000  F
  F117     1.0000 0.94400  0.76940  0.54240  Biso   1.000  F
  F118     1.0000 0.05600  0.76940  0.95760  Biso   1.000  F
  F119     1.0000 0.44400  0.26940  0.54240  Biso   1.000  F
  F120     1.0000 0.55600  0.26940  0.95760  Biso   1.000  F
  C193     1.0000 0.00000  0.63350  0.25000  Biso   1.000  C
  C194     1.0000 0.50000  0.13350  0.25000  Biso   1.000  C
  C195     1.0000 0.00000  0.36650  0.75000  Biso   1.000  C
  C196     1.0000 0.50000  0.86650  0.75000  Biso   1.000  C
  H137     1.0000 0.00000  0.54510  0.25000  Biso   1.000  H
  H138     1.0000 0.50000  0.04510  0.25000  Biso   1.000  H
  H139     1.0000 0.00000  0.45490  0.75000  Biso   1.000  H
  H140     1.0000 0.50000  0.95490  0.75000  Biso   1.000  H
  C197     1.0000 0.98890  0.17530  0.35970  Biso   1.000  C
  C198     1.0000 0.01110  0.17530  0.14030  Biso   1.000  C
  C199     1.0000 0.48890  0.67530  0.35970  Biso   1.000  C
  C200     1.0000 0.51110  0.67530  0.14030  Biso   1.000  C
  C201     1.0000 0.01110  0.82470  0.64030  Biso   1.000  C
  C202     1.0000 0.98890  0.82470  0.85970  Biso   1.000  C
  C203     1.0000 0.51110  0.32470  0.64030  Biso   1.000  C
  C204     1.0000 0.48890  0.32470  0.85970  Biso   1.000  C
