data_image0
_cell_length_a       11.1421
_cell_length_b       11.1421
_cell_length_c       40.5065
_cell_angle_alpha    90
_cell_angle_beta     90
_cell_angle_gamma    90

_symmetry_space_group_name_H-M    "P 1"
_symmetry_int_tables_number       1

loop_
  _symmetry_equiv_pos_as_xyz
  'x, y, z'

loop_
  _atom_site_label
  _atom_site_occupancy
  _atom_site_fract_x
  _atom_site_fract_y
  _atom_site_fract_z
  _atom_site_thermal_displace_type
  _atom_site_B_iso_or_equiv
  _atom_site_type_symbol
  Cu1      1.0000 0.50000  0.14192  0.00000  Biso   1.000  Cu
  Cu2      1.0000 0.85808  0.50000  0.25000  Biso   1.000  Cu
  Cu3      1.0000 0.50000  0.85808  0.50000  Biso   1.000  Cu
  Cu4      1.0000 0.14192  0.50000  0.25000  Biso   1.000  Cu
  Cu5      1.0000 0.34356  0.34356  0.12500  Biso   1.000  Cu
  Cu6      1.0000 0.65644  0.34356  0.37500  Biso   1.000  Cu
  Cu7      1.0000 0.65644  0.65644  0.62500  Biso   1.000  Cu
  Cu8      1.0000 0.34356  0.65644  0.37500  Biso   1.000  Cu
  Cu9      1.0000 0.65644  0.34356  0.87500  Biso   1.000  Cu
  Cu10     1.0000 0.65644  0.65644  0.12500  Biso   1.000  Cu
  O1       1.0000 0.51410  0.14000  0.06229  Biso   1.000  O
  O2       1.0000 0.86000  0.51410  0.31229  Biso   1.000  O
  O3       1.0000 0.48590  0.86000  0.56229  Biso   1.000  O
  O4       1.0000 0.14000  0.48590  0.31229  Biso   1.000  O
  O5       1.0000 0.51410  0.86000  0.43771  Biso   1.000  O
  O6       1.0000 0.48590  0.14000  0.93771  Biso   1.000  O
  O7       1.0000 0.14000  0.51410  0.18771  Biso   1.000  O
  O8       1.0000 0.86000  0.48590  0.18771  Biso   1.000  O
  O9       1.0000 0.40990  0.28830  0.08486  Biso   1.000  O
  O10      1.0000 0.71170  0.40990  0.33486  Biso   1.000  O
  O11      1.0000 0.59010  0.71170  0.58486  Biso   1.000  O
  O12      1.0000 0.28830  0.59010  0.33486  Biso   1.000  O
  O13      1.0000 0.40990  0.71170  0.41514  Biso   1.000  O
  O14      1.0000 0.59010  0.28830  0.91514  Biso   1.000  O
  O15      1.0000 0.28830  0.40990  0.16514  Biso   1.000  O
  O16      1.0000 0.71170  0.59010  0.16514  Biso   1.000  O
  O17      1.0000 0.50120  0.19680  0.21875  Biso   1.000  O
  O18      1.0000 0.80320  0.50120  0.46875  Biso   1.000  O
  O19      1.0000 0.49880  0.80320  0.71875  Biso   1.000  O
  O20      1.0000 0.19680  0.49880  0.46875  Biso   1.000  O
  O21      1.0000 0.50120  0.80320  0.28125  Biso   1.000  O
  O22      1.0000 0.49880  0.19680  0.78125  Biso   1.000  O
  O23      1.0000 0.19680  0.50120  0.03125  Biso   1.000  O
  O24      1.0000 0.80320  0.49880  0.03125  Biso   1.000  O
  O25      1.0000 0.78380  0.35470  0.08080  Biso   1.000  O
  O26      1.0000 0.64530  0.78380  0.33080  Biso   1.000  O
  O27      1.0000 0.21620  0.64530  0.58080  Biso   1.000  O
  O28      1.0000 0.35470  0.21620  0.33080  Biso   1.000  O
  O29      1.0000 0.78380  0.64530  0.41920  Biso   1.000  O
  O30      1.0000 0.21620  0.35470  0.91920  Biso   1.000  O
  O31      1.0000 0.35470  0.78380  0.16920  Biso   1.000  O
  O32      1.0000 0.64530  0.21620  0.16920  Biso   1.000  O
  O33      1.0000 0.18120  0.18120  0.12500  Biso   1.000  O
  O34      1.0000 0.81880  0.18120  0.37500  Biso   1.000  O
  O35      1.0000 0.81880  0.81880  0.62500  Biso   1.000  O
  O36      1.0000 0.18120  0.81880  0.37500  Biso   1.000  O
  O37      1.0000 0.81880  0.18120  0.87500  Biso   1.000  O
  O38      1.0000 0.81880  0.81880  0.12500  Biso   1.000  O
  O39      1.0000 0.45370  0.10240  0.27780  Biso   1.000  O
  O40      1.0000 0.89760  0.45370  0.52780  Biso   1.000  O
  O41      1.0000 0.54630  0.89760  0.77780  Biso   1.000  O
  O42      1.0000 0.10240  0.54630  0.52780  Biso   1.000  O
  O43      1.0000 0.45370  0.89760  0.22220  Biso   1.000  O
  O44      1.0000 0.54630  0.10240  0.72220  Biso   1.000  O
  O45      1.0000 0.10240  0.45370  0.97220  Biso   1.000  O
  O46      1.0000 0.89760  0.54630  0.97220  Biso   1.000  O
  N1       1.0000 0.47100  0.24330  0.14546  Biso   1.000  N
  N2       1.0000 0.75670  0.47100  0.39546  Biso   1.000  N
  N3       1.0000 0.52900  0.75670  0.64546  Biso   1.000  N
  N4       1.0000 0.24330  0.52900  0.39546  Biso   1.000  N
  N5       1.0000 0.47100  0.75670  0.35454  Biso   1.000  N
  N6       1.0000 0.52900  0.24330  0.85454  Biso   1.000  N
  N7       1.0000 0.24330  0.47100  0.10454  Biso   1.000  N
  N8       1.0000 0.75670  0.52900  0.10454  Biso   1.000  N
  H1       1.0000 0.43580  0.19620  0.16180  Biso   1.000  H
  H2       1.0000 0.80380  0.43580  0.41180  Biso   1.000  H
  H3       1.0000 0.56420  0.80380  0.66180  Biso   1.000  H
  H4       1.0000 0.19620  0.56420  0.41180  Biso   1.000  H
  H5       1.0000 0.43580  0.80380  0.33820  Biso   1.000  H
  H6       1.0000 0.56420  0.19620  0.83820  Biso   1.000  H
  H7       1.0000 0.19620  0.43580  0.08820  Biso   1.000  H
  H8       1.0000 0.80380  0.56420  0.08820  Biso   1.000  H
  N9       1.0000 0.50000  0.32270  0.00000  Biso   1.000  N
  N10      1.0000 0.67730  0.50000  0.25000  Biso   1.000  N
  N11      1.0000 0.50000  0.67730  0.50000  Biso   1.000  N
  N12      1.0000 0.32270  0.50000  0.25000  Biso   1.000  N
  N13      1.0000 0.50000  0.95710  0.00000  Biso   1.000  N
  N14      1.0000 0.04290  0.50000  0.25000  Biso   1.000  N
  N15      1.0000 0.50000  0.04290  0.50000  Biso   1.000  N
  N16      1.0000 0.95710  0.50000  0.25000  Biso   1.000  N
  N17      1.0000 0.68210  0.14150  0.00107  Biso   1.000  N
  N18      1.0000 0.85850  0.68210  0.25107  Biso   1.000  N
  N19      1.0000 0.31790  0.85850  0.50107  Biso   1.000  N
  N20      1.0000 0.14150  0.31790  0.25107  Biso   1.000  N
  N21      1.0000 0.68210  0.85850  0.49893  Biso   1.000  N
  N22      1.0000 0.31790  0.14150  0.99893  Biso   1.000  N
  N23      1.0000 0.14150  0.68210  0.24893  Biso   1.000  N
  N24      1.0000 0.85850  0.31790  0.24893  Biso   1.000  N
  C1       1.0000 0.48040  0.19970  0.08649  Biso   1.000  C
  C2       1.0000 0.80030  0.48040  0.33649  Biso   1.000  C
  C3       1.0000 0.51960  0.80030  0.58649  Biso   1.000  C
  C4       1.0000 0.19970  0.51960  0.33649  Biso   1.000  C
  C5       1.0000 0.48040  0.80030  0.41351  Biso   1.000  C
  C6       1.0000 0.51960  0.19970  0.91351  Biso   1.000  C
  C7       1.0000 0.19970  0.48040  0.16351  Biso   1.000  C
  C8       1.0000 0.80030  0.51960  0.16351  Biso   1.000  C
  C9       1.0000 0.52260  0.16300  0.12039  Biso   1.000  C
  C10      1.0000 0.83700  0.52260  0.37039  Biso   1.000  C
  C11      1.0000 0.47740  0.83700  0.62039  Biso   1.000  C
  C12      1.0000 0.16300  0.47740  0.37039  Biso   1.000  C
  C13      1.0000 0.52260  0.83700  0.37961  Biso   1.000  C
  C14      1.0000 0.47740  0.16300  0.87961  Biso   1.000  C
  C15      1.0000 0.16300  0.52260  0.12961  Biso   1.000  C
  C16      1.0000 0.83700  0.47740  0.12961  Biso   1.000  C
  H9       1.0000 0.60370  0.20130  0.11930  Biso   1.000  H
  H10      1.0000 0.79870  0.60370  0.36930  Biso   1.000  H
  H11      1.0000 0.39630  0.79870  0.61930  Biso   1.000  H
  H12      1.0000 0.20130  0.39630  0.36930  Biso   1.000  H
  H13      1.0000 0.60370  0.79870  0.38070  Biso   1.000  H
  H14      1.0000 0.39630  0.20130  0.88070  Biso   1.000  H
  H15      1.0000 0.20130  0.60370  0.13070  Biso   1.000  H
  H16      1.0000 0.79870  0.39630  0.13070  Biso   1.000  H
  C17      1.0000 0.56500  0.03770  0.12970  Biso   1.000  C
  C18      1.0000 0.96230  0.56500  0.37970  Biso   1.000  C
  C19      1.0000 0.43500  0.96230  0.62970  Biso   1.000  C
  C20      1.0000 0.03770  0.43500  0.37970  Biso   1.000  C
  C21      1.0000 0.56500  0.96230  0.37030  Biso   1.000  C
  C22      1.0000 0.43500  0.03770  0.87030  Biso   1.000  C
  C23      1.0000 0.03770  0.56500  0.12030  Biso   1.000  C
  C24      1.0000 0.96230  0.43500  0.12030  Biso   1.000  C
  H17      1.0000 0.63620  0.04340  0.14360  Biso   1.000  H
  H18      1.0000 0.95660  0.63620  0.39360  Biso   1.000  H
  H19      1.0000 0.36380  0.95660  0.64360  Biso   1.000  H
  H20      1.0000 0.04340  0.36380  0.39360  Biso   1.000  H
  H21      1.0000 0.63620  0.95660  0.35640  Biso   1.000  H
  H22      1.0000 0.36380  0.04340  0.85640  Biso   1.000  H
  H23      1.0000 0.04340  0.63620  0.10640  Biso   1.000  H
  H24      1.0000 0.95660  0.36380  0.10640  Biso   1.000  H
  H25      1.0000 0.58380  0.99260  0.10960  Biso   1.000  H
  H26      1.0000 0.00740  0.58380  0.35960  Biso   1.000  H
  H27      1.0000 0.41620  0.00740  0.60960  Biso   1.000  H
  H28      1.0000 0.99260  0.41620  0.35960  Biso   1.000  H
  H29      1.0000 0.58380  0.00740  0.39040  Biso   1.000  H
  H30      1.0000 0.41620  0.99260  0.89040  Biso   1.000  H
  H31      1.0000 0.99260  0.58380  0.14040  Biso   1.000  H
  H32      1.0000 0.00740  0.41620  0.14040  Biso   1.000  H
  H33      1.0000 0.50070  0.99630  0.14180  Biso   1.000  H
  H34      1.0000 0.00370  0.50070  0.39180  Biso   1.000  H
  H35      1.0000 0.49930  0.00370  0.64180  Biso   1.000  H
  H36      1.0000 0.99630  0.49930  0.39180  Biso   1.000  H
  H37      1.0000 0.50070  0.00370  0.35820  Biso   1.000  H
  H38      1.0000 0.49930  0.99630  0.85820  Biso   1.000  H
  H39      1.0000 0.99630  0.50070  0.10820  Biso   1.000  H
  H40      1.0000 0.00370  0.49930  0.10820  Biso   1.000  H
  C25      1.0000 0.55750  0.32300  0.16120  Biso   1.000  C
  C26      1.0000 0.67700  0.55750  0.41120  Biso   1.000  C
  C27      1.0000 0.44250  0.67700  0.66120  Biso   1.000  C
  C28      1.0000 0.32300  0.44250  0.41120  Biso   1.000  C
  C29      1.0000 0.55750  0.67700  0.33880  Biso   1.000  C
  C30      1.0000 0.44250  0.32300  0.83880  Biso   1.000  C
  C31      1.0000 0.32300  0.55750  0.08880  Biso   1.000  C
  C32      1.0000 0.67700  0.44250  0.08880  Biso   1.000  C
  H41      1.0000 0.51340  0.38110  0.17520  Biso   1.000  H
  H42      1.0000 0.61890  0.51340  0.42520  Biso   1.000  H
  H43      1.0000 0.48660  0.61890  0.67520  Biso   1.000  H
  H44      1.0000 0.38110  0.48660  0.42520  Biso   1.000  H
  H45      1.0000 0.51340  0.61890  0.32480  Biso   1.000  H
  H46      1.0000 0.48660  0.38110  0.82480  Biso   1.000  H
  H47      1.0000 0.38110  0.51340  0.07480  Biso   1.000  H
  H48      1.0000 0.61890  0.48660  0.07480  Biso   1.000  H
  H49      1.0000 0.59980  0.36910  0.14390  Biso   1.000  H
  H50      1.0000 0.63090  0.59980  0.39390  Biso   1.000  H
  H51      1.0000 0.40020  0.63090  0.64390  Biso   1.000  H
  H52      1.0000 0.36910  0.40020  0.39390  Biso   1.000  H
  H53      1.0000 0.59980  0.63090  0.35610  Biso   1.000  H
  H54      1.0000 0.40020  0.36910  0.85610  Biso   1.000  H
  H55      1.0000 0.36910  0.59980  0.10610  Biso   1.000  H
  H56      1.0000 0.63090  0.40020  0.10610  Biso   1.000  H
  C33      1.0000 0.65200  0.25840  0.18290  Biso   1.000  C
  C34      1.0000 0.74160  0.65200  0.43290  Biso   1.000  C
  C35      1.0000 0.34800  0.74160  0.68290  Biso   1.000  C
  C36      1.0000 0.25840  0.34800  0.43290  Biso   1.000  C
  C37      1.0000 0.65200  0.74160  0.31710  Biso   1.000  C
  C38      1.0000 0.34800  0.25840  0.81710  Biso   1.000  C
  C39      1.0000 0.25840  0.65200  0.06710  Biso   1.000  C
  C40      1.0000 0.74160  0.34800  0.06710  Biso   1.000  C
  C41      1.0000 0.77020  0.26150  0.17300  Biso   1.000  C
  C42      1.0000 0.73850  0.77020  0.42300  Biso   1.000  C
  C43      1.0000 0.22980  0.73850  0.67300  Biso   1.000  C
  C44      1.0000 0.26150  0.22980  0.42300  Biso   1.000  C
  C45      1.0000 0.77020  0.73850  0.32700  Biso   1.000  C
  C46      1.0000 0.22980  0.26150  0.82700  Biso   1.000  C
  C47      1.0000 0.26150  0.77020  0.07700  Biso   1.000  C
  C48      1.0000 0.73850  0.22980  0.07700  Biso   1.000  C
  H57      1.0000 0.79210  0.29390  0.15220  Biso   1.000  H
  H58      1.0000 0.70610  0.79210  0.40220  Biso   1.000  H
  H59      1.0000 0.20790  0.70610  0.65220  Biso   1.000  H
  H60      1.0000 0.29390  0.20790  0.40220  Biso   1.000  H
  H61      1.0000 0.79210  0.70610  0.34780  Biso   1.000  H
  H62      1.0000 0.20790  0.29390  0.84780  Biso   1.000  H
  H63      1.0000 0.29390  0.79210  0.09780  Biso   1.000  H
  H64      1.0000 0.70610  0.20790  0.09780  Biso   1.000  H
  C49      1.0000 0.85400  0.21750  0.19360  Biso   1.000  C
  C50      1.0000 0.78250  0.85400  0.44360  Biso   1.000  C
  C51      1.0000 0.14600  0.78250  0.69360  Biso   1.000  C
  C52      1.0000 0.21750  0.14600  0.44360  Biso   1.000  C
  C53      1.0000 0.85400  0.78250  0.30640  Biso   1.000  C
  C54      1.0000 0.14600  0.21750  0.80640  Biso   1.000  C
  C55      1.0000 0.21750  0.85400  0.05640  Biso   1.000  C
  C56      1.0000 0.78250  0.14600  0.05640  Biso   1.000  C
  H65      1.0000 0.93580  0.22230  0.18720  Biso   1.000  H
  H66      1.0000 0.77770  0.93580  0.43720  Biso   1.000  H
  H67      1.0000 0.06420  0.77770  0.68720  Biso   1.000  H
  H68      1.0000 0.22230  0.06420  0.43720  Biso   1.000  H
  H69      1.0000 0.93580  0.77770  0.31280  Biso   1.000  H
  H70      1.0000 0.06420  0.22230  0.81280  Biso   1.000  H
  H71      1.0000 0.22230  0.93580  0.06280  Biso   1.000  H
  H72      1.0000 0.77770  0.06420  0.06280  Biso   1.000  H
  C57      1.0000 0.82790  0.16750  0.22270  Biso   1.000  C
  C58      1.0000 0.83250  0.82790  0.47270  Biso   1.000  C
  C59      1.0000 0.17210  0.83250  0.72270  Biso   1.000  C
  C60      1.0000 0.16750  0.17210  0.47270  Biso   1.000  C
  C61      1.0000 0.82790  0.83250  0.27730  Biso   1.000  C
  C62      1.0000 0.17210  0.16750  0.77730  Biso   1.000  C
  C63      1.0000 0.16750  0.82790  0.02730  Biso   1.000  C
  C64      1.0000 0.83250  0.17210  0.02730  Biso   1.000  C
  H73      1.0000 0.88960  0.14020  0.23700  Biso   1.000  H
  H74      1.0000 0.85980  0.88960  0.48700  Biso   1.000  H
  H75      1.0000 0.11040  0.85980  0.73700  Biso   1.000  H
  H76      1.0000 0.14020  0.11040  0.48700  Biso   1.000  H
  H77      1.0000 0.88960  0.85980  0.26300  Biso   1.000  H
  H78      1.0000 0.11040  0.14020  0.76300  Biso   1.000  H
  H79      1.0000 0.14020  0.88960  0.01300  Biso   1.000  H
  H80      1.0000 0.85980  0.11040  0.01300  Biso   1.000  H
  C65      1.0000 0.71190  0.15690  0.23110  Biso   1.000  C
  C66      1.0000 0.84310  0.71190  0.48110  Biso   1.000  C
  C67      1.0000 0.28810  0.84310  0.73110  Biso   1.000  C
  C68      1.0000 0.15690  0.28810  0.48110  Biso   1.000  C
  C69      1.0000 0.71190  0.84310  0.26890  Biso   1.000  C
  C70      1.0000 0.28810  0.15690  0.76890  Biso   1.000  C
  C71      1.0000 0.15690  0.71190  0.01890  Biso   1.000  C
  C72      1.0000 0.84310  0.28810  0.01890  Biso   1.000  C
  H81      1.0000 0.69080  0.11650  0.25090  Biso   1.000  H
  H82      1.0000 0.88350  0.69080  0.50090  Biso   1.000  H
  H83      1.0000 0.30920  0.88350  0.75090  Biso   1.000  H
  H84      1.0000 0.11650  0.30920  0.50090  Biso   1.000  H
  H85      1.0000 0.69080  0.88350  0.24910  Biso   1.000  H
  H86      1.0000 0.30920  0.11650  0.74910  Biso   1.000  H
  H87      1.0000 0.11650  0.69080  0.99910  Biso   1.000  H
  H88      1.0000 0.88350  0.30920  0.99910  Biso   1.000  H
  C73      1.0000 0.62050  0.20500  0.21080  Biso   1.000  C
  C74      1.0000 0.79500  0.62050  0.46080  Biso   1.000  C
  C75      1.0000 0.37950  0.79500  0.71080  Biso   1.000  C
  C76      1.0000 0.20500  0.37950  0.46080  Biso   1.000  C
  C77      1.0000 0.62050  0.79500  0.28920  Biso   1.000  C
  C78      1.0000 0.37950  0.20500  0.78920  Biso   1.000  C
  C79      1.0000 0.20500  0.62050  0.03920  Biso   1.000  C
  C80      1.0000 0.79500  0.37950  0.03920  Biso   1.000  C
  C81      1.0000 0.74770  0.10360  0.02780  Biso   1.000  C
  C82      1.0000 0.89640  0.74770  0.27780  Biso   1.000  C
  C83      1.0000 0.25230  0.89640  0.52780  Biso   1.000  C
  C84      1.0000 0.10360  0.25230  0.27780  Biso   1.000  C
  C85      1.0000 0.74770  0.89640  0.47220  Biso   1.000  C
  C86      1.0000 0.25230  0.10360  0.97220  Biso   1.000  C
  C87      1.0000 0.10360  0.74770  0.22220  Biso   1.000  C
  C88      1.0000 0.89640  0.25230  0.22220  Biso   1.000  C
  H89      1.0000 0.70660  0.07550  0.04690  Biso   1.000  H
  H90      1.0000 0.92450  0.70660  0.29690  Biso   1.000  H
  H91      1.0000 0.29340  0.92450  0.54690  Biso   1.000  H
  H92      1.0000 0.07550  0.29340  0.29690  Biso   1.000  H
  H93      1.0000 0.70660  0.92450  0.45310  Biso   1.000  H
  H94      1.0000 0.29340  0.07550  0.95310  Biso   1.000  H
  H95      1.0000 0.07550  0.70660  0.20310  Biso   1.000  H
  H96      1.0000 0.92450  0.29340  0.20310  Biso   1.000  H
  C89      1.0000 0.86930  0.10510  0.02780  Biso   1.000  C
  C90      1.0000 0.89490  0.86930  0.27780  Biso   1.000  C
  C91      1.0000 0.13070  0.89490  0.52780  Biso   1.000  C
  C92      1.0000 0.10510  0.13070  0.27780  Biso   1.000  C
  C93      1.0000 0.86930  0.89490  0.47220  Biso   1.000  C
  C94      1.0000 0.13070  0.10510  0.97220  Biso   1.000  C
  C95      1.0000 0.10510  0.86930  0.22220  Biso   1.000  C
  C96      1.0000 0.89490  0.13070  0.22220  Biso   1.000  C
  H97      1.0000 0.91190  0.07970  0.04690  Biso   1.000  H
  H98      1.0000 0.92030  0.91190  0.29690  Biso   1.000  H
  H99      1.0000 0.08810  0.92030  0.54690  Biso   1.000  H
  H100     1.0000 0.07970  0.08810  0.29690  Biso   1.000  H
  H101     1.0000 0.91190  0.92030  0.45310  Biso   1.000  H
  H102     1.0000 0.08810  0.07970  0.95310  Biso   1.000  H
  H103     1.0000 0.07970  0.91190  0.20310  Biso   1.000  H
  H104     1.0000 0.92030  0.08810  0.20310  Biso   1.000  H
  C97      1.0000 0.93340  0.14440  0.99961  Biso   1.000  C
  C98      1.0000 0.85560  0.93340  0.24961  Biso   1.000  C
  C99      1.0000 0.06660  0.85560  0.49961  Biso   1.000  C
  C100     1.0000 0.14440  0.06660  0.24961  Biso   1.000  C
  C101     1.0000 0.93340  0.85560  0.50039  Biso   1.000  C
  C102     1.0000 0.06660  0.14440  0.00039  Biso   1.000  C
  C103     1.0000 0.14440  0.93340  0.25039  Biso   1.000  C
  C104     1.0000 0.85560  0.06660  0.25039  Biso   1.000  C
  C105     1.0000 0.86740  0.18090  0.97348  Biso   1.000  C
  C106     1.0000 0.81910  0.86740  0.22348  Biso   1.000  C
  C107     1.0000 0.13260  0.81910  0.47348  Biso   1.000  C
  C108     1.0000 0.18090  0.13260  0.22348  Biso   1.000  C
  C109     1.0000 0.86740  0.81910  0.52652  Biso   1.000  C
  C110     1.0000 0.13260  0.18090  0.02652  Biso   1.000  C
  C111     1.0000 0.18090  0.86740  0.27652  Biso   1.000  C
  C112     1.0000 0.81910  0.13260  0.27652  Biso   1.000  C
  H105     1.0000 0.90690  0.20710  0.95400  Biso   1.000  H
  H106     1.0000 0.79290  0.90690  0.20400  Biso   1.000  H
  H107     1.0000 0.09310  0.79290  0.45400  Biso   1.000  H
  H108     1.0000 0.20710  0.09310  0.20400  Biso   1.000  H
  H109     1.0000 0.90690  0.79290  0.54600  Biso   1.000  H
  H110     1.0000 0.09310  0.20710  0.04600  Biso   1.000  H
  H111     1.0000 0.20710  0.90690  0.29600  Biso   1.000  H
  H112     1.0000 0.79290  0.09310  0.29600  Biso   1.000  H
  C113     1.0000 0.74550  0.18070  0.97467  Biso   1.000  C
  C114     1.0000 0.81930  0.74550  0.22467  Biso   1.000  C
  C115     1.0000 0.25450  0.81930  0.47467  Biso   1.000  C
  C116     1.0000 0.18070  0.25450  0.22467  Biso   1.000  C
  C117     1.0000 0.74550  0.81930  0.52533  Biso   1.000  C
  C118     1.0000 0.25450  0.18070  0.02533  Biso   1.000  C
  C119     1.0000 0.18070  0.74550  0.27533  Biso   1.000  C
  C120     1.0000 0.81930  0.25450  0.27533  Biso   1.000  C
  H113     1.0000 0.70260  0.20950  0.95600  Biso   1.000  H
  H114     1.0000 0.79050  0.70260  0.20600  Biso   1.000  H
  H115     1.0000 0.29740  0.79050  0.45600  Biso   1.000  H
  H116     1.0000 0.20950  0.29740  0.20600  Biso   1.000  H
  H117     1.0000 0.70260  0.79050  0.54400  Biso   1.000  H
  H118     1.0000 0.29740  0.20950  0.04400  Biso   1.000  H
  H119     1.0000 0.20950  0.70260  0.29400  Biso   1.000  H
  H120     1.0000 0.79050  0.29740  0.29400  Biso   1.000  H
  C121     1.0000 0.56470  0.38560  0.02184  Biso   1.000  C
  C122     1.0000 0.61440  0.56470  0.27184  Biso   1.000  C
  C123     1.0000 0.43530  0.61440  0.52184  Biso   1.000  C
  C124     1.0000 0.38560  0.43530  0.27184  Biso   1.000  C
  C125     1.0000 0.56470  0.61440  0.47816  Biso   1.000  C
  C126     1.0000 0.43530  0.38560  0.97816  Biso   1.000  C
  C127     1.0000 0.38560  0.56470  0.22816  Biso   1.000  C
  C128     1.0000 0.61440  0.43530  0.22816  Biso   1.000  C
  H121     1.0000 0.61080  0.34270  0.03770  Biso   1.000  H
  H122     1.0000 0.65730  0.61080  0.28770  Biso   1.000  H
  H123     1.0000 0.38920  0.65730  0.53770  Biso   1.000  H
  H124     1.0000 0.34270  0.38920  0.28770  Biso   1.000  H
  H125     1.0000 0.61080  0.65730  0.46230  Biso   1.000  H
  H126     1.0000 0.38920  0.34270  0.96230  Biso   1.000  H
  H127     1.0000 0.34270  0.61080  0.21230  Biso   1.000  H
  H128     1.0000 0.65730  0.38920  0.21230  Biso   1.000  H
  C129     1.0000 0.56820  0.50950  0.02262  Biso   1.000  C
  C130     1.0000 0.49050  0.56820  0.27262  Biso   1.000  C
  C131     1.0000 0.43180  0.49050  0.52262  Biso   1.000  C
  C132     1.0000 0.50950  0.43180  0.27262  Biso   1.000  C
  C133     1.0000 0.56820  0.49050  0.47738  Biso   1.000  C
  C134     1.0000 0.43180  0.50950  0.97738  Biso   1.000  C
  C135     1.0000 0.50950  0.56820  0.22738  Biso   1.000  C
  C136     1.0000 0.49050  0.43180  0.22738  Biso   1.000  C
  H129     1.0000 0.61660  0.54990  0.03840  Biso   1.000  H
  H130     1.0000 0.45010  0.61660  0.28840  Biso   1.000  H
  H131     1.0000 0.38340  0.45010  0.53840  Biso   1.000  H
  H132     1.0000 0.54990  0.38340  0.28840  Biso   1.000  H
  H133     1.0000 0.61660  0.45010  0.46160  Biso   1.000  H
  H134     1.0000 0.38340  0.54990  0.96160  Biso   1.000  H
  H135     1.0000 0.54990  0.61660  0.21160  Biso   1.000  H
  H136     1.0000 0.45010  0.38340  0.21160  Biso   1.000  H
  C137     1.0000 0.50000  0.57460  0.00000  Biso   1.000  C
  C138     1.0000 0.42540  0.50000  0.25000  Biso   1.000  C
  C139     1.0000 0.50000  0.42540  0.50000  Biso   1.000  C
  C140     1.0000 0.57460  0.50000  0.25000  Biso   1.000  C
  C141     1.0000 0.50000  0.70680  0.00000  Biso   1.000  C
  C142     1.0000 0.29320  0.50000  0.25000  Biso   1.000  C
  C143     1.0000 0.50000  0.29320  0.50000  Biso   1.000  C
  C144     1.0000 0.70680  0.50000  0.25000  Biso   1.000  C
  C145     1.0000 0.51860  0.77330  0.02838  Biso   1.000  C
  C146     1.0000 0.22670  0.51860  0.27838  Biso   1.000  C
  C147     1.0000 0.48140  0.22670  0.52838  Biso   1.000  C
  C148     1.0000 0.77330  0.48140  0.27838  Biso   1.000  C
  C149     1.0000 0.51860  0.22670  0.47162  Biso   1.000  C
  C150     1.0000 0.48140  0.77330  0.97162  Biso   1.000  C
  C151     1.0000 0.77330  0.51860  0.22162  Biso   1.000  C
  C152     1.0000 0.22670  0.48140  0.22162  Biso   1.000  C
  H137     1.0000 0.53200  0.73320  0.04870  Biso   1.000  H
  H138     1.0000 0.26680  0.53200  0.29870  Biso   1.000  H
  H139     1.0000 0.46800  0.26680  0.54870  Biso   1.000  H
  H140     1.0000 0.73320  0.46800  0.29870  Biso   1.000  H
  H141     1.0000 0.53200  0.26680  0.45130  Biso   1.000  H
  H142     1.0000 0.46800  0.73320  0.95130  Biso   1.000  H
  H143     1.0000 0.73320  0.53200  0.20130  Biso   1.000  H
  H144     1.0000 0.26680  0.46800  0.20130  Biso   1.000  H
  C153     1.0000 0.51790  0.89620  0.02756  Biso   1.000  C
  C154     1.0000 0.10380  0.51790  0.27756  Biso   1.000  C
  C155     1.0000 0.48210  0.10380  0.52756  Biso   1.000  C
  C156     1.0000 0.89620  0.48210  0.27756  Biso   1.000  C
  C157     1.0000 0.51790  0.10380  0.47244  Biso   1.000  C
  C158     1.0000 0.48210  0.89620  0.97244  Biso   1.000  C
  C159     1.0000 0.89620  0.51790  0.22244  Biso   1.000  C
  C160     1.0000 0.10380  0.48210  0.22244  Biso   1.000  C
  H145     1.0000 0.53070  0.93920  0.04750  Biso   1.000  H
  H146     1.0000 0.06080  0.53070  0.29750  Biso   1.000  H
  H147     1.0000 0.46930  0.06080  0.54750  Biso   1.000  H
  H148     1.0000 0.93920  0.46930  0.29750  Biso   1.000  H
  H149     1.0000 0.53070  0.06080  0.45250  Biso   1.000  H
  H150     1.0000 0.46930  0.93920  0.95250  Biso   1.000  H
  H151     1.0000 0.93920  0.53070  0.20250  Biso   1.000  H
  H152     1.0000 0.06080  0.46930  0.20250  Biso   1.000  H
  C161     1.0000 0.47400  0.03430  0.12630  Biso   1.000  C
  C162     1.0000 0.96570  0.47400  0.37630  Biso   1.000  C
  C163     1.0000 0.52600  0.96570  0.62630  Biso   1.000  C
  C164     1.0000 0.03430  0.52600  0.37630  Biso   1.000  C
  C165     1.0000 0.47400  0.96570  0.37370  Biso   1.000  C
  C166     1.0000 0.52600  0.03430  0.87370  Biso   1.000  C
  C167     1.0000 0.03430  0.47400  0.12370  Biso   1.000  C
  C168     1.0000 0.96570  0.52600  0.12370  Biso   1.000  C
  H153     1.0000 0.49630  0.00780  0.14860  Biso   1.000  H
  H154     1.0000 0.99220  0.49630  0.39860  Biso   1.000  H
  H155     1.0000 0.50370  0.99220  0.64860  Biso   1.000  H
  H156     1.0000 0.00780  0.50370  0.39860  Biso   1.000  H
  H157     1.0000 0.49630  0.99220  0.35140  Biso   1.000  H
  H158     1.0000 0.50370  0.00780  0.85140  Biso   1.000  H
  H159     1.0000 0.00780  0.49630  0.10140  Biso   1.000  H
  H160     1.0000 0.99220  0.50370  0.10140  Biso   1.000  H
  H161     1.0000 0.50900  0.97950  0.11000  Biso   1.000  H
  H162     1.0000 0.02050  0.50900  0.36000  Biso   1.000  H
  H163     1.0000 0.49100  0.02050  0.61000  Biso   1.000  H
  H164     1.0000 0.97950  0.49100  0.36000  Biso   1.000  H
  H165     1.0000 0.50900  0.02050  0.39000  Biso   1.000  H
  H166     1.0000 0.49100  0.97950  0.89000  Biso   1.000  H
  H167     1.0000 0.97950  0.50900  0.14000  Biso   1.000  H
  H168     1.0000 0.02050  0.49100  0.14000  Biso   1.000  H
  H169     1.0000 0.38660  0.03420  0.12420  Biso   1.000  H
  H170     1.0000 0.96580  0.38660  0.37420  Biso   1.000  H
  H171     1.0000 0.61340  0.96580  0.62420  Biso   1.000  H
  H172     1.0000 0.03420  0.61340  0.37420  Biso   1.000  H
  H173     1.0000 0.38660  0.96580  0.37580  Biso   1.000  H
  H174     1.0000 0.61340  0.03420  0.87580  Biso   1.000  H
  H175     1.0000 0.03420  0.38660  0.12580  Biso   1.000  H
  H176     1.0000 0.96580  0.61340  0.12580  Biso   1.000  H
  O47      1.0000 0.59010  0.28830  0.41514  Biso   1.000  O
  O48      1.0000 0.71170  0.59010  0.66514  Biso   1.000  O
  O49      1.0000 0.71170  0.40990  0.83486  Biso   1.000  O
  O50      1.0000 0.59010  0.71170  0.08486  Biso   1.000  O
  N25      1.0000 0.52900  0.24330  0.35454  Biso   1.000  N
  N26      1.0000 0.75670  0.52900  0.60454  Biso   1.000  N
  N27      1.0000 0.75670  0.47100  0.89546  Biso   1.000  N
  N28      1.0000 0.52900  0.75670  0.14546  Biso   1.000  N
  H177     1.0000 0.56420  0.19620  0.33820  Biso   1.000  H
  H178     1.0000 0.80380  0.56420  0.58820  Biso   1.000  H
  H179     1.0000 0.80380  0.43580  0.91180  Biso   1.000  H
  H180     1.0000 0.56420  0.80380  0.16180  Biso   1.000  H
