data_image0
_cell_length_a       27.435
_cell_length_b       10.4861
_cell_length_c       23.51
_cell_angle_alpha    90
_cell_angle_beta     107.52
_cell_angle_gamma    90

_symmetry_space_group_name_H-M    "P 1"
_symmetry_int_tables_number       1

loop_
  _symmetry_equiv_pos_as_xyz
  'x, y, z'

loop_
  _atom_site_label
  _atom_site_occupancy
  _atom_site_fract_x
  _atom_site_fract_y
  _atom_site_fract_z
  _atom_site_thermal_displace_type
  _atom_site_B_iso_or_equiv
  _atom_site_type_symbol
  Dy1      1.0000 0.00000  0.99011  0.25000  Biso   1.000  Dy
  Dy2      1.0000 0.50000  0.49011  0.25000  Biso   1.000  Dy
  Dy3      1.0000 0.00000  0.00989  0.75000  Biso   1.000  Dy
  Dy4      1.0000 0.50000  0.50989  0.75000  Biso   1.000  Dy
  Cu1      1.0000 0.25000  0.25000  0.50000  Biso   1.000  Cu
  Cu2      1.0000 0.75000  0.25000  0.00000  Biso   1.000  Cu
  Cu3      1.0000 0.75000  0.75000  0.50000  Biso   1.000  Cu
  Cu4      1.0000 0.25000  0.75000  0.00000  Biso   1.000  Cu
  Br1      1.0000 0.09669  0.87925  0.48405  Biso   1.000  Br
  Br2      1.0000 0.90331  0.87925  0.01595  Biso   1.000  Br
  Br3      1.0000 0.59669  0.37925  0.48405  Biso   1.000  Br
  Br4      1.0000 0.40331  0.37925  0.01595  Biso   1.000  Br
  Br5      1.0000 0.90331  0.12075  0.51595  Biso   1.000  Br
  Br6      1.0000 0.09669  0.12075  0.98405  Biso   1.000  Br
  Br7      1.0000 0.40331  0.62075  0.51595  Biso   1.000  Br
  Br8      1.0000 0.59669  0.62075  0.98405  Biso   1.000  Br
  O1       1.0000 0.27081  0.10260  0.55558  Biso   1.000  O
  O2       1.0000 0.72919  0.10260  0.94442  Biso   1.000  O
  O3       1.0000 0.77081  0.60260  0.55558  Biso   1.000  O
  O4       1.0000 0.22919  0.60260  0.94442  Biso   1.000  O
  O5       1.0000 0.72919  0.89740  0.44442  Biso   1.000  O
  O6       1.0000 0.27081  0.89740  0.05558  Biso   1.000  O
  O7       1.0000 0.22919  0.39740  0.44442  Biso   1.000  O
  O8       1.0000 0.77081  0.39740  0.05558  Biso   1.000  O
  O9       1.0000 0.08068  0.90190  0.25908  Biso   1.000  O
  O10      1.0000 0.91932  0.90190  0.24092  Biso   1.000  O
  O11      1.0000 0.58068  0.40190  0.25908  Biso   1.000  O
  O12      1.0000 0.41932  0.40190  0.24092  Biso   1.000  O
  O13      1.0000 0.91932  0.09810  0.74092  Biso   1.000  O
  O14      1.0000 0.08068  0.09810  0.75908  Biso   1.000  O
  O15      1.0000 0.41932  0.59810  0.74092  Biso   1.000  O
  O16      1.0000 0.58068  0.59810  0.75908  Biso   1.000  O
  N1       1.0000 0.19590  0.13500  0.44870  Biso   1.000  N
  N2       1.0000 0.80410  0.13500  0.05130  Biso   1.000  N
  N3       1.0000 0.69590  0.63500  0.44870  Biso   1.000  N
  N4       1.0000 0.30410  0.63500  0.05130  Biso   1.000  N
  N5       1.0000 0.80410  0.86500  0.55130  Biso   1.000  N
  N6       1.0000 0.19590  0.86500  0.94870  Biso   1.000  N
  N7       1.0000 0.30410  0.36500  0.55130  Biso   1.000  N
  N8       1.0000 0.69590  0.36500  0.94870  Biso   1.000  N
  C1       1.0000 0.16180  0.01780  0.35850  Biso   1.000  C
  C2       1.0000 0.83820  0.01780  0.14150  Biso   1.000  C
  C3       1.0000 0.66180  0.51780  0.35850  Biso   1.000  C
  C4       1.0000 0.33820  0.51780  0.14150  Biso   1.000  C
  C5       1.0000 0.83820  0.98220  0.64150  Biso   1.000  C
  C6       1.0000 0.16180  0.98220  0.85850  Biso   1.000  C
  C7       1.0000 0.33820  0.48220  0.64150  Biso   1.000  C
  C8       1.0000 0.66180  0.48220  0.85850  Biso   1.000  C
  O17      1.0000 0.05807  0.15970  0.26419  Biso   1.000  O
  O18      1.0000 0.94193  0.15970  0.23581  Biso   1.000  O
  O19      1.0000 0.55807  0.65970  0.26419  Biso   1.000  O
  O20      1.0000 0.44193  0.65970  0.23581  Biso   1.000  O
  O21      1.0000 0.94193  0.84030  0.73581  Biso   1.000  O
  O22      1.0000 0.05807  0.84030  0.76419  Biso   1.000  O
  O23      1.0000 0.44193  0.34030  0.73581  Biso   1.000  O
  O24      1.0000 0.55807  0.34030  0.76419  Biso   1.000  O
  F1       1.0000 0.15245  0.29140  0.28340  Biso   1.000  F
  F2       1.0000 0.84755  0.29140  0.21660  Biso   1.000  F
  F3       1.0000 0.65245  0.79140  0.28340  Biso   1.000  F
  F4       1.0000 0.34755  0.79140  0.21660  Biso   1.000  F
  F5       1.0000 0.84755  0.70860  0.71660  Biso   1.000  F
  F6       1.0000 0.15245  0.70860  0.78340  Biso   1.000  F
  F7       1.0000 0.34755  0.20860  0.71660  Biso   1.000  F
  F8       1.0000 0.65245  0.20860  0.78340  Biso   1.000  F
  F9       1.0000 0.07419  0.61870  0.38910  Biso   1.000  F
  F10      1.0000 0.92581  0.61870  0.11090  Biso   1.000  F
  F11      1.0000 0.57419  0.11870  0.38910  Biso   1.000  F
  F12      1.0000 0.42581  0.11870  0.11090  Biso   1.000  F
  F13      1.0000 0.92581  0.38130  0.61090  Biso   1.000  F
  F14      1.0000 0.07419  0.38130  0.88910  Biso   1.000  F
  F15      1.0000 0.42581  0.88130  0.61090  Biso   1.000  F
  F16      1.0000 0.57419  0.88130  0.88910  Biso   1.000  F
  O25      1.0000 0.31155  0.17970  0.45597  Biso   1.000  O
  O26      1.0000 0.68845  0.17970  0.04403  Biso   1.000  O
  O27      1.0000 0.81155  0.67970  0.45597  Biso   1.000  O
  O28      1.0000 0.18845  0.67970  0.04403  Biso   1.000  O
  O29      1.0000 0.68845  0.82030  0.54403  Biso   1.000  O
  O30      1.0000 0.31155  0.82030  0.95597  Biso   1.000  O
  O31      1.0000 0.18845  0.32030  0.54403  Biso   1.000  O
  O32      1.0000 0.81155  0.32030  0.95597  Biso   1.000  O
  O33      1.0000 0.01407  0.81340  0.31366  Biso   1.000  O
  O34      1.0000 0.98593  0.81340  0.18634  Biso   1.000  O
  O35      1.0000 0.51407  0.31340  0.31366  Biso   1.000  O
  O36      1.0000 0.48593  0.31340  0.18634  Biso   1.000  O
  O37      1.0000 0.98593  0.18660  0.68634  Biso   1.000  O
  O38      1.0000 0.01407  0.18660  0.81366  Biso   1.000  O
  O39      1.0000 0.48593  0.68660  0.68634  Biso   1.000  O
  O40      1.0000 0.51407  0.68660  0.81366  Biso   1.000  O
  C9       1.0000 0.13450  0.97340  0.44370  Biso   1.000  C
  C10      1.0000 0.86550  0.97340  0.05630  Biso   1.000  C
  C11      1.0000 0.63450  0.47340  0.44370  Biso   1.000  C
  C12      1.0000 0.36550  0.47340  0.05630  Biso   1.000  C
  C13      1.0000 0.86550  0.02660  0.55630  Biso   1.000  C
  C14      1.0000 0.13450  0.02660  0.94370  Biso   1.000  C
  C15      1.0000 0.36550  0.52660  0.55630  Biso   1.000  C
  C16      1.0000 0.63450  0.52660  0.94370  Biso   1.000  C
  F17      1.0000 0.30068  0.77720  0.56790  Biso   1.000  F
  F18      1.0000 0.69932  0.77720  0.93210  Biso   1.000  F
  F19      1.0000 0.80068  0.27720  0.56790  Biso   1.000  F
  F20      1.0000 0.19932  0.27720  0.93210  Biso   1.000  F
  F21      1.0000 0.69932  0.22280  0.43210  Biso   1.000  F
  F22      1.0000 0.30068  0.22280  0.06790  Biso   1.000  F
  F23      1.0000 0.19932  0.72280  0.43210  Biso   1.000  F
  F24      1.0000 0.80068  0.72280  0.06790  Biso   1.000  F
  N9       1.0000 0.12503  0.93530  0.25495  Biso   1.000  N
  N10      1.0000 0.87497  0.93530  0.24505  Biso   1.000  N
  N11      1.0000 0.62503  0.43530  0.25495  Biso   1.000  N
  N12      1.0000 0.37497  0.43530  0.24505  Biso   1.000  N
  N13      1.0000 0.87497  0.06470  0.74505  Biso   1.000  N
  N14      1.0000 0.12503  0.06470  0.75495  Biso   1.000  N
  N15      1.0000 0.37497  0.56470  0.74505  Biso   1.000  N
  N16      1.0000 0.62503  0.56470  0.75495  Biso   1.000  N
  N17      1.0000 0.20302  0.00740  0.27695  Biso   1.000  N
  N18      1.0000 0.79698  0.00740  0.22305  Biso   1.000  N
  N19      1.0000 0.70302  0.50740  0.27695  Biso   1.000  N
  N20      1.0000 0.29698  0.50740  0.22305  Biso   1.000  N
  N21      1.0000 0.79698  0.99260  0.72305  Biso   1.000  N
  N22      1.0000 0.20302  0.99260  0.77695  Biso   1.000  N
  N23      1.0000 0.29698  0.49260  0.72305  Biso   1.000  N
  N24      1.0000 0.70302  0.49260  0.77695  Biso   1.000  N
  F25      1.0000 0.30500  0.90650  0.63910  Biso   1.000  F
  F26      1.0000 0.69500  0.90650  0.86090  Biso   1.000  F
  F27      1.0000 0.80500  0.40650  0.63910  Biso   1.000  F
  F28      1.0000 0.19500  0.40650  0.86090  Biso   1.000  F
  F29      1.0000 0.69500  0.09350  0.36090  Biso   1.000  F
  F30      1.0000 0.30500  0.09350  0.13910  Biso   1.000  F
  F31      1.0000 0.19500  0.59350  0.36090  Biso   1.000  F
  F32      1.0000 0.80500  0.59350  0.13910  Biso   1.000  F
  F33      1.0000 0.23333  0.87080  0.57390  Biso   1.000  F
  F34      1.0000 0.76667  0.87080  0.92610  Biso   1.000  F
  F35      1.0000 0.73333  0.37080  0.57390  Biso   1.000  F
  F36      1.0000 0.26667  0.37080  0.92610  Biso   1.000  F
  F37      1.0000 0.76667  0.12920  0.42610  Biso   1.000  F
  F38      1.0000 0.23333  0.12920  0.07390  Biso   1.000  F
  F39      1.0000 0.26667  0.62920  0.42610  Biso   1.000  F
  F40      1.0000 0.73333  0.62920  0.07390  Biso   1.000  F
  O41      1.0000 0.24531  0.05800  0.30511  Biso   1.000  O
  O42      1.0000 0.75469  0.05800  0.19489  Biso   1.000  O
  O43      1.0000 0.74531  0.55800  0.30511  Biso   1.000  O
  O44      1.0000 0.25469  0.55800  0.19489  Biso   1.000  O
  O45      1.0000 0.75469  0.94200  0.69489  Biso   1.000  O
  O46      1.0000 0.24531  0.94200  0.80511  Biso   1.000  O
  O47      1.0000 0.25469  0.44200  0.69489  Biso   1.000  O
  O48      1.0000 0.74531  0.44200  0.80511  Biso   1.000  O
  C17      1.0000 0.16641  0.06870  0.47420  Biso   1.000  C
  C18      1.0000 0.83359  0.06870  0.02580  Biso   1.000  C
  C19      1.0000 0.66641  0.56870  0.47420  Biso   1.000  C
  C20      1.0000 0.33359  0.56870  0.02580  Biso   1.000  C
  C21      1.0000 0.83359  0.93130  0.52580  Biso   1.000  C
  C22      1.0000 0.16641  0.93130  0.97420  Biso   1.000  C
  C23      1.0000 0.33359  0.43130  0.52580  Biso   1.000  C
  C24      1.0000 0.66641  0.43130  0.97420  Biso   1.000  C
  H1       1.0000 0.16750  0.08720  0.51320  Biso   1.000  H
  H2       1.0000 0.83250  0.08720  0.98680  Biso   1.000  H
  H3       1.0000 0.66750  0.58720  0.51320  Biso   1.000  H
  H4       1.0000 0.33250  0.58720  0.98680  Biso   1.000  H
  H5       1.0000 0.83250  0.91280  0.48680  Biso   1.000  H
  H6       1.0000 0.16750  0.91280  0.01320  Biso   1.000  H
  H7       1.0000 0.33250  0.41280  0.48680  Biso   1.000  H
  H8       1.0000 0.66750  0.41280  0.01320  Biso   1.000  H
  C25      1.0000 0.13112  0.94680  0.38540  Biso   1.000  C
  C26      1.0000 0.86888  0.94680  0.11460  Biso   1.000  C
  C27      1.0000 0.63112  0.44680  0.38540  Biso   1.000  C
  C28      1.0000 0.36888  0.44680  0.11460  Biso   1.000  C
  C29      1.0000 0.86888  0.05320  0.61460  Biso   1.000  C
  C30      1.0000 0.13112  0.05320  0.88540  Biso   1.000  C
  C31      1.0000 0.36888  0.55320  0.61460  Biso   1.000  C
  C32      1.0000 0.63112  0.55320  0.88540  Biso   1.000  C
  H9       1.0000 0.10920  0.88380  0.36430  Biso   1.000  H
  H10      1.0000 0.89080  0.88380  0.13570  Biso   1.000  H
  H11      1.0000 0.60920  0.38380  0.36430  Biso   1.000  H
  H12      1.0000 0.39080  0.38380  0.13570  Biso   1.000  H
  H13      1.0000 0.89080  0.11620  0.63570  Biso   1.000  H
  H14      1.0000 0.10920  0.11620  0.86430  Biso   1.000  H
  H15      1.0000 0.39080  0.61620  0.63570  Biso   1.000  H
  H16      1.0000 0.60920  0.61620  0.86430  Biso   1.000  H
  C33      1.0000 0.10010  0.90330  0.14520  Biso   1.000  C
  C34      1.0000 0.89990  0.90330  0.35480  Biso   1.000  C
  C35      1.0000 0.60010  0.40330  0.14520  Biso   1.000  C
  C36      1.0000 0.39990  0.40330  0.35480  Biso   1.000  C
  C37      1.0000 0.89990  0.09670  0.85480  Biso   1.000  C
  C38      1.0000 0.10010  0.09670  0.64520  Biso   1.000  C
  C39      1.0000 0.39990  0.59670  0.85480  Biso   1.000  C
  C40      1.0000 0.60010  0.59670  0.64520  Biso   1.000  C
  H17      1.0000 0.07210  0.84850  0.14530  Biso   1.000  H
  H18      1.0000 0.92790  0.84850  0.35470  Biso   1.000  H
  H19      1.0000 0.57210  0.34850  0.14530  Biso   1.000  H
  H20      1.0000 0.42790  0.34850  0.35470  Biso   1.000  H
  H21      1.0000 0.92790  0.15150  0.85470  Biso   1.000  H
  H22      1.0000 0.07210  0.15150  0.64530  Biso   1.000  H
  H23      1.0000 0.42790  0.65150  0.85470  Biso   1.000  H
  H24      1.0000 0.57210  0.65150  0.64530  Biso   1.000  H
  H25      1.0000 0.11270  0.88050  0.11270  Biso   1.000  H
  H26      1.0000 0.88730  0.88050  0.38730  Biso   1.000  H
  H27      1.0000 0.61270  0.38050  0.11270  Biso   1.000  H
  H28      1.0000 0.38730  0.38050  0.38730  Biso   1.000  H
  H29      1.0000 0.88730  0.11950  0.88730  Biso   1.000  H
  H30      1.0000 0.11270  0.11950  0.61270  Biso   1.000  H
  H31      1.0000 0.38730  0.61950  0.88730  Biso   1.000  H
  H32      1.0000 0.61270  0.61950  0.61270  Biso   1.000  H
  H33      1.0000 0.08870  0.99030  0.14070  Biso   1.000  H
  H34      1.0000 0.91130  0.99030  0.35930  Biso   1.000  H
  H35      1.0000 0.58870  0.49030  0.14070  Biso   1.000  H
  H36      1.0000 0.41130  0.49030  0.35930  Biso   1.000  H
  H37      1.0000 0.91130  0.00970  0.85930  Biso   1.000  H
  H38      1.0000 0.08870  0.00970  0.64070  Biso   1.000  H
  H39      1.0000 0.41130  0.50970  0.85930  Biso   1.000  H
  H40      1.0000 0.58870  0.50970  0.64070  Biso   1.000  H
  C41      1.0000 0.14269  0.88850  0.20380  Biso   1.000  C
  C42      1.0000 0.85731  0.88850  0.29620  Biso   1.000  C
  C43      1.0000 0.64269  0.38850  0.20380  Biso   1.000  C
  C44      1.0000 0.35731  0.38850  0.29620  Biso   1.000  C
  C45      1.0000 0.85731  0.11150  0.79620  Biso   1.000  C
  C46      1.0000 0.14269  0.11150  0.70380  Biso   1.000  C
  C47      1.0000 0.35731  0.61150  0.79620  Biso   1.000  C
  C48      1.0000 0.64269  0.61150  0.70380  Biso   1.000  C
  F41      1.0000 0.00194  0.66450  0.40030  Biso   1.000  F
  F42      1.0000 0.99806  0.66450  0.09970  Biso   1.000  F
  F43      1.0000 0.50194  0.16450  0.40030  Biso   1.000  F
  F44      1.0000 0.49806  0.16450  0.09970  Biso   1.000  F
  F45      1.0000 0.99806  0.33550  0.59970  Biso   1.000  F
  F46      1.0000 0.00194  0.33550  0.90030  Biso   1.000  F
  F47      1.0000 0.49806  0.83550  0.59970  Biso   1.000  F
  F48      1.0000 0.50194  0.83550  0.90030  Biso   1.000  F
  F49      1.0000 0.38820  0.12700  0.41480  Biso   1.000  F
  F50      1.0000 0.61180  0.12700  0.08520  Biso   1.000  F
  F51      1.0000 0.88820  0.62700  0.41480  Biso   1.000  F
  F52      1.0000 0.11180  0.62700  0.08520  Biso   1.000  F
  F53      1.0000 0.61180  0.87300  0.58520  Biso   1.000  F
  F54      1.0000 0.38820  0.87300  0.91480  Biso   1.000  F
  F55      1.0000 0.11180  0.37300  0.58520  Biso   1.000  F
  F56      1.0000 0.88820  0.37300  0.91480  Biso   1.000  F
  C49      1.0000 0.31870  0.97800  0.50550  Biso   1.000  C
  C50      1.0000 0.68130  0.97800  0.99450  Biso   1.000  C
  C51      1.0000 0.81870  0.47800  0.50550  Biso   1.000  C
  C52      1.0000 0.18130  0.47800  0.99450  Biso   1.000  C
  C53      1.0000 0.68130  0.02200  0.49450  Biso   1.000  C
  C54      1.0000 0.31870  0.02200  0.00550  Biso   1.000  C
  C55      1.0000 0.18130  0.52200  0.49450  Biso   1.000  C
  C56      1.0000 0.81870  0.52200  0.00550  Biso   1.000  C
  H41      1.0000 0.33140  0.89610  0.50430  Biso   1.000  H
  H42      1.0000 0.66860  0.89610  0.99570  Biso   1.000  H
  H43      1.0000 0.83140  0.39610  0.50430  Biso   1.000  H
  H44      1.0000 0.16860  0.39610  0.99570  Biso   1.000  H
  H45      1.0000 0.66860  0.10390  0.49570  Biso   1.000  H
  H46      1.0000 0.33140  0.10390  0.00430  Biso   1.000  H
  H47      1.0000 0.16860  0.60390  0.49570  Biso   1.000  H
  H48      1.0000 0.83140  0.60390  0.00430  Biso   1.000  H
  F57      1.0000 0.40817  0.97130  0.47220  Biso   1.000  F
  F58      1.0000 0.59183  0.97130  0.02780  Biso   1.000  F
  F59      1.0000 0.90817  0.47130  0.47220  Biso   1.000  F
  F60      1.0000 0.09183  0.47130  0.02780  Biso   1.000  F
  F61      1.0000 0.59183  0.02870  0.52780  Biso   1.000  F
  F62      1.0000 0.40817  0.02870  0.97220  Biso   1.000  F
  F63      1.0000 0.09183  0.52870  0.52780  Biso   1.000  F
  F64      1.0000 0.90817  0.52870  0.97220  Biso   1.000  F
  C57      1.0000 0.16225  0.98940  0.29770  Biso   1.000  C
  C58      1.0000 0.83775  0.98940  0.20230  Biso   1.000  C
  C59      1.0000 0.66225  0.48940  0.29770  Biso   1.000  C
  C60      1.0000 0.33775  0.48940  0.20230  Biso   1.000  C
  C61      1.0000 0.83775  0.01060  0.70230  Biso   1.000  C
  C62      1.0000 0.16225  0.01060  0.79770  Biso   1.000  C
  C63      1.0000 0.33775  0.51060  0.70230  Biso   1.000  C
  C64      1.0000 0.66225  0.51060  0.79770  Biso   1.000  C
  C65      1.0000 0.19389  0.11080  0.39200  Biso   1.000  C
  C66      1.0000 0.80611  0.11080  0.10800  Biso   1.000  C
  C67      1.0000 0.69389  0.61080  0.39200  Biso   1.000  C
  C68      1.0000 0.30611  0.61080  0.10800  Biso   1.000  C
  C69      1.0000 0.80611  0.88920  0.60800  Biso   1.000  C
  C70      1.0000 0.19389  0.88920  0.89200  Biso   1.000  C
  C71      1.0000 0.30611  0.38920  0.60800  Biso   1.000  C
  C72      1.0000 0.69389  0.38920  0.89200  Biso   1.000  C
  H49      1.0000 0.21450  0.15740  0.37470  Biso   1.000  H
  H50      1.0000 0.78550  0.15740  0.12530  Biso   1.000  H
  H51      1.0000 0.71450  0.65740  0.37470  Biso   1.000  H
  H52      1.0000 0.28550  0.65740  0.12530  Biso   1.000  H
  H53      1.0000 0.78550  0.84260  0.62530  Biso   1.000  H
  H54      1.0000 0.21450  0.84260  0.87470  Biso   1.000  H
  H55      1.0000 0.28550  0.34260  0.62530  Biso   1.000  H
  H56      1.0000 0.71450  0.34260  0.87470  Biso   1.000  H
  F65      1.0000 0.01210  0.49460  0.35140  Biso   1.000  F
  F66      1.0000 0.98790  0.49460  0.14860  Biso   1.000  F
  F67      1.0000 0.51210  0.99460  0.35140  Biso   1.000  F
  F68      1.0000 0.48790  0.99460  0.14860  Biso   1.000  F
  F69      1.0000 0.98790  0.50540  0.64860  Biso   1.000  F
  F70      1.0000 0.01210  0.50540  0.85140  Biso   1.000  F
  F71      1.0000 0.48790  0.00540  0.64860  Biso   1.000  F
  F72      1.0000 0.51210  0.00540  0.85140  Biso   1.000  F
  C73      1.0000 0.01158  0.69610  0.30420  Biso   1.000  C
  C74      1.0000 0.98842  0.69610  0.19580  Biso   1.000  C
  C75      1.0000 0.51158  0.19610  0.30420  Biso   1.000  C
  C76      1.0000 0.48842  0.19610  0.19580  Biso   1.000  C
  C77      1.0000 0.98842  0.30390  0.69580  Biso   1.000  C
  C78      1.0000 0.01158  0.30390  0.80420  Biso   1.000  C
  C79      1.0000 0.48842  0.80390  0.69580  Biso   1.000  C
  C80      1.0000 0.51158  0.80390  0.80420  Biso   1.000  C
  C81      1.0000 0.28300  0.88730  0.58160  Biso   1.000  C
  C82      1.0000 0.71700  0.88730  0.91840  Biso   1.000  C
  C83      1.0000 0.78300  0.38730  0.58160  Biso   1.000  C
  C84      1.0000 0.21700  0.38730  0.91840  Biso   1.000  C
  C85      1.0000 0.71700  0.11270  0.41840  Biso   1.000  C
  C86      1.0000 0.28300  0.11270  0.08160  Biso   1.000  C
  C87      1.0000 0.21700  0.61270  0.41840  Biso   1.000  C
  C88      1.0000 0.78300  0.61270  0.08160  Biso   1.000  C
  C89      1.0000 0.32910  0.07160  0.46680  Biso   1.000  C
  C90      1.0000 0.67090  0.07160  0.03320  Biso   1.000  C
  C91      1.0000 0.82910  0.57160  0.46680  Biso   1.000  C
  C92      1.0000 0.17090  0.57160  0.03320  Biso   1.000  C
  C93      1.0000 0.67090  0.92840  0.53320  Biso   1.000  C
  C94      1.0000 0.32910  0.92840  0.96680  Biso   1.000  C
  C95      1.0000 0.17090  0.42840  0.53320  Biso   1.000  C
  C96      1.0000 0.82910  0.42840  0.96680  Biso   1.000  C
  C97      1.0000 0.29140  0.00100  0.54430  Biso   1.000  C
  C98      1.0000 0.70860  0.00100  0.95570  Biso   1.000  C
  C99      1.0000 0.79140  0.50100  0.54430  Biso   1.000  C
  C100     1.0000 0.20860  0.50100  0.95570  Biso   1.000  C
  C101     1.0000 0.70860  0.99900  0.45570  Biso   1.000  C
  C102     1.0000 0.29140  0.99900  0.04430  Biso   1.000  C
  C103     1.0000 0.20860  0.49900  0.45570  Biso   1.000  C
  C104     1.0000 0.79140  0.49900  0.04430  Biso   1.000  C
  C105     1.0000 0.10810  0.34380  0.27570  Biso   1.000  C
  C106     1.0000 0.89190  0.34380  0.22430  Biso   1.000  C
  C107     1.0000 0.60810  0.84380  0.27570  Biso   1.000  C
  C108     1.0000 0.39190  0.84380  0.22430  Biso   1.000  C
  C109     1.0000 0.89190  0.65620  0.72430  Biso   1.000  C
  C110     1.0000 0.10810  0.65620  0.77570  Biso   1.000  C
  C111     1.0000 0.39190  0.15620  0.72430  Biso   1.000  C
  C112     1.0000 0.60810  0.15620  0.77570  Biso   1.000  C
  C113     1.0000 0.02420  0.61630  0.36180  Biso   1.000  C
  C114     1.0000 0.97580  0.61630  0.13820  Biso   1.000  C
  C115     1.0000 0.52420  0.11630  0.36180  Biso   1.000  C
  C116     1.0000 0.47580  0.11630  0.13820  Biso   1.000  C
  C117     1.0000 0.97580  0.38370  0.63820  Biso   1.000  C
  C118     1.0000 0.02420  0.38370  0.86180  Biso   1.000  C
  C119     1.0000 0.47580  0.88370  0.63820  Biso   1.000  C
  C120     1.0000 0.52420  0.88370  0.86180  Biso   1.000  C
  C121     1.0000 0.17730  0.10200  0.17800  Biso   1.000  C
  C122     1.0000 0.82270  0.10200  0.32200  Biso   1.000  C
  C123     1.0000 0.67730  0.60200  0.17800  Biso   1.000  C
  C124     1.0000 0.32270  0.60200  0.32200  Biso   1.000  C
  C125     1.0000 0.82270  0.89800  0.82200  Biso   1.000  C
  C126     1.0000 0.17730  0.89800  0.67800  Biso   1.000  C
  C127     1.0000 0.32270  0.39800  0.82200  Biso   1.000  C
  C128     1.0000 0.67730  0.39800  0.67800  Biso   1.000  C
  H57      1.0000 0.14840  0.14080  0.18620  Biso   1.000  H
  H58      1.0000 0.85160  0.14080  0.31380  Biso   1.000  H
  H59      1.0000 0.64840  0.64080  0.18620  Biso   1.000  H
  H60      1.0000 0.35160  0.64080  0.31380  Biso   1.000  H
  H61      1.0000 0.85160  0.85920  0.81380  Biso   1.000  H
  H62      1.0000 0.14840  0.85920  0.68620  Biso   1.000  H
  H63      1.0000 0.35160  0.35920  0.81380  Biso   1.000  H
  H64      1.0000 0.64840  0.35920  0.68620  Biso   1.000  H
  H65      1.0000 0.16950  0.08740  0.13590  Biso   1.000  H
  H66      1.0000 0.83050  0.08740  0.36410  Biso   1.000  H
  H67      1.0000 0.66950  0.58740  0.13590  Biso   1.000  H
  H68      1.0000 0.33050  0.58740  0.36410  Biso   1.000  H
  H69      1.0000 0.83050  0.91260  0.86410  Biso   1.000  H
  H70      1.0000 0.16950  0.91260  0.63590  Biso   1.000  H
  H71      1.0000 0.33050  0.41260  0.86410  Biso   1.000  H
  H72      1.0000 0.66950  0.41260  0.63590  Biso   1.000  H
  H73      1.0000 0.20630  0.15760  0.19110  Biso   1.000  H
  H74      1.0000 0.79370  0.15760  0.30890  Biso   1.000  H
  H75      1.0000 0.70630  0.65760  0.19110  Biso   1.000  H
  H76      1.0000 0.29370  0.65760  0.30890  Biso   1.000  H
  H77      1.0000 0.79370  0.84240  0.80890  Biso   1.000  H
  H78      1.0000 0.20630  0.84240  0.69110  Biso   1.000  H
  H79      1.0000 0.29370  0.34240  0.80890  Biso   1.000  H
  H80      1.0000 0.70630  0.34240  0.69110  Biso   1.000  H
  C129     1.0000 0.15600  0.74790  0.21800  Biso   1.000  C
  C130     1.0000 0.84400  0.74790  0.28200  Biso   1.000  C
  C131     1.0000 0.65600  0.24790  0.21800  Biso   1.000  C
  C132     1.0000 0.34400  0.24790  0.28200  Biso   1.000  C
  C133     1.0000 0.84400  0.25210  0.78200  Biso   1.000  C
  C134     1.0000 0.15600  0.25210  0.71800  Biso   1.000  C
  C135     1.0000 0.34400  0.75210  0.78200  Biso   1.000  C
  C136     1.0000 0.65600  0.75210  0.71800  Biso   1.000  C
  H81      1.0000 0.18120  0.74120  0.25630  Biso   1.000  H
  H82      1.0000 0.81880  0.74120  0.24370  Biso   1.000  H
  H83      1.0000 0.68120  0.24120  0.25630  Biso   1.000  H
  H84      1.0000 0.31880  0.24120  0.24370  Biso   1.000  H
  H85      1.0000 0.81880  0.25880  0.74370  Biso   1.000  H
  H86      1.0000 0.18120  0.25880  0.75630  Biso   1.000  H
  H87      1.0000 0.31880  0.75880  0.74370  Biso   1.000  H
  H88      1.0000 0.68120  0.75880  0.75630  Biso   1.000  H
  H89      1.0000 0.16930  0.71230  0.18810  Biso   1.000  H
  H90      1.0000 0.83070  0.71230  0.31190  Biso   1.000  H
  H91      1.0000 0.66930  0.21230  0.18810  Biso   1.000  H
  H92      1.0000 0.33070  0.21230  0.31190  Biso   1.000  H
  H93      1.0000 0.83070  0.28770  0.81190  Biso   1.000  H
  H94      1.0000 0.16930  0.28770  0.68810  Biso   1.000  H
  H95      1.0000 0.33070  0.78770  0.81190  Biso   1.000  H
  H96      1.0000 0.66930  0.78770  0.68810  Biso   1.000  H
  H97      1.0000 0.12580  0.70220  0.21840  Biso   1.000  H
  H98      1.0000 0.87420  0.70220  0.28160  Biso   1.000  H
  H99      1.0000 0.62580  0.20220  0.21840  Biso   1.000  H
  H100     1.0000 0.37420  0.20220  0.28160  Biso   1.000  H
  H101     1.0000 0.87420  0.29780  0.78160  Biso   1.000  H
  H102     1.0000 0.12580  0.29780  0.71840  Biso   1.000  H
  H103     1.0000 0.37420  0.79780  0.78160  Biso   1.000  H
  H104     1.0000 0.62580  0.79780  0.71840  Biso   1.000  H
  C137     1.0000 0.23550  0.91170  0.19920  Biso   1.000  C
  C138     1.0000 0.76450  0.91170  0.30080  Biso   1.000  C
  C139     1.0000 0.73550  0.41170  0.19920  Biso   1.000  C
  C140     1.0000 0.26450  0.41170  0.30080  Biso   1.000  C
  C141     1.0000 0.76450  0.08830  0.80080  Biso   1.000  C
  C142     1.0000 0.23550  0.08830  0.69920  Biso   1.000  C
  C143     1.0000 0.26450  0.58830  0.80080  Biso   1.000  C
  C144     1.0000 0.73550  0.58830  0.69920  Biso   1.000  C
  H105     1.0000 0.26400  0.96940  0.20940  Biso   1.000  H
  H106     1.0000 0.73600  0.96940  0.29060  Biso   1.000  H
  H107     1.0000 0.76400  0.46940  0.20940  Biso   1.000  H
  H108     1.0000 0.23600  0.46940  0.29060  Biso   1.000  H
  H109     1.0000 0.73600  0.03060  0.79060  Biso   1.000  H
  H110     1.0000 0.26400  0.03060  0.70940  Biso   1.000  H
  H111     1.0000 0.23600  0.53060  0.79060  Biso   1.000  H
  H112     1.0000 0.76400  0.53060  0.70940  Biso   1.000  H
  H113     1.0000 0.22720  0.88970  0.15770  Biso   1.000  H
  H114     1.0000 0.77280  0.88970  0.34230  Biso   1.000  H
  H115     1.0000 0.72720  0.38970  0.15770  Biso   1.000  H
  H116     1.0000 0.27280  0.38970  0.34230  Biso   1.000  H
  H117     1.0000 0.77280  0.11030  0.84230  Biso   1.000  H
  H118     1.0000 0.22720  0.11030  0.65770  Biso   1.000  H
  H119     1.0000 0.27280  0.61030  0.84230  Biso   1.000  H
  H120     1.0000 0.72720  0.61030  0.65770  Biso   1.000  H
  H121     1.0000 0.24430  0.83590  0.22290  Biso   1.000  H
  H122     1.0000 0.75570  0.83590  0.27710  Biso   1.000  H
  H123     1.0000 0.74430  0.33590  0.22290  Biso   1.000  H
  H124     1.0000 0.25570  0.33590  0.27710  Biso   1.000  H
  H125     1.0000 0.75570  0.16410  0.77710  Biso   1.000  H
  H126     1.0000 0.24430  0.16410  0.72290  Biso   1.000  H
  H127     1.0000 0.25570  0.66410  0.77710  Biso   1.000  H
  H128     1.0000 0.74430  0.66410  0.72290  Biso   1.000  H
  C145     1.0000 0.36870  0.02940  0.43570  Biso   1.000  C
  C146     1.0000 0.63130  0.02940  0.06430  Biso   1.000  C
  C147     1.0000 0.86870  0.52940  0.43570  Biso   1.000  C
  C148     1.0000 0.13130  0.52940  0.06430  Biso   1.000  C
  C149     1.0000 0.63130  0.97060  0.56430  Biso   1.000  C
  C150     1.0000 0.36870  0.97060  0.93570  Biso   1.000  C
  C151     1.0000 0.13130  0.47060  0.56430  Biso   1.000  C
  C152     1.0000 0.86870  0.47060  0.93570  Biso   1.000  C
  F73      1.0000 0.09690  0.41390  0.23370  Biso   1.000  F
  F74      1.0000 0.90310  0.41390  0.26630  Biso   1.000  F
  F75      1.0000 0.59690  0.91390  0.23370  Biso   1.000  F
  F76      1.0000 0.40310  0.91390  0.26630  Biso   1.000  F
  F77      1.0000 0.90310  0.58610  0.76630  Biso   1.000  F
  F78      1.0000 0.09690  0.58610  0.73370  Biso   1.000  F
  F79      1.0000 0.40310  0.08610  0.76630  Biso   1.000  F
  F80      1.0000 0.59690  0.08610  0.73370  Biso   1.000  F
  F81      1.0000 0.34840  0.95270  0.39190  Biso   1.000  F
  F82      1.0000 0.65160  0.95270  0.10810  Biso   1.000  F
  F83      1.0000 0.84840  0.45270  0.39190  Biso   1.000  F
  F84      1.0000 0.15160  0.45270  0.10810  Biso   1.000  F
  F85      1.0000 0.65160  0.04730  0.60810  Biso   1.000  F
  F86      1.0000 0.34840  0.04730  0.89190  Biso   1.000  F
  F87      1.0000 0.15160  0.54730  0.60810  Biso   1.000  F
  F88      1.0000 0.84840  0.54730  0.89190  Biso   1.000  F
  F89      1.0000 0.11030  0.41280  0.31920  Biso   1.000  F
  F90      1.0000 0.88970  0.41280  0.18080  Biso   1.000  F
  F91      1.0000 0.61030  0.91280  0.31920  Biso   1.000  F
  F92      1.0000 0.38970  0.91280  0.18080  Biso   1.000  F
  F93      1.0000 0.88970  0.58720  0.68080  Biso   1.000  F
  F94      1.0000 0.11030  0.58720  0.81920  Biso   1.000  F
  F95      1.0000 0.38970  0.08720  0.68080  Biso   1.000  F
  F96      1.0000 0.61030  0.08720  0.81920  Biso   1.000  F
  O49      1.0000 0.00814  0.07420  0.34507  Biso   1.000  O
  O50      1.0000 0.99186  0.07420  0.15493  Biso   1.000  O
  O51      1.0000 0.50814  0.57420  0.34507  Biso   1.000  O
  O52      1.0000 0.49186  0.57420  0.15493  Biso   1.000  O
  O53      1.0000 0.99186  0.92580  0.65493  Biso   1.000  O
  O54      1.0000 0.00814  0.92580  0.84507  Biso   1.000  O
  O55      1.0000 0.49186  0.42580  0.65493  Biso   1.000  O
  O56      1.0000 0.50814  0.42580  0.84507  Biso   1.000  O
  C153     1.0000 0.07140  0.23950  0.30060  Biso   1.000  C
  C154     1.0000 0.92860  0.23950  0.19940  Biso   1.000  C
  C155     1.0000 0.57140  0.73950  0.30060  Biso   1.000  C
  C156     1.0000 0.42860  0.73950  0.19940  Biso   1.000  C
  C157     1.0000 0.92860  0.76050  0.69940  Biso   1.000  C
  C158     1.0000 0.07140  0.76050  0.80060  Biso   1.000  C
  C159     1.0000 0.42860  0.26050  0.69940  Biso   1.000  C
  C160     1.0000 0.57140  0.26050  0.80060  Biso   1.000  C
  C161     1.0000 0.02880  0.16280  0.37260  Biso   1.000  C
  C162     1.0000 0.97120  0.16280  0.12740  Biso   1.000  C
  C163     1.0000 0.52880  0.66280  0.37260  Biso   1.000  C
  C164     1.0000 0.47120  0.66280  0.12740  Biso   1.000  C
  C165     1.0000 0.97120  0.83720  0.62740  Biso   1.000  C
  C166     1.0000 0.02880  0.83720  0.87260  Biso   1.000  C
  C167     1.0000 0.47120  0.33720  0.62740  Biso   1.000  C
  C168     1.0000 0.52880  0.33720  0.87260  Biso   1.000  C
  C169     1.0000 0.06030  0.25300  0.35600  Biso   1.000  C
  C170     1.0000 0.93970  0.25300  0.14400  Biso   1.000  C
  C171     1.0000 0.56030  0.75300  0.35600  Biso   1.000  C
  C172     1.0000 0.43970  0.75300  0.14400  Biso   1.000  C
  C173     1.0000 0.93970  0.74700  0.64400  Biso   1.000  C
  C174     1.0000 0.06030  0.74700  0.85600  Biso   1.000  C
  C175     1.0000 0.43970  0.24700  0.64400  Biso   1.000  C
  C176     1.0000 0.56030  0.24700  0.85600  Biso   1.000  C
  H129     1.0000 0.07380  0.32120  0.38100  Biso   1.000  H
  H130     1.0000 0.92620  0.32120  0.11900  Biso   1.000  H
  H131     1.0000 0.57380  0.82120  0.38100  Biso   1.000  H
  H132     1.0000 0.42620  0.82120  0.11900  Biso   1.000  H
  H133     1.0000 0.92620  0.67880  0.61900  Biso   1.000  H
  H134     1.0000 0.07380  0.67880  0.88100  Biso   1.000  H
  H135     1.0000 0.42620  0.17880  0.61900  Biso   1.000  H
  H136     1.0000 0.57380  0.17880  0.88100  Biso   1.000  H
  C177     1.0000 0.18940  0.97560  0.21100  Biso   1.000  C
  C178     1.0000 0.81060  0.97560  0.28900  Biso   1.000  C
  C179     1.0000 0.68940  0.47560  0.21100  Biso   1.000  C
  C180     1.0000 0.31060  0.47560  0.28900  Biso   1.000  C
  C181     1.0000 0.81060  0.02440  0.78900  Biso   1.000  C
  C182     1.0000 0.18940  0.02440  0.71100  Biso   1.000  C
  C183     1.0000 0.31060  0.52440  0.78900  Biso   1.000  C
  C184     1.0000 0.68940  0.52440  0.71100  Biso   1.000  C
  F97      1.0000 0.00110  0.10110  0.45620  Biso   1.000  F
  F98      1.0000 0.99890  0.10110  0.04380  Biso   1.000  F
  F99      1.0000 0.50110  0.60110  0.45620  Biso   1.000  F
  F100     1.0000 0.49890  0.60110  0.04380  Biso   1.000  F
  F101     1.0000 0.99890  0.89890  0.54380  Biso   1.000  F
  F102     1.0000 0.00110  0.89890  0.95620  Biso   1.000  F
  F103     1.0000 0.49890  0.39890  0.54380  Biso   1.000  F
  F104     1.0000 0.50110  0.39890  0.95620  Biso   1.000  F
  C185     1.0000 0.01270  0.20130  0.42860  Biso   1.000  C
  C186     1.0000 0.98730  0.20130  0.07140  Biso   1.000  C
  C187     1.0000 0.51270  0.70130  0.42860  Biso   1.000  C
  C188     1.0000 0.48730  0.70130  0.07140  Biso   1.000  C
  C189     1.0000 0.98730  0.79870  0.57140  Biso   1.000  C
  C190     1.0000 0.01270  0.79870  0.92860  Biso   1.000  C
  C191     1.0000 0.48730  0.29870  0.57140  Biso   1.000  C
  C192     1.0000 0.51270  0.29870  0.92860  Biso   1.000  C
  F105     1.0000 0.98850  0.29720  0.43650  Biso   1.000  F
  F106     1.0000 0.01150  0.29720  0.06350  Biso   1.000  F
  F107     1.0000 0.48850  0.79720  0.43650  Biso   1.000  F
  F108     1.0000 0.51150  0.79720  0.06350  Biso   1.000  F
  F109     1.0000 0.01150  0.70280  0.56350  Biso   1.000  F
  F110     1.0000 0.98850  0.70280  0.93650  Biso   1.000  F
  F111     1.0000 0.51150  0.20280  0.56350  Biso   1.000  F
  F112     1.0000 0.48850  0.20280  0.93650  Biso   1.000  F
  F113     1.0000 0.05900  0.22700  0.45330  Biso   1.000  F
  F114     1.0000 0.94100  0.22700  0.04670  Biso   1.000  F
  F115     1.0000 0.55900  0.72700  0.45330  Biso   1.000  F
  F116     1.0000 0.44100  0.72700  0.04670  Biso   1.000  F
  F117     1.0000 0.94100  0.77300  0.54670  Biso   1.000  F
  F118     1.0000 0.05900  0.77300  0.95330  Biso   1.000  F
  F119     1.0000 0.44100  0.27300  0.54670  Biso   1.000  F
  F120     1.0000 0.55900  0.27300  0.95330  Biso   1.000  F
  C193     1.0000 0.00000  0.63200  0.25000  Biso   1.000  C
  C194     1.0000 0.50000  0.13200  0.25000  Biso   1.000  C
  C195     1.0000 0.00000  0.36800  0.75000  Biso   1.000  C
  C196     1.0000 0.50000  0.86800  0.75000  Biso   1.000  C
  H137     1.0000 0.00000  0.54330  0.25000  Biso   1.000  H
  H138     1.0000 0.50000  0.04330  0.25000  Biso   1.000  H
  H139     1.0000 0.00000  0.45670  0.75000  Biso   1.000  H
  H140     1.0000 0.50000  0.95670  0.75000  Biso   1.000  H
  C197     1.0000 0.98810  0.18110  0.36150  Biso   1.000  C
  C198     1.0000 0.01190  0.18110  0.13850  Biso   1.000  C
  C199     1.0000 0.48810  0.68110  0.36150  Biso   1.000  C
  C200     1.0000 0.51190  0.68110  0.13850  Biso   1.000  C
  C201     1.0000 0.01190  0.81890  0.63850  Biso   1.000  C
  C202     1.0000 0.98810  0.81890  0.86150  Biso   1.000  C
  C203     1.0000 0.51190  0.31890  0.63850  Biso   1.000  C
  C204     1.0000 0.48810  0.31890  0.86150  Biso   1.000  C
