data_image0
_cell_length_a       18.5212
_cell_length_b       8.9503
_cell_length_c       18.0019
_cell_angle_alpha    90
_cell_angle_beta     90.566
_cell_angle_gamma    90

_symmetry_space_group_name_H-M    "P 1"
_symmetry_int_tables_number       1

loop_
  _symmetry_equiv_pos_as_xyz
  'x, y, z'

loop_
  _atom_site_label
  _atom_site_occupancy
  _atom_site_fract_x
  _atom_site_fract_y
  _atom_site_fract_z
  _atom_site_thermal_displace_type
  _atom_site_B_iso_or_equiv
  _atom_site_type_symbol
  Cu1      1.0000 0.00000  0.00000  0.00000  Biso   1.000  Cu
  Cu2      1.0000 0.50000  0.50000  0.00000  Biso   1.000  Cu
  Cu3      1.0000 0.00000  0.00000  0.50000  Biso   1.000  Cu
  Cu4      1.0000 0.50000  0.50000  0.50000  Biso   1.000  Cu
  N1       1.0000 0.06071  0.59752  0.90409  Biso   1.000  N
  N2       1.0000 0.56071  0.09752  0.90409  Biso   1.000  N
  N3       1.0000 0.93929  0.59752  0.59591  Biso   1.000  N
  N4       1.0000 0.43929  0.09752  0.59591  Biso   1.000  N
  N5       1.0000 0.93929  0.40248  0.09591  Biso   1.000  N
  N6       1.0000 0.43929  0.90248  0.09591  Biso   1.000  N
  N7       1.0000 0.06071  0.40248  0.40409  Biso   1.000  N
  N8       1.0000 0.56071  0.90248  0.40409  Biso   1.000  N
  N9       1.0000 0.11525  0.69292  0.89479  Biso   1.000  N
  N10      1.0000 0.61525  0.19292  0.89479  Biso   1.000  N
  N11      1.0000 0.88475  0.69292  0.60521  Biso   1.000  N
  N12      1.0000 0.38475  0.19292  0.60521  Biso   1.000  N
  N13      1.0000 0.88475  0.30708  0.10521  Biso   1.000  N
  N14      1.0000 0.38475  0.80708  0.10521  Biso   1.000  N
  N15      1.0000 0.11525  0.30708  0.39479  Biso   1.000  N
  N16      1.0000 0.61525  0.80708  0.39479  Biso   1.000  N
  N17      1.0000 0.10738  0.82119  0.92822  Biso   1.000  N
  N18      1.0000 0.60738  0.32119  0.92822  Biso   1.000  N
  N19      1.0000 0.89262  0.82119  0.57178  Biso   1.000  N
  N20      1.0000 0.39262  0.32119  0.57178  Biso   1.000  N
  N21      1.0000 0.89262  0.17881  0.07178  Biso   1.000  N
  N22      1.0000 0.39262  0.67881  0.07178  Biso   1.000  N
  N23      1.0000 0.10738  0.17881  0.42822  Biso   1.000  N
  N24      1.0000 0.60738  0.67881  0.42822  Biso   1.000  N
  N25      1.0000 0.04423  0.81245  0.96184  Biso   1.000  N
  N26      1.0000 0.54423  0.31245  0.96184  Biso   1.000  N
  N27      1.0000 0.95577  0.81245  0.53816  Biso   1.000  N
  N28      1.0000 0.45577  0.31245  0.53816  Biso   1.000  N
  N29      1.0000 0.95577  0.18755  0.03816  Biso   1.000  N
  N30      1.0000 0.45577  0.68755  0.03816  Biso   1.000  N
  N31      1.0000 0.04423  0.18755  0.46184  Biso   1.000  N
  N32      1.0000 0.54423  0.68755  0.46184  Biso   1.000  N
  C1       1.0000 0.01696  0.67620  0.94696  Biso   1.000  C
  C2       1.0000 0.51696  0.17620  0.94696  Biso   1.000  C
  C3       1.0000 0.98304  0.67620  0.55304  Biso   1.000  C
  C4       1.0000 0.48304  0.17620  0.55304  Biso   1.000  C
  C5       1.0000 0.98304  0.32380  0.05304  Biso   1.000  C
  C6       1.0000 0.48304  0.82380  0.05304  Biso   1.000  C
  C7       1.0000 0.01696  0.32380  0.44696  Biso   1.000  C
  C8       1.0000 0.51696  0.82380  0.44696  Biso   1.000  C
  N33      1.0000 0.17605  0.00490  0.65149  Biso   1.000  N
  N34      1.0000 0.67605  0.50490  0.65149  Biso   1.000  N
  N35      1.0000 0.82395  0.00490  0.84851  Biso   1.000  N
  N36      1.0000 0.32395  0.50490  0.84851  Biso   1.000  N
  N37      1.0000 0.82395  0.99510  0.34851  Biso   1.000  N
  N38      1.0000 0.32395  0.49510  0.34851  Biso   1.000  N
  N39      1.0000 0.17605  0.99510  0.15149  Biso   1.000  N
  N40      1.0000 0.67605  0.49510  0.15149  Biso   1.000  N
  N41      1.0000 0.12274  0.93818  0.68756  Biso   1.000  N
  N42      1.0000 0.62274  0.43818  0.68756  Biso   1.000  N
  N43      1.0000 0.87726  0.93818  0.81244  Biso   1.000  N
  N44      1.0000 0.37726  0.43818  0.81244  Biso   1.000  N
  N45      1.0000 0.87726  0.06182  0.31244  Biso   1.000  N
  N46      1.0000 0.37726  0.56182  0.31244  Biso   1.000  N
  N47      1.0000 0.12274  0.06182  0.18756  Biso   1.000  N
  N48      1.0000 0.62274  0.56182  0.18756  Biso   1.000  N
  N49      1.0000 0.06268  0.92313  0.64892  Biso   1.000  N
  N50      1.0000 0.56268  0.42313  0.64892  Biso   1.000  N
  N51      1.0000 0.93732  0.92313  0.85108  Biso   1.000  N
  N52      1.0000 0.43732  0.42313  0.85108  Biso   1.000  N
  N53      1.0000 0.93732  0.07687  0.35108  Biso   1.000  N
  N54      1.0000 0.43732  0.57687  0.35108  Biso   1.000  N
  N55      1.0000 0.06268  0.07687  0.14892  Biso   1.000  N
  N56      1.0000 0.56268  0.57687  0.14892  Biso   1.000  N
  N57      1.0000 0.07663  0.98408  0.58343  Biso   1.000  N
  N58      1.0000 0.57663  0.48408  0.58343  Biso   1.000  N
  N59      1.0000 0.92337  0.98408  0.91657  Biso   1.000  N
  N60      1.0000 0.42337  0.48408  0.91657  Biso   1.000  N
  N61      1.0000 0.92337  0.01592  0.41657  Biso   1.000  N
  N62      1.0000 0.42337  0.51592  0.41657  Biso   1.000  N
  N63      1.0000 0.07663  0.01592  0.08343  Biso   1.000  N
  N64      1.0000 0.57663  0.51592  0.08343  Biso   1.000  N
  C9       1.0000 0.14528  0.03230  0.58575  Biso   1.000  C
  C10      1.0000 0.64528  0.53230  0.58575  Biso   1.000  C
  C11      1.0000 0.85472  0.03230  0.91425  Biso   1.000  C
  C12      1.0000 0.35472  0.53230  0.91425  Biso   1.000  C
  C13      1.0000 0.85472  0.96770  0.41425  Biso   1.000  C
  C14      1.0000 0.35472  0.46770  0.41425  Biso   1.000  C
  C15      1.0000 0.14528  0.96770  0.08575  Biso   1.000  C
  C16      1.0000 0.64528  0.46770  0.08575  Biso   1.000  C
  N65      1.0000 0.15463  0.27150  0.85071  Biso   1.000  N
  N66      1.0000 0.65463  0.77150  0.85071  Biso   1.000  N
  N67      1.0000 0.84537  0.27150  0.64929  Biso   1.000  N
  N68      1.0000 0.34537  0.77150  0.64929  Biso   1.000  N
  N69      1.0000 0.84537  0.72850  0.14929  Biso   1.000  N
  N70      1.0000 0.34537  0.22850  0.14929  Biso   1.000  N
  N71      1.0000 0.15463  0.72850  0.35071  Biso   1.000  N
  N72      1.0000 0.65463  0.22850  0.35071  Biso   1.000  N
  N73      1.0000 0.08876  0.26228  0.82041  Biso   1.000  N
  N74      1.0000 0.58876  0.76228  0.82041  Biso   1.000  N
  N75      1.0000 0.91124  0.26228  0.67959  Biso   1.000  N
  N76      1.0000 0.41124  0.76228  0.67959  Biso   1.000  N
  N77      1.0000 0.91124  0.73772  0.17959  Biso   1.000  N
  N78      1.0000 0.41124  0.23772  0.17959  Biso   1.000  N
  N79      1.0000 0.08876  0.73772  0.32041  Biso   1.000  N
  N80      1.0000 0.58876  0.23772  0.32041  Biso   1.000  N
  N81      1.0000 0.04163  0.19210  0.86197  Biso   1.000  N
  N82      1.0000 0.54163  0.69210  0.86197  Biso   1.000  N
  N83      1.0000 0.95837  0.19210  0.63803  Biso   1.000  N
  N84      1.0000 0.45837  0.69210  0.63803  Biso   1.000  N
  N85      1.0000 0.95837  0.80790  0.13803  Biso   1.000  N
  N86      1.0000 0.45837  0.30790  0.13803  Biso   1.000  N
  N87      1.0000 0.04163  0.80790  0.36197  Biso   1.000  N
  N88      1.0000 0.54163  0.30790  0.36197  Biso   1.000  N
  N89      1.0000 0.07697  0.15157  0.92309  Biso   1.000  N
  N90      1.0000 0.57697  0.65157  0.92309  Biso   1.000  N
  N91      1.0000 0.92303  0.15157  0.57691  Biso   1.000  N
  N92      1.0000 0.42303  0.65157  0.57691  Biso   1.000  N
  N93      1.0000 0.92303  0.84843  0.07691  Biso   1.000  N
  N94      1.0000 0.42303  0.34843  0.07691  Biso   1.000  N
  N95      1.0000 0.07697  0.84843  0.42309  Biso   1.000  N
  N96      1.0000 0.57697  0.34843  0.42309  Biso   1.000  N
  C17      1.0000 0.14508  0.20060  0.91498  Biso   1.000  C
  C18      1.0000 0.64508  0.70060  0.91498  Biso   1.000  C
  C19      1.0000 0.85492  0.20060  0.58502  Biso   1.000  C
  C20      1.0000 0.35492  0.70060  0.58502  Biso   1.000  C
  C21      1.0000 0.85492  0.79940  0.08502  Biso   1.000  C
  C22      1.0000 0.35492  0.29940  0.08502  Biso   1.000  C
  C23      1.0000 0.14508  0.79940  0.41498  Biso   1.000  C
  C24      1.0000 0.64508  0.29940  0.41498  Biso   1.000  C
  C25      1.0000 0.17555  0.66830  0.84403  Biso   1.000  C
  C26      1.0000 0.67555  0.16830  0.84403  Biso   1.000  C
  C27      1.0000 0.82445  0.66830  0.65597  Biso   1.000  C
  C28      1.0000 0.32445  0.16830  0.65597  Biso   1.000  C
  C29      1.0000 0.82445  0.33170  0.15597  Biso   1.000  C
  C30      1.0000 0.32445  0.83170  0.15597  Biso   1.000  C
  C31      1.0000 0.17555  0.33170  0.34403  Biso   1.000  C
  C32      1.0000 0.67555  0.83170  0.34403  Biso   1.000  C
  C33      1.0000 0.15659  0.72190  0.76550  Biso   1.000  C
  C34      1.0000 0.65659  0.22190  0.76550  Biso   1.000  C
  C35      1.0000 0.84341  0.72190  0.73450  Biso   1.000  C
  C36      1.0000 0.34341  0.22190  0.73450  Biso   1.000  C
  C37      1.0000 0.84341  0.27810  0.23450  Biso   1.000  C
  C38      1.0000 0.34341  0.77810  0.23450  Biso   1.000  C
  C39      1.0000 0.15659  0.27810  0.26550  Biso   1.000  C
  C40      1.0000 0.65659  0.77810  0.26550  Biso   1.000  C
  C41      1.0000 0.13137  0.88410  0.76454  Biso   1.000  C
  C42      1.0000 0.63137  0.38410  0.76454  Biso   1.000  C
  C43      1.0000 0.86863  0.88410  0.73546  Biso   1.000  C
  C44      1.0000 0.36863  0.38410  0.73546  Biso   1.000  C
  C45      1.0000 0.86863  0.11590  0.23546  Biso   1.000  C
  C46      1.0000 0.36863  0.61590  0.23546  Biso   1.000  C
  C47      1.0000 0.13137  0.11590  0.26454  Biso   1.000  C
  C48      1.0000 0.63137  0.61590  0.26454  Biso   1.000  C
  C49      1.0000 0.06979  0.32600  0.74760  Biso   1.000  C
  C50      1.0000 0.56979  0.82600  0.74760  Biso   1.000  C
  C51      1.0000 0.93021  0.32600  0.75240  Biso   1.000  C
  C52      1.0000 0.43021  0.82600  0.75240  Biso   1.000  C
  C53      1.0000 0.93021  0.67400  0.25240  Biso   1.000  C
  C54      1.0000 0.43021  0.17400  0.25240  Biso   1.000  C
  C55      1.0000 0.06979  0.67400  0.24760  Biso   1.000  C
  C56      1.0000 0.56979  0.17400  0.24760  Biso   1.000  C
  C57      1.0000 0.00000  0.41520  0.75000  Biso   1.000  C
  C58      1.0000 0.50000  0.91520  0.75000  Biso   1.000  C
  C59      1.0000 0.00000  0.58480  0.25000  Biso   1.000  C
  C60      1.0000 0.50000  0.08480  0.25000  Biso   1.000  C
  H1       1.0000 0.18470  0.56100  0.84340  Biso   1.000  H
  H2       1.0000 0.68470  0.06100  0.84340  Biso   1.000  H
  H3       1.0000 0.81530  0.56100  0.65660  Biso   1.000  H
  H4       1.0000 0.31530  0.06100  0.65660  Biso   1.000  H
  H5       1.0000 0.81530  0.43900  0.15660  Biso   1.000  H
  H6       1.0000 0.31530  0.93900  0.15660  Biso   1.000  H
  H7       1.0000 0.18470  0.43900  0.34340  Biso   1.000  H
  H8       1.0000 0.68470  0.93900  0.34340  Biso   1.000  H
  H9       1.0000 0.08470  0.89600  0.78720  Biso   1.000  H
  H10      1.0000 0.58470  0.39600  0.78720  Biso   1.000  H
  H11      1.0000 0.91530  0.89600  0.71280  Biso   1.000  H
  H12      1.0000 0.41530  0.39600  0.71280  Biso   1.000  H
  H13      1.0000 0.91530  0.10400  0.21280  Biso   1.000  H
  H14      1.0000 0.41530  0.60400  0.21280  Biso   1.000  H
  H15      1.0000 0.08470  0.10400  0.28720  Biso   1.000  H
  H16      1.0000 0.58470  0.60400  0.28720  Biso   1.000  H
  H17      1.0000 0.21400  0.72500  0.86530  Biso   1.000  H
  H18      1.0000 0.71400  0.22500  0.86530  Biso   1.000  H
  H19      1.0000 0.78600  0.72500  0.63470  Biso   1.000  H
  H20      1.0000 0.28600  0.22500  0.63470  Biso   1.000  H
  H21      1.0000 0.78600  0.27500  0.13470  Biso   1.000  H
  H22      1.0000 0.28600  0.77500  0.13470  Biso   1.000  H
  H23      1.0000 0.21400  0.27500  0.36530  Biso   1.000  H
  H24      1.0000 0.71400  0.77500  0.36530  Biso   1.000  H
  H25      1.0000 0.06610  0.24300  0.71230  Biso   1.000  H
  H26      1.0000 0.56610  0.74300  0.71230  Biso   1.000  H
  H27      1.0000 0.93390  0.24300  0.78770  Biso   1.000  H
  H28      1.0000 0.43390  0.74300  0.78770  Biso   1.000  H
  H29      1.0000 0.93390  0.75700  0.28770  Biso   1.000  H
  H30      1.0000 0.43390  0.25700  0.28770  Biso   1.000  H
  H31      1.0000 0.06610  0.75700  0.21230  Biso   1.000  H
  H32      1.0000 0.56610  0.25700  0.21230  Biso   1.000  H
  H33      1.0000 0.97330  0.64100  0.96240  Biso   1.000  H
  H34      1.0000 0.47330  0.14100  0.96240  Biso   1.000  H
  H35      1.0000 0.02670  0.64100  0.53760  Biso   1.000  H
  H36      1.0000 0.52670  0.14100  0.53760  Biso   1.000  H
  H37      1.0000 0.02670  0.35900  0.03760  Biso   1.000  H
  H38      1.0000 0.52670  0.85900  0.03760  Biso   1.000  H
  H39      1.0000 0.97330  0.35900  0.46240  Biso   1.000  H
  H40      1.0000 0.47330  0.85900  0.46240  Biso   1.000  H
  H41      1.0000 0.16400  0.95100  0.78830  Biso   1.000  H
  H42      1.0000 0.66400  0.45100  0.78830  Biso   1.000  H
  H43      1.0000 0.83600  0.95100  0.71170  Biso   1.000  H
  H44      1.0000 0.33600  0.45100  0.71170  Biso   1.000  H
  H45      1.0000 0.83600  0.04900  0.21170  Biso   1.000  H
  H46      1.0000 0.33600  0.54900  0.21170  Biso   1.000  H
  H47      1.0000 0.16400  0.04900  0.28830  Biso   1.000  H
  H48      1.0000 0.66400  0.54900  0.28830  Biso   1.000  H
  H49      1.0000 0.19990  0.71500  0.73640  Biso   1.000  H
  H50      1.0000 0.69990  0.21500  0.73640  Biso   1.000  H
  H51      1.0000 0.80010  0.71500  0.76360  Biso   1.000  H
  H52      1.0000 0.30010  0.21500  0.76360  Biso   1.000  H
  H53      1.0000 0.80010  0.28500  0.26360  Biso   1.000  H
  H54      1.0000 0.30010  0.78500  0.26360  Biso   1.000  H
  H55      1.0000 0.19990  0.28500  0.23640  Biso   1.000  H
  H56      1.0000 0.69990  0.78500  0.23640  Biso   1.000  H
  H57      1.0000 0.12140  0.66000  0.74450  Biso   1.000  H
  H58      1.0000 0.62140  0.16000  0.74450  Biso   1.000  H
  H59      1.0000 0.87860  0.66000  0.75550  Biso   1.000  H
  H60      1.0000 0.37860  0.16000  0.75550  Biso   1.000  H
  H61      1.0000 0.87860  0.34000  0.25550  Biso   1.000  H
  H62      1.0000 0.37860  0.84000  0.25550  Biso   1.000  H
  H63      1.0000 0.12140  0.34000  0.24450  Biso   1.000  H
  H64      1.0000 0.62140  0.84000  0.24450  Biso   1.000  H
  H65      1.0000 0.11120  0.38700  0.73460  Biso   1.000  H
  H66      1.0000 0.61120  0.88700  0.73460  Biso   1.000  H
  H67      1.0000 0.88880  0.38700  0.76540  Biso   1.000  H
  H68      1.0000 0.38880  0.88700  0.76540  Biso   1.000  H
  H69      1.0000 0.88880  0.61300  0.26540  Biso   1.000  H
  H70      1.0000 0.38880  0.11300  0.26540  Biso   1.000  H
  H71      1.0000 0.11120  0.61300  0.23460  Biso   1.000  H
  H72      1.0000 0.61120  0.11300  0.23460  Biso   1.000  H
  H73      1.0000 0.00230  0.48000  0.79090  Biso   1.000  H
  H74      1.0000 0.50230  0.98000  0.79090  Biso   1.000  H
  H75      1.0000 0.99770  0.48000  0.70910  Biso   1.000  H
  H76      1.0000 0.49770  0.98000  0.70910  Biso   1.000  H
  H77      1.0000 0.99770  0.52000  0.20910  Biso   1.000  H
  H78      1.0000 0.49770  0.02000  0.20910  Biso   1.000  H
  H79      1.0000 0.00230  0.52000  0.29090  Biso   1.000  H
  H80      1.0000 0.50230  0.02000  0.29090  Biso   1.000  H
  H81      1.0000 0.16730  0.07700  0.54540  Biso   1.000  H
  H82      1.0000 0.66730  0.57700  0.54540  Biso   1.000  H
  H83      1.0000 0.83270  0.07700  0.95460  Biso   1.000  H
  H84      1.0000 0.33270  0.57700  0.95460  Biso   1.000  H
  H85      1.0000 0.83270  0.92300  0.45460  Biso   1.000  H
  H86      1.0000 0.33270  0.42300  0.45460  Biso   1.000  H
  H87      1.0000 0.16730  0.92300  0.04540  Biso   1.000  H
  H88      1.0000 0.66730  0.42300  0.04540  Biso   1.000  H
  H89      1.0000 0.18040  0.18900  0.95210  Biso   1.000  H
  H90      1.0000 0.68040  0.68900  0.95210  Biso   1.000  H
  H91      1.0000 0.81960  0.18900  0.54790  Biso   1.000  H
  H92      1.0000 0.31960  0.68900  0.54790  Biso   1.000  H
  H93      1.0000 0.81960  0.81100  0.04790  Biso   1.000  H
  H94      1.0000 0.31960  0.31100  0.04790  Biso   1.000  H
  H95      1.0000 0.18040  0.81100  0.45210  Biso   1.000  H
  H96      1.0000 0.68040  0.31100  0.45210  Biso   1.000  H
  Cl1      1.0000 0.17543  0.50592  0.08081  Biso   1.000  Cl
  Cl2      1.0000 0.67543  0.00592  0.08081  Biso   1.000  Cl
  Cl3      1.0000 0.82457  0.50592  0.41919  Biso   1.000  Cl
  Cl4      1.0000 0.32457  0.00592  0.41919  Biso   1.000  Cl
  Cl5      1.0000 0.82457  0.49408  0.91919  Biso   1.000  Cl
  Cl6      1.0000 0.32457  0.99408  0.91919  Biso   1.000  Cl
  Cl7      1.0000 0.17543  0.49408  0.58081  Biso   1.000  Cl
  Cl8      1.0000 0.67543  0.99408  0.58081  Biso   1.000  Cl
  O1       1.0000 0.21414  0.54017  0.14888  Biso   1.000  O
  O2       1.0000 0.71414  0.04017  0.14888  Biso   1.000  O
  O3       1.0000 0.78586  0.54017  0.35112  Biso   1.000  O
  O4       1.0000 0.28586  0.04017  0.35112  Biso   1.000  O
  O5       1.0000 0.78586  0.45983  0.85112  Biso   1.000  O
  O6       1.0000 0.28586  0.95983  0.85112  Biso   1.000  O
  O7       1.0000 0.21414  0.45983  0.64888  Biso   1.000  O
  O8       1.0000 0.71414  0.95983  0.64888  Biso   1.000  O
  O9       1.0000 0.10606  0.57850  0.08176  Biso   1.000  O
  O10      1.0000 0.60606  0.07850  0.08176  Biso   1.000  O
  O11      1.0000 0.89394  0.57850  0.41824  Biso   1.000  O
  O12      1.0000 0.39394  0.07850  0.41824  Biso   1.000  O
  O13      1.0000 0.89394  0.42150  0.91824  Biso   1.000  O
  O14      1.0000 0.39394  0.92150  0.91824  Biso   1.000  O
  O15      1.0000 0.10606  0.42150  0.58176  Biso   1.000  O
  O16      1.0000 0.60606  0.92150  0.58176  Biso   1.000  O
  O17      1.0000 0.16469  0.34740  0.07587  Biso   1.000  O
  O18      1.0000 0.66469  0.84740  0.07587  Biso   1.000  O
  O19      1.0000 0.83531  0.34740  0.42413  Biso   1.000  O
  O20      1.0000 0.33531  0.84740  0.42413  Biso   1.000  O
  O21      1.0000 0.83531  0.65260  0.92413  Biso   1.000  O
  O22      1.0000 0.33531  0.15260  0.92413  Biso   1.000  O
  O23      1.0000 0.16469  0.65260  0.57587  Biso   1.000  O
  O24      1.0000 0.66469  0.15260  0.57587  Biso   1.000  O
  O25      1.0000 0.21552  0.55770  0.01829  Biso   1.000  O
  O26      1.0000 0.71552  0.05770  0.01829  Biso   1.000  O
  O27      1.0000 0.78448  0.55770  0.48171  Biso   1.000  O
  O28      1.0000 0.28448  0.05770  0.48171  Biso   1.000  O
  O29      1.0000 0.78448  0.44230  0.98171  Biso   1.000  O
  O30      1.0000 0.28448  0.94230  0.98171  Biso   1.000  O
  O31      1.0000 0.21552  0.44230  0.51829  Biso   1.000  O
  O32      1.0000 0.71552  0.94230  0.51829  Biso   1.000  O
