data_image0
_cell_length_a       9.627
_cell_length_b       21.078
_cell_length_c       21.148
_cell_angle_alpha    90
_cell_angle_beta     97.898
_cell_angle_gamma    90

_symmetry_space_group_name_H-M    "P 1"
_symmetry_int_tables_number       1

loop_
  _symmetry_equiv_pos_as_xyz
  'x, y, z'

loop_
  _atom_site_label
  _atom_site_occupancy
  _atom_site_fract_x
  _atom_site_fract_y
  _atom_site_fract_z
  _atom_site_thermal_displace_type
  _atom_site_B_iso_or_equiv
  _atom_site_type_symbol
  Cu1      1.0000 0.43142  0.80140  0.18301  Biso   1.000  Cu
  Cu2      1.0000 0.56858  0.30140  0.31699  Biso   1.000  Cu
  Cu3      1.0000 0.56858  0.19860  0.81699  Biso   1.000  Cu
  Cu4      1.0000 0.43142  0.69860  0.68301  Biso   1.000  Cu
  Cu5      1.0000 0.04618  0.99950  0.25185  Biso   1.000  Cu
  Cu6      1.0000 0.95382  0.49950  0.24815  Biso   1.000  Cu
  Cu7      1.0000 0.95382  0.00050  0.74815  Biso   1.000  Cu
  Cu8      1.0000 0.04618  0.50050  0.75185  Biso   1.000  Cu
  Cu9      1.0000 0.03084  0.73604  0.95044  Biso   1.000  Cu
  Cu10     1.0000 0.96916  0.23604  0.54956  Biso   1.000  Cu
  Cu11     1.0000 0.96916  0.26396  0.04956  Biso   1.000  Cu
  Cu12     1.0000 0.03084  0.76396  0.45044  Biso   1.000  Cu
  F1       1.0000 0.53610  0.83033  0.86787  Biso   1.000  F
  F2       1.0000 0.46390  0.33033  0.63213  Biso   1.000  F
  F3       1.0000 0.46390  0.16967  0.13213  Biso   1.000  F
  F4       1.0000 0.53610  0.66967  0.36787  Biso   1.000  F
  F5       1.0000 0.52790  0.85549  0.54104  Biso   1.000  F
  F6       1.0000 0.47210  0.35549  0.95896  Biso   1.000  F
  F7       1.0000 0.47210  0.14451  0.45896  Biso   1.000  F
  F8       1.0000 0.52790  0.64451  0.04104  Biso   1.000  F
  F9       1.0000 0.28510  0.56516  0.13331  Biso   1.000  F
  F10      1.0000 0.71490  0.06516  0.36669  Biso   1.000  F
  F11      1.0000 0.71490  0.43484  0.86669  Biso   1.000  F
  F12      1.0000 0.28510  0.93484  0.63331  Biso   1.000  F
  F13      1.0000 0.30420  0.03524  0.10817  Biso   1.000  F
  F14      1.0000 0.69580  0.53524  0.39183  Biso   1.000  F
  F15      1.0000 0.69580  0.96476  0.89183  Biso   1.000  F
  F16      1.0000 0.30420  0.46476  0.60817  Biso   1.000  F
  F17      1.0000 0.83480  0.91034  0.02661  Biso   1.000  F
  F18      1.0000 0.16520  0.41034  0.47339  Biso   1.000  F
  F19      1.0000 0.16520  0.08966  0.97339  Biso   1.000  F
  F20      1.0000 0.83480  0.58966  0.52661  Biso   1.000  F
  F21      1.0000 0.25440  0.95033  0.48971  Biso   1.000  F
  F22      1.0000 0.74560  0.45033  0.01029  Biso   1.000  F
  F23      1.0000 0.74560  0.04967  0.51029  Biso   1.000  F
  F24      1.0000 0.25440  0.54967  0.98971  Biso   1.000  F
  O1       1.0000 0.48740  0.79480  0.09841  Biso   1.000  O
  O2       1.0000 0.51260  0.29480  0.40159  Biso   1.000  O
  O3       1.0000 0.51260  0.20520  0.90159  Biso   1.000  O
  O4       1.0000 0.48740  0.70520  0.59841  Biso   1.000  O
  O5       1.0000 0.70900  0.79260  0.14421  Biso   1.000  O
  O6       1.0000 0.29100  0.29260  0.35579  Biso   1.000  O
  O7       1.0000 0.29100  0.20740  0.85579  Biso   1.000  O
  O8       1.0000 0.70900  0.70740  0.64421  Biso   1.000  O
  O9       1.0000 0.36250  0.80998  0.26567  Biso   1.000  O
  O10      1.0000 0.63750  0.30998  0.23433  Biso   1.000  O
  O11      1.0000 0.63750  0.19002  0.73433  Biso   1.000  O
  O12      1.0000 0.36250  0.69002  0.76567  Biso   1.000  O
  O13      1.0000 0.58370  0.81566  0.31013  Biso   1.000  O
  O14      1.0000 0.41630  0.31566  0.18987  Biso   1.000  O
  O15      1.0000 0.41630  0.18434  0.68987  Biso   1.000  O
  O16      1.0000 0.58370  0.68434  0.81013  Biso   1.000  O
  O17      1.0000 0.85030  0.63411  0.25500  Biso   1.000  O
  O18      1.0000 0.14970  0.13411  0.24500  Biso   1.000  O
  O19      1.0000 0.14970  0.36589  0.74500  Biso   1.000  O
  O20      1.0000 0.85030  0.86589  0.75500  Biso   1.000  O
  O21      1.0000 0.76870  0.53547  0.24570  Biso   1.000  O
  O22      1.0000 0.23130  0.03547  0.25430  Biso   1.000  O
  O23      1.0000 0.23130  0.46453  0.75430  Biso   1.000  O
  O24      1.0000 0.76870  0.96453  0.74570  Biso   1.000  O
  O25      1.0000 0.85520  0.96728  0.25095  Biso   1.000  O
  O26      1.0000 0.14480  0.46728  0.24905  Biso   1.000  O
  O27      1.0000 0.14480  0.03272  0.74905  Biso   1.000  O
  O28      1.0000 0.85520  0.53272  0.75095  Biso   1.000  O
  O29      1.0000 0.78510  0.06574  0.22746  Biso   1.000  O
  O30      1.0000 0.21490  0.56574  0.27254  Biso   1.000  O
  O31      1.0000 0.21490  0.93426  0.77254  Biso   1.000  O
  O32      1.0000 0.78510  0.43426  0.72746  Biso   1.000  O
  O33      1.0000 0.93500  0.18129  0.08190  Biso   1.000  O
  O34      1.0000 0.06500  0.68129  0.41810  Biso   1.000  O
  O35      1.0000 0.06500  0.81871  0.91810  Biso   1.000  O
  O36      1.0000 0.93500  0.31871  0.58190  Biso   1.000  O
  O37      1.0000 0.84340  0.14550  0.98730  Biso   1.000  O
  O38      1.0000 0.15660  0.64550  0.51270  Biso   1.000  O
  O39      1.0000 0.15660  0.85450  0.01270  Biso   1.000  O
  O40      1.0000 0.84340  0.35450  0.48730  Biso   1.000  O
  O41      1.0000 0.01570  0.15494  0.51636  Biso   1.000  O
  O42      1.0000 0.98430  0.65494  0.98364  Biso   1.000  O
  O43      1.0000 0.98430  0.84506  0.48364  Biso   1.000  O
  O44      1.0000 0.01570  0.34506  0.01636  Biso   1.000  O
  O45      1.0000 0.94250  0.18553  0.41695  Biso   1.000  O
  O46      1.0000 0.05750  0.68553  0.08305  Biso   1.000  O
  O47      1.0000 0.05750  0.81447  0.58305  Biso   1.000  O
  O48      1.0000 0.94250  0.31447  0.91695  Biso   1.000  O
  O49      1.0000 0.20840  0.80605  0.13473  Biso   1.000  O
  O50      1.0000 0.79160  0.30605  0.36527  Biso   1.000  O
  O51      1.0000 0.79160  0.19395  0.86527  Biso   1.000  O
  O52      1.0000 0.20840  0.69395  0.63473  Biso   1.000  O
  H1       1.0000 0.19750  0.81010  0.09430  Biso   1.000  H
  H2       1.0000 0.80250  0.31010  0.40570  Biso   1.000  H
  H3       1.0000 0.80250  0.18990  0.90570  Biso   1.000  H
  H4       1.0000 0.19750  0.68990  0.59430  Biso   1.000  H
  H5       1.0000 0.14010  0.79010  0.15110  Biso   1.000  H
  H6       1.0000 0.85990  0.29010  0.34890  Biso   1.000  H
  H7       1.0000 0.85990  0.20990  0.84890  Biso   1.000  H
  H8       1.0000 0.14010  0.70990  0.65110  Biso   1.000  H
  O53      1.0000 0.94970  0.69640  0.85151  Biso   1.000  O
  O54      1.0000 0.05030  0.19640  0.64849  Biso   1.000  O
  O55      1.0000 0.05030  0.30360  0.14849  Biso   1.000  O
  O56      1.0000 0.94970  0.80360  0.35151  Biso   1.000  O
  H9       1.0000 0.87800  0.67610  0.85970  Biso   1.000  H
  H10      1.0000 0.12200  0.17610  0.64030  Biso   1.000  H
  H11      1.0000 0.12200  0.32390  0.14030  Biso   1.000  H
  H12      1.0000 0.87800  0.82390  0.35970  Biso   1.000  H
  H13      1.0000 0.95390  0.70450  0.81240  Biso   1.000  H
  H14      1.0000 0.04610  0.20450  0.68760  Biso   1.000  H
  H15      1.0000 0.04610  0.29550  0.18760  Biso   1.000  H
  H16      1.0000 0.95390  0.79550  0.31240  Biso   1.000  H
  O57      1.0000 0.12240  0.89768  0.25731  Biso   1.000  O
  O58      1.0000 0.87760  0.39768  0.24269  Biso   1.000  O
  O59      1.0000 0.87760  0.10232  0.74269  Biso   1.000  O
  O60      1.0000 0.12240  0.60232  0.75731  Biso   1.000  O
  H17      1.0000 0.20340  0.88430  0.25220  Biso   1.000  H
  H18      1.0000 0.79660  0.38430  0.24780  Biso   1.000  H
  H19      1.0000 0.79660  0.11570  0.74780  Biso   1.000  H
  H20      1.0000 0.20340  0.61570  0.75220  Biso   1.000  H
  H21      1.0000 0.05440  0.87310  0.24440  Biso   1.000  H
  H22      1.0000 0.94560  0.37310  0.25560  Biso   1.000  H
  H23      1.0000 0.94560  0.12690  0.75560  Biso   1.000  H
  H24      1.0000 0.05440  0.62690  0.74440  Biso   1.000  H
  N1       1.0000 0.83860  0.76977  0.96506  Biso   1.000  N
  N2       1.0000 0.16140  0.26977  0.53494  Biso   1.000  N
  N3       1.0000 0.16140  0.23023  0.03494  Biso   1.000  N
  N4       1.0000 0.83860  0.73023  0.46506  Biso   1.000  N
  N5       1.0000 0.23040  0.79207  0.44310  Biso   1.000  N
  N6       1.0000 0.76960  0.29207  0.05690  Biso   1.000  N
  N7       1.0000 0.76960  0.20793  0.55690  Biso   1.000  N
  N8       1.0000 0.23040  0.70793  0.94310  Biso   1.000  N
  N9       1.0000 0.45690  0.70661  0.19308  Biso   1.000  N
  N10      1.0000 0.54310  0.20661  0.30692  Biso   1.000  N
  N11      1.0000 0.54310  0.29339  0.80692  Biso   1.000  N
  N12      1.0000 0.45690  0.79339  0.69308  Biso   1.000  N
  N13      1.0000 0.46600  0.89645  0.17874  Biso   1.000  N
  N14      1.0000 0.53400  0.39645  0.32126  Biso   1.000  N
  N15      1.0000 0.53400  0.10355  0.82126  Biso   1.000  N
  N16      1.0000 0.46600  0.60355  0.67874  Biso   1.000  N
  N17      1.0000 0.99940  0.00398  0.15463  Biso   1.000  N
  N18      1.0000 0.00060  0.50398  0.34537  Biso   1.000  N
  N19      1.0000 0.00060  0.99602  0.84537  Biso   1.000  N
  N20      1.0000 0.99940  0.49602  0.65463  Biso   1.000  N
  N21      1.0000 0.06980  0.01462  0.34726  Biso   1.000  N
  N22      1.0000 0.93020  0.51462  0.15274  Biso   1.000  N
  N23      1.0000 0.93020  0.98538  0.65274  Biso   1.000  N
  N24      1.0000 0.06980  0.48538  0.84726  Biso   1.000  N
  C1       1.0000 0.61950  0.79300  0.09640  Biso   1.000  C
  C2       1.0000 0.38050  0.29300  0.40360  Biso   1.000  C
  C3       1.0000 0.38050  0.20700  0.90360  Biso   1.000  C
  C4       1.0000 0.61950  0.70700  0.59640  Biso   1.000  C
  C5       1.0000 0.66200  0.79190  0.03120  Biso   1.000  C
  C6       1.0000 0.33800  0.29190  0.46880  Biso   1.000  C
  C7       1.0000 0.33800  0.20810  0.96880  Biso   1.000  C
  C8       1.0000 0.66200  0.70810  0.53120  Biso   1.000  C
  C9       1.0000 0.79290  0.77090  0.02230  Biso   1.000  C
  C10      1.0000 0.20710  0.27090  0.47770  Biso   1.000  C
  C11      1.0000 0.20710  0.22910  0.97770  Biso   1.000  C
  C12      1.0000 0.79290  0.72910  0.52230  Biso   1.000  C
  H25      1.0000 0.85310  0.75680  0.05770  Biso   1.000  H
  H26      1.0000 0.14690  0.25680  0.44230  Biso   1.000  H
  H27      1.0000 0.14690  0.24320  0.94230  Biso   1.000  H
  H28      1.0000 0.85310  0.74320  0.55770  Biso   1.000  H
  C13      1.0000 0.75240  0.79120  0.91480  Biso   1.000  C
  C14      1.0000 0.24760  0.29120  0.58520  Biso   1.000  C
  C15      1.0000 0.24760  0.20880  0.08520  Biso   1.000  C
  C16      1.0000 0.75240  0.70880  0.41480  Biso   1.000  C
  H29      1.0000 0.78240  0.79220  0.87490  Biso   1.000  H
  H30      1.0000 0.21760  0.29220  0.62510  Biso   1.000  H
  H31      1.0000 0.21760  0.20780  0.12510  Biso   1.000  H
  H32      1.0000 0.78240  0.70780  0.37490  Biso   1.000  H
  C17      1.0000 0.62040  0.81180  0.92150  Biso   1.000  C
  C18      1.0000 0.37960  0.31180  0.57850  Biso   1.000  C
  C19      1.0000 0.37960  0.18820  0.07850  Biso   1.000  C
  C20      1.0000 0.62040  0.68820  0.42150  Biso   1.000  C
  C21      1.0000 0.57200  0.81240  0.97860  Biso   1.000  C
  C22      1.0000 0.42800  0.31240  0.52140  Biso   1.000  C
  C23      1.0000 0.42800  0.18760  0.02140  Biso   1.000  C
  C24      1.0000 0.57200  0.68760  0.47860  Biso   1.000  C
  H33      1.0000 0.48160  0.82600  0.98230  Biso   1.000  H
  H34      1.0000 0.51840  0.32600  0.51770  Biso   1.000  H
  H35      1.0000 0.51840  0.17400  0.01770  Biso   1.000  H
  H36      1.0000 0.48160  0.67400  0.48230  Biso   1.000  H
  C25      1.0000 0.45790  0.81370  0.31360  Biso   1.000  C
  C26      1.0000 0.54210  0.31370  0.18640  Biso   1.000  C
  C27      1.0000 0.54210  0.18630  0.68640  Biso   1.000  C
  C28      1.0000 0.45790  0.68630  0.81360  Biso   1.000  C
  C29      1.0000 0.40780  0.81520  0.37780  Biso   1.000  C
  C30      1.0000 0.59220  0.31520  0.12220  Biso   1.000  C
  C31      1.0000 0.59220  0.18480  0.62220  Biso   1.000  C
  C32      1.0000 0.40780  0.68480  0.87780  Biso   1.000  C
  C33      1.0000 0.27760  0.79350  0.38610  Biso   1.000  C
  C34      1.0000 0.72240  0.29350  0.11390  Biso   1.000  C
  C35      1.0000 0.72240  0.20650  0.61390  Biso   1.000  C
  C36      1.0000 0.27760  0.70650  0.88610  Biso   1.000  C
  H37      1.0000 0.21860  0.77910  0.35050  Biso   1.000  H
  H38      1.0000 0.78140  0.27910  0.14950  Biso   1.000  H
  H39      1.0000 0.78140  0.22090  0.64950  Biso   1.000  H
  H40      1.0000 0.21860  0.72090  0.85050  Biso   1.000  H
  C37      1.0000 0.31710  0.81290  0.49420  Biso   1.000  C
  C38      1.0000 0.68290  0.31290  0.00580  Biso   1.000  C
  C39      1.0000 0.68290  0.18710  0.50580  Biso   1.000  C
  C40      1.0000 0.31710  0.68710  0.99420  Biso   1.000  C
  H41      1.0000 0.28740  0.81190  0.53420  Biso   1.000  H
  H42      1.0000 0.71260  0.31190  0.96580  Biso   1.000  H
  H43      1.0000 0.71260  0.18810  0.46580  Biso   1.000  H
  H44      1.0000 0.28740  0.68810  0.03420  Biso   1.000  H
  C41      1.0000 0.44770  0.83540  0.48860  Biso   1.000  C
  C42      1.0000 0.55230  0.33540  0.01140  Biso   1.000  C
  C43      1.0000 0.55230  0.16460  0.51140  Biso   1.000  C
  C44      1.0000 0.44770  0.66460  0.98860  Biso   1.000  C
  C45      1.0000 0.49480  0.83710  0.43070  Biso   1.000  C
  C46      1.0000 0.50520  0.33710  0.06930  Biso   1.000  C
  C47      1.0000 0.50520  0.16290  0.56930  Biso   1.000  C
  C48      1.0000 0.49480  0.66290  0.93070  Biso   1.000  C
  H45      1.0000 0.58380  0.85260  0.42700  Biso   1.000  H
  H46      1.0000 0.41620  0.35260  0.07300  Biso   1.000  H
  H47      1.0000 0.41620  0.14740  0.57300  Biso   1.000  H
  H48      1.0000 0.58380  0.64740  0.92700  Biso   1.000  H
  C49      1.0000 0.75600  0.59530  0.24130  Biso   1.000  C
  C50      1.0000 0.24400  0.09530  0.25870  Biso   1.000  C
  C51      1.0000 0.24400  0.40470  0.75870  Biso   1.000  C
  C52      1.0000 0.75600  0.90470  0.74130  Biso   1.000  C
  C53      1.0000 0.61260  0.61940  0.21550  Biso   1.000  C
  C54      1.0000 0.38740  0.11940  0.28450  Biso   1.000  C
  C55      1.0000 0.38740  0.38060  0.78450  Biso   1.000  C
  C56      1.0000 0.61260  0.88060  0.71550  Biso   1.000  C
  C57      1.0000 0.58210  0.68300  0.21760  Biso   1.000  C
  C58      1.0000 0.41790  0.18300  0.28240  Biso   1.000  C
  C59      1.0000 0.41790  0.31700  0.78240  Biso   1.000  C
  C60      1.0000 0.58210  0.81700  0.71760  Biso   1.000  C
  H49      1.0000 0.65070  0.71070  0.23670  Biso   1.000  H
  H50      1.0000 0.34930  0.21070  0.26330  Biso   1.000  H
  H51      1.0000 0.34930  0.28930  0.76330  Biso   1.000  H
  H52      1.0000 0.65070  0.78930  0.73670  Biso   1.000  H
  C61      1.0000 0.35870  0.66610  0.16670  Biso   1.000  C
  C62      1.0000 0.64130  0.16610  0.33330  Biso   1.000  C
  C63      1.0000 0.64130  0.33390  0.83330  Biso   1.000  C
  C64      1.0000 0.35870  0.83390  0.66670  Biso   1.000  C
  H53      1.0000 0.27020  0.68130  0.15070  Biso   1.000  H
  H54      1.0000 0.72980  0.18130  0.34930  Biso   1.000  H
  H55      1.0000 0.72980  0.31870  0.84930  Biso   1.000  H
  H56      1.0000 0.27020  0.81870  0.65070  Biso   1.000  H
  C65      1.0000 0.38610  0.60320  0.16290  Biso   1.000  C
  C66      1.0000 0.61390  0.10320  0.33710  Biso   1.000  C
  C67      1.0000 0.61390  0.39680  0.83710  Biso   1.000  C
  C68      1.0000 0.38610  0.89680  0.66290  Biso   1.000  C
  C69      1.0000 0.51180  0.57800  0.18680  Biso   1.000  C
  C70      1.0000 0.48820  0.07800  0.31320  Biso   1.000  C
  C71      1.0000 0.48820  0.42200  0.81320  Biso   1.000  C
  C72      1.0000 0.51180  0.92200  0.68680  Biso   1.000  C
  H57      1.0000 0.52950  0.53480  0.18410  Biso   1.000  H
  H58      1.0000 0.47050  0.03480  0.31590  Biso   1.000  H
  H59      1.0000 0.47050  0.46520  0.81590  Biso   1.000  H
  H60      1.0000 0.52950  0.96520  0.68410  Biso   1.000  H
  C73      1.0000 0.76360  0.00870  0.22880  Biso   1.000  C
  C74      1.0000 0.23640  0.50870  0.27120  Biso   1.000  C
  C75      1.0000 0.23640  0.99130  0.77120  Biso   1.000  C
  C76      1.0000 0.76360  0.49130  0.72880  Biso   1.000  C
  C77      1.0000 0.62390  0.98310  0.20050  Biso   1.000  C
  C78      1.0000 0.37610  0.48310  0.29950  Biso   1.000  C
  C79      1.0000 0.37610  0.01690  0.79950  Biso   1.000  C
  C80      1.0000 0.62390  0.51690  0.70050  Biso   1.000  C
  C81      1.0000 0.52730  0.02330  0.16750  Biso   1.000  C
  C82      1.0000 0.47270  0.52330  0.33250  Biso   1.000  C
  C83      1.0000 0.47270  0.97670  0.83250  Biso   1.000  C
  C84      1.0000 0.52730  0.47670  0.66750  Biso   1.000  C
  H61      1.0000 0.54660  0.06630  0.16330  Biso   1.000  H
  H62      1.0000 0.45340  0.56630  0.33670  Biso   1.000  H
  H63      1.0000 0.45340  0.93370  0.83670  Biso   1.000  H
  H64      1.0000 0.54660  0.43370  0.66330  Biso   1.000  H
  C85      1.0000 0.40220  0.99800  0.14100  Biso   1.000  C
  C86      1.0000 0.59780  0.49800  0.35900  Biso   1.000  C
  C87      1.0000 0.59780  0.00200  0.85900  Biso   1.000  C
  C88      1.0000 0.40220  0.50200  0.64100  Biso   1.000  C
  C89      1.0000 0.37220  0.93560  0.14700  Biso   1.000  C
  C90      1.0000 0.62780  0.43560  0.35300  Biso   1.000  C
  C91      1.0000 0.62780  0.06440  0.85300  Biso   1.000  C
  C92      1.0000 0.37220  0.56440  0.64700  Biso   1.000  C
  H65      1.0000 0.28550  0.92000  0.12890  Biso   1.000  H
  H66      1.0000 0.71450  0.42000  0.37110  Biso   1.000  H
  H67      1.0000 0.71450  0.08000  0.87110  Biso   1.000  H
  H68      1.0000 0.28550  0.58000  0.62890  Biso   1.000  H
  C93      1.0000 0.58940  0.92030  0.20460  Biso   1.000  C
  C94      1.0000 0.41060  0.42030  0.29540  Biso   1.000  C
  C95      1.0000 0.41060  0.07970  0.79540  Biso   1.000  C
  C96      1.0000 0.58940  0.57970  0.70460  Biso   1.000  C
  H69      1.0000 0.65510  0.89300  0.22650  Biso   1.000  H
  H70      1.0000 0.34490  0.39300  0.27350  Biso   1.000  H
  H71      1.0000 0.34490  0.10700  0.77350  Biso   1.000  H
  H72      1.0000 0.65510  0.60700  0.72650  Biso   1.000  H
  C97      1.0000 0.89260  0.13850  0.04290  Biso   1.000  C
  C98      1.0000 0.10740  0.63850  0.45710  Biso   1.000  C
  C99      1.0000 0.10740  0.86150  0.95710  Biso   1.000  C
  C100     1.0000 0.89260  0.36150  0.54290  Biso   1.000  C
  C101     1.0000 0.90930  0.07170  0.06910  Biso   1.000  C
  C102     1.0000 0.09070  0.57170  0.43090  Biso   1.000  C
  C103     1.0000 0.09070  0.92830  0.93090  Biso   1.000  C
  C104     1.0000 0.90930  0.42830  0.56910  Biso   1.000  C
  C105     1.0000 0.85840  0.02100  0.03400  Biso   1.000  C
  C106     1.0000 0.14160  0.52100  0.46600  Biso   1.000  C
  C107     1.0000 0.14160  0.97900  0.96600  Biso   1.000  C
  C108     1.0000 0.85840  0.47900  0.53400  Biso   1.000  C
  H73      1.0000 0.80970  0.02600  0.99320  Biso   1.000  H
  H74      1.0000 0.19030  0.52600  0.50680  Biso   1.000  H
  H75      1.0000 0.19030  0.97400  0.00680  Biso   1.000  H
  H76      1.0000 0.80970  0.47400  0.49320  Biso   1.000  H
  C109     1.0000 0.88080  0.96210  0.06040  Biso   1.000  C
  C110     1.0000 0.11920  0.46210  0.43960  Biso   1.000  C
  C111     1.0000 0.11920  0.03790  0.93960  Biso   1.000  C
  C112     1.0000 0.88080  0.53790  0.56040  Biso   1.000  C
  C113     1.0000 0.94980  0.95390  0.12040  Biso   1.000  C
  C114     1.0000 0.05020  0.45390  0.37960  Biso   1.000  C
  C115     1.0000 0.05020  0.04610  0.87960  Biso   1.000  C
  C116     1.0000 0.94980  0.54610  0.62040  Biso   1.000  C
  H77      1.0000 0.96240  0.91330  0.13750  Biso   1.000  H
  H78      1.0000 0.03760  0.41330  0.36250  Biso   1.000  H
  H79      1.0000 0.03760  0.08670  0.86250  Biso   1.000  H
  H80      1.0000 0.96240  0.58670  0.63750  Biso   1.000  H
  C117     1.0000 0.98050  0.06170  0.12850  Biso   1.000  C
  C118     1.0000 0.01950  0.56170  0.37150  Biso   1.000  C
  C119     1.0000 0.01950  0.93830  0.87150  Biso   1.000  C
  C120     1.0000 0.98050  0.43830  0.62850  Biso   1.000  C
  H81      1.0000 0.01760  0.09650  0.15190  Biso   1.000  H
  H82      1.0000 0.98240  0.59650  0.34810  Biso   1.000  H
  H83      1.0000 0.98240  0.90350  0.84810  Biso   1.000  H
  H84      1.0000 0.01760  0.40350  0.65190  Biso   1.000  H
  C121     1.0000 0.99700  0.14730  0.45630  Biso   1.000  C
  C122     1.0000 0.00300  0.64730  0.04370  Biso   1.000  C
  C123     1.0000 0.00300  0.85270  0.54370  Biso   1.000  C
  C124     1.0000 0.99700  0.35270  0.95630  Biso   1.000  C
  C125     1.0000 0.05210  0.08580  0.43360  Biso   1.000  C
  C126     1.0000 0.94790  0.58580  0.06640  Biso   1.000  C
  C127     1.0000 0.94790  0.91420  0.56640  Biso   1.000  C
  C128     1.0000 0.05210  0.41420  0.93360  Biso   1.000  C
  C129     1.0000 0.02370  0.06870  0.37070  Biso   1.000  C
  C130     1.0000 0.97630  0.56870  0.12930  Biso   1.000  C
  C131     1.0000 0.97630  0.93130  0.62930  Biso   1.000  C
  C132     1.0000 0.02370  0.43130  0.87070  Biso   1.000  C
  H85      1.0000 0.96970  0.09600  0.34280  Biso   1.000  H
  H86      1.0000 0.03030  0.59600  0.15720  Biso   1.000  H
  H87      1.0000 0.03030  0.90400  0.65720  Biso   1.000  H
  H88      1.0000 0.96970  0.40400  0.84280  Biso   1.000  H
  C133     1.0000 0.14400  0.97540  0.38770  Biso   1.000  C
  C134     1.0000 0.85600  0.47540  0.11230  Biso   1.000  C
  C135     1.0000 0.85600  0.02460  0.61230  Biso   1.000  C
  C136     1.0000 0.14400  0.52460  0.88770  Biso   1.000  C
  H89      1.0000 0.17440  0.93690  0.37310  Biso   1.000  H
  H90      1.0000 0.82560  0.43690  0.12690  Biso   1.000  H
  H91      1.0000 0.82560  0.06310  0.62690  Biso   1.000  H
  H92      1.0000 0.17440  0.56310  0.87310  Biso   1.000  H
  C137     1.0000 0.17650  0.99100  0.45090  Biso   1.000  C
  C138     1.0000 0.82350  0.49100  0.04910  Biso   1.000  C
  C139     1.0000 0.82350  0.00900  0.54910  Biso   1.000  C
  C140     1.0000 0.17650  0.50900  0.95090  Biso   1.000  C
  C141     1.0000 0.13140  0.04560  0.47570  Biso   1.000  C
  C142     1.0000 0.86860  0.54560  0.02430  Biso   1.000  C
  C143     1.0000 0.86860  0.95440  0.52430  Biso   1.000  C
  C144     1.0000 0.13140  0.45440  0.97570  Biso   1.000  C
  H93      1.0000 0.15300  0.05540  0.51880  Biso   1.000  H
  H94      1.0000 0.84700  0.55540  0.98120  Biso   1.000  H
  H95      1.0000 0.84700  0.94460  0.48120  Biso   1.000  H
  H96      1.0000 0.15300  0.44460  0.01880  Biso   1.000  H
  O61      1.0000 0.78050  0.59370  0.86260  Biso   1.000  O
  O62      1.0000 0.21950  0.09370  0.63740  Biso   1.000  O
  O63      1.0000 0.21950  0.40630  0.13740  Biso   1.000  O
  O64      1.0000 0.78050  0.90630  0.36260  Biso   1.000  O
  H97      1.0000 0.70880  0.61650  0.85070  Biso   1.000  H
  H98      1.0000 0.29120  0.11650  0.64930  Biso   1.000  H
  H99      1.0000 0.29120  0.38350  0.14930  Biso   1.000  H
  H100     1.0000 0.70880  0.88350  0.35070  Biso   1.000  H
  H101     1.0000 0.80000  0.56540  0.83650  Biso   1.000  H
  H102     1.0000 0.20000  0.06540  0.66350  Biso   1.000  H
  H103     1.0000 0.20000  0.43460  0.16350  Biso   1.000  H
  H104     1.0000 0.80000  0.93460  0.33650  Biso   1.000  H
  O65      1.0000 0.10820  0.69420  0.26590  Biso   1.000  O
  O66      1.0000 0.89180  0.19420  0.23410  Biso   1.000  O
  O67      1.0000 0.89180  0.30580  0.73410  Biso   1.000  O
  O68      1.0000 0.10820  0.80580  0.76590  Biso   1.000  O
  H105     1.0000 0.11000  0.70440  0.22710  Biso   1.000  H
  H106     1.0000 0.89000  0.20440  0.27290  Biso   1.000  H
  H107     1.0000 0.89000  0.29560  0.77290  Biso   1.000  H
  H108     1.0000 0.11000  0.79560  0.72710  Biso   1.000  H
  H109     1.0000 0.14420  0.65870  0.27830  Biso   1.000  H
  H110     1.0000 0.85580  0.15870  0.22170  Biso   1.000  H
  H111     1.0000 0.85580  0.34130  0.72170  Biso   1.000  H
  H112     1.0000 0.14420  0.84130  0.77830  Biso   1.000  H
  O69      1.0000 0.96860  0.78600  0.21120  Biso   1.000  O
  O70      1.0000 0.03140  0.28600  0.28880  Biso   1.000  O
  O71      1.0000 0.03140  0.21400  0.78880  Biso   1.000  O
  O72      1.0000 0.96860  0.71400  0.71120  Biso   1.000  O
