data_image0
_cell_length_a       11.087
_cell_length_b       11.502
_cell_length_c       12.695
_cell_angle_alpha    90
_cell_angle_beta     116.61
_cell_angle_gamma    90

_symmetry_space_group_name_H-M    "P 1"
_symmetry_int_tables_number       1

loop_
  _symmetry_equiv_pos_as_xyz
  'x, y, z'

loop_
  _atom_site_label
  _atom_site_occupancy
  _atom_site_fract_x
  _atom_site_fract_y
  _atom_site_fract_z
  _atom_site_thermal_displace_type
  _atom_site_B_iso_or_equiv
  _atom_site_type_symbol
  Cu1      1.0000 0.45579  0.97497  0.88693  Biso   1.000  Cu
  Cu2      1.0000 0.54421  0.47497  0.61307  Biso   1.000  Cu
  Cu3      1.0000 0.54421  0.02503  0.11307  Biso   1.000  Cu
  Cu4      1.0000 0.45579  0.52503  0.38693  Biso   1.000  Cu
  Cl1      1.0000 0.24420  0.12600  0.40210  Biso   1.000  Cl
  Cl2      1.0000 0.75580  0.62600  0.09790  Biso   1.000  Cl
  Cl3      1.0000 0.75580  0.87400  0.59790  Biso   1.000  Cl
  Cl4      1.0000 0.24420  0.37400  0.90210  Biso   1.000  Cl
  Cl5      1.0000 0.93500  0.23360  0.10700  Biso   1.000  Cl
  Cl6      1.0000 0.06500  0.73360  0.39300  Biso   1.000  Cl
  Cl7      1.0000 0.06500  0.76640  0.89300  Biso   1.000  Cl
  Cl8      1.0000 0.93500  0.26640  0.60700  Biso   1.000  Cl
  O1       1.0000 0.42170  0.68550  0.42420  Biso   1.000  O
  O2       1.0000 0.57830  0.18550  0.07580  Biso   1.000  O
  O3       1.0000 0.57830  0.31450  0.57580  Biso   1.000  O
  O4       1.0000 0.42170  0.81450  0.92420  Biso   1.000  O
  O5       1.0000 0.49690  0.63960  0.61540  Biso   1.000  O
  O6       1.0000 0.50310  0.13960  0.88460  Biso   1.000  O
  O7       1.0000 0.50310  0.36040  0.38460  Biso   1.000  O
  O8       1.0000 0.49690  0.86040  0.11540  Biso   1.000  O
  O9       1.0000 0.27960  0.02140  0.87340  Biso   1.000  O
  O10      1.0000 0.72040  0.52140  0.62660  Biso   1.000  O
  O11      1.0000 0.72040  0.97860  0.12660  Biso   1.000  O
  O12      1.0000 0.27960  0.47860  0.37340  Biso   1.000  O
  O13      1.0000 0.35620  0.06720  0.06250  Biso   1.000  O
  O14      1.0000 0.64380  0.56720  0.43750  Biso   1.000  O
  O15      1.0000 0.64380  0.93280  0.93750  Biso   1.000  O
  O16      1.0000 0.35620  0.43280  0.56250  Biso   1.000  O
  N1       1.0000 0.40370  0.95190  0.70280  Biso   1.000  N
  N2       1.0000 0.59630  0.45190  0.79720  Biso   1.000  N
  N3       1.0000 0.59630  0.04810  0.29720  Biso   1.000  N
  N4       1.0000 0.40370  0.54810  0.20280  Biso   1.000  N
  N5       1.0000 0.88880  0.10760  0.80250  Biso   1.000  N
  N6       1.0000 0.11120  0.60760  0.69750  Biso   1.000  N
  N7       1.0000 0.11120  0.89240  0.19750  Biso   1.000  N
  N8       1.0000 0.88880  0.39240  0.30250  Biso   1.000  N
  C1       1.0000 0.34620  0.03360  0.61980  Biso   1.000  C
  C2       1.0000 0.65380  0.53360  0.88020  Biso   1.000  C
  C3       1.0000 0.65380  0.96640  0.38020  Biso   1.000  C
  C4       1.0000 0.34620  0.46640  0.11980  Biso   1.000  C
  H1       1.0000 0.32390  0.10480  0.64110  Biso   1.000  H
  H2       1.0000 0.67610  0.60480  0.85890  Biso   1.000  H
  H3       1.0000 0.67610  0.89520  0.35890  Biso   1.000  H
  H4       1.0000 0.32390  0.39520  0.14110  Biso   1.000  H
  C5       1.0000 0.31910  0.01560  0.50370  Biso   1.000  C
  C6       1.0000 0.68090  0.51560  0.99630  Biso   1.000  C
  C7       1.0000 0.68090  0.98440  0.49630  Biso   1.000  C
  C8       1.0000 0.31910  0.48440  0.00370  Biso   1.000  C
  C9       1.0000 0.35240  0.91130  0.47150  Biso   1.000  C
  C10      1.0000 0.64760  0.41130  0.02850  Biso   1.000  C
  C11      1.0000 0.64760  0.08870  0.52850  Biso   1.000  C
  C12      1.0000 0.35240  0.58870  0.97150  Biso   1.000  C
  H5       1.0000 0.33500  0.89770  0.39370  Biso   1.000  H
  H6       1.0000 0.66500  0.39770  0.10630  Biso   1.000  H
  H7       1.0000 0.66500  0.10230  0.60630  Biso   1.000  H
  H8       1.0000 0.33500  0.60230  0.89370  Biso   1.000  H
  C13      1.0000 0.41230  0.82700  0.55640  Biso   1.000  C
  C14      1.0000 0.58770  0.32700  0.94360  Biso   1.000  C
  C15      1.0000 0.58770  0.17300  0.44360  Biso   1.000  C
  C16      1.0000 0.41230  0.67300  0.05640  Biso   1.000  C
  C17      1.0000 0.43600  0.85160  0.67060  Biso   1.000  C
  C18      1.0000 0.56400  0.35160  0.82940  Biso   1.000  C
  C19      1.0000 0.56400  0.14840  0.32940  Biso   1.000  C
  C20      1.0000 0.43600  0.64840  0.17060  Biso   1.000  C
  H9       1.0000 0.47690  0.79480  0.72790  Biso   1.000  H
  H10      1.0000 0.52310  0.29480  0.77210  Biso   1.000  H
  H11      1.0000 0.52310  0.20520  0.27210  Biso   1.000  H
  H12      1.0000 0.47690  0.70520  0.22790  Biso   1.000  H
  C21      1.0000 0.44690  0.70800  0.52930  Biso   1.000  C
  C22      1.0000 0.55310  0.20800  0.97070  Biso   1.000  C
  C23      1.0000 0.55310  0.29200  0.47070  Biso   1.000  C
  C24      1.0000 0.44690  0.79200  0.02930  Biso   1.000  C
  C25      1.0000 0.26360  0.05820  0.96040  Biso   1.000  C
  C26      1.0000 0.73640  0.55820  0.53960  Biso   1.000  C
  C27      1.0000 0.73640  0.94180  0.03960  Biso   1.000  C
  C28      1.0000 0.26360  0.44180  0.46040  Biso   1.000  C
  C29      1.0000 0.12580  0.09360  0.93680  Biso   1.000  C
  C30      1.0000 0.87420  0.59360  0.56320  Biso   1.000  C
  C31      1.0000 0.87420  0.90640  0.06320  Biso   1.000  C
  C32      1.0000 0.12580  0.40640  0.43680  Biso   1.000  C
  C33      1.0000 0.10220  0.14270  0.02680  Biso   1.000  C
  C34      1.0000 0.89780  0.64270  0.47320  Biso   1.000  C
  C35      1.0000 0.89780  0.85730  0.97320  Biso   1.000  C
  C36      1.0000 0.10220  0.35730  0.52680  Biso   1.000  C
  H13      1.0000 0.17220  0.15410  0.10180  Biso   1.000  H
  H14      1.0000 0.82780  0.65410  0.39820  Biso   1.000  H
  H15      1.0000 0.82780  0.84590  0.89820  Biso   1.000  H
  H16      1.0000 0.17220  0.34590  0.60180  Biso   1.000  H
  C37      1.0000 0.97210  0.17340  0.00030  Biso   1.000  C
  C38      1.0000 0.02790  0.67340  0.49970  Biso   1.000  C
  C39      1.0000 0.02790  0.82660  0.99970  Biso   1.000  C
  C40      1.0000 0.97210  0.32660  0.50030  Biso   1.000  C
  C41      1.0000 0.86870  0.15520  0.88840  Biso   1.000  C
  C42      1.0000 0.13130  0.65520  0.61160  Biso   1.000  C
  C43      1.0000 0.13130  0.84480  0.11160  Biso   1.000  C
  C44      1.0000 0.86870  0.34480  0.38840  Biso   1.000  C
  H17      1.0000 0.78160  0.17740  0.87290  Biso   1.000  H
  H18      1.0000 0.21840  0.67740  0.62710  Biso   1.000  H
  H19      1.0000 0.21840  0.82260  0.12710  Biso   1.000  H
  H20      1.0000 0.78160  0.32260  0.37290  Biso   1.000  H
  C45      1.0000 0.01560  0.07890  0.82730  Biso   1.000  C
  C46      1.0000 0.98440  0.57890  0.67270  Biso   1.000  C
  C47      1.0000 0.98440  0.92110  0.17270  Biso   1.000  C
  C48      1.0000 0.01560  0.42110  0.32730  Biso   1.000  C
  H21      1.0000 0.03110  0.04690  0.76720  Biso   1.000  H
  H22      1.0000 0.96890  0.54690  0.73280  Biso   1.000  H
  H23      1.0000 0.96890  0.95310  0.23280  Biso   1.000  H
  H24      1.0000 0.03110  0.45310  0.26720  Biso   1.000  H
