data_image0
_cell_length_a       15.139
_cell_length_b       15.426
_cell_length_c       10.676
_cell_angle_alpha    90
_cell_angle_beta     131.27
_cell_angle_gamma    90

_symmetry_space_group_name_H-M    "P 1"
_symmetry_int_tables_number       1

loop_
  _symmetry_equiv_pos_as_xyz
  'x, y, z'

loop_
  _atom_site_label
  _atom_site_occupancy
  _atom_site_fract_x
  _atom_site_fract_y
  _atom_site_fract_z
  _atom_site_thermal_displace_type
  _atom_site_B_iso_or_equiv
  _atom_site_type_symbol
  Cu1      1.0000 0.57720  0.00000  0.16670  Biso   1.000  Cu
  Cu2      1.0000 0.07720  0.50000  0.16670  Biso   1.000  Cu
  Cu3      1.0000 0.42280  0.00000  0.83330  Biso   1.000  Cu
  Cu4      1.0000 0.92280  0.50000  0.83330  Biso   1.000  Cu
  F1       1.0000 0.64660  0.28390  0.12500  Biso   1.000  F
  F2       1.0000 0.64660  0.71610  0.12500  Biso   1.000  F
  F3       1.0000 0.14660  0.78390  0.12500  Biso   1.000  F
  F4       1.0000 0.14660  0.21610  0.12500  Biso   1.000  F
  F5       1.0000 0.35340  0.71610  0.87500  Biso   1.000  F
  F6       1.0000 0.35340  0.28390  0.87500  Biso   1.000  F
  F7       1.0000 0.85340  0.21610  0.87500  Biso   1.000  F
  F8       1.0000 0.85340  0.78390  0.87500  Biso   1.000  F
  F9       1.0000 0.76780  0.40760  0.12100  Biso   1.000  F
  F10      1.0000 0.76780  0.59240  0.12100  Biso   1.000  F
  F11      1.0000 0.26780  0.90760  0.12100  Biso   1.000  F
  F12      1.0000 0.26780  0.09240  0.12100  Biso   1.000  F
  F13      1.0000 0.23220  0.59240  0.87900  Biso   1.000  F
  F14      1.0000 0.23220  0.40760  0.87900  Biso   1.000  F
  F15      1.0000 0.73220  0.09240  0.87900  Biso   1.000  F
  F16      1.0000 0.73220  0.90760  0.87900  Biso   1.000  F
  O1       1.0000 0.65510  0.08930  0.14000  Biso   1.000  O
  O2       1.0000 0.65510  0.91070  0.14000  Biso   1.000  O
  O3       1.0000 0.15510  0.58930  0.14000  Biso   1.000  O
  O4       1.0000 0.15510  0.41070  0.14000  Biso   1.000  O
  O5       1.0000 0.34490  0.91070  0.86000  Biso   1.000  O
  O6       1.0000 0.34490  0.08930  0.86000  Biso   1.000  O
  O7       1.0000 0.84490  0.41070  0.86000  Biso   1.000  O
  O8       1.0000 0.84490  0.58930  0.86000  Biso   1.000  O
  O9       1.0000 0.52740  0.08970  0.86310  Biso   1.000  O
  O10      1.0000 0.52740  0.91030  0.86310  Biso   1.000  O
  O11      1.0000 0.02740  0.58970  0.86310  Biso   1.000  O
  O12      1.0000 0.02740  0.41030  0.86310  Biso   1.000  O
  O13      1.0000 0.47260  0.91030  0.13690  Biso   1.000  O
  O14      1.0000 0.47260  0.08970  0.13690  Biso   1.000  O
  O15      1.0000 0.97260  0.41030  0.13690  Biso   1.000  O
  O16      1.0000 0.97260  0.58970  0.13690  Biso   1.000  O
  O17      1.0000 0.69520  0.00000  0.42300  Biso   1.000  O
  O18      1.0000 0.19520  0.50000  0.42300  Biso   1.000  O
  O19      1.0000 0.30480  0.00000  0.57700  Biso   1.000  O
  O20      1.0000 0.80480  0.50000  0.57700  Biso   1.000  O
  C1       1.0000 0.61580  0.11500  0.99900  Biso   1.000  C
  C2       1.0000 0.61580  0.88500  0.99900  Biso   1.000  C
  C3       1.0000 0.11580  0.61500  0.99900  Biso   1.000  C
  C4       1.0000 0.11580  0.38500  0.99900  Biso   1.000  C
  C5       1.0000 0.38420  0.88500  0.00100  Biso   1.000  C
  C6       1.0000 0.38420  0.11500  0.00100  Biso   1.000  C
  C7       1.0000 0.88420  0.38500  0.00100  Biso   1.000  C
  C8       1.0000 0.88420  0.61500  0.00100  Biso   1.000  C
  C9       1.0000 0.76080  0.32980  0.06200  Biso   1.000  C
  C10      1.0000 0.76080  0.67020  0.06200  Biso   1.000  C
  C11      1.0000 0.26080  0.82980  0.06200  Biso   1.000  C
  C12      1.0000 0.26080  0.17020  0.06200  Biso   1.000  C
  C13      1.0000 0.23920  0.67020  0.93800  Biso   1.000  C
  C14      1.0000 0.23920  0.32980  0.93800  Biso   1.000  C
  C15      1.0000 0.73920  0.17020  0.93800  Biso   1.000  C
  C16      1.0000 0.73920  0.82980  0.93800  Biso   1.000  C
  C17      1.0000 0.68510  0.18470  0.00000  Biso   1.000  C
  C18      1.0000 0.68510  0.81530  0.00000  Biso   1.000  C
  C19      1.0000 0.18510  0.68470  0.00000  Biso   1.000  C
  C20      1.0000 0.18510  0.31530  0.00000  Biso   1.000  C
  C21      1.0000 0.31490  0.81530  0.00000  Biso   1.000  C
  C22      1.0000 0.31490  0.18470  0.00000  Biso   1.000  C
  C23      1.0000 0.81490  0.31530  0.00000  Biso   1.000  C
  C24      1.0000 0.81490  0.68470  0.00000  Biso   1.000  C
  C25      1.0000 0.69900  0.26630  0.06500  Biso   1.000  C
  C26      1.0000 0.69900  0.73370  0.06500  Biso   1.000  C
  C27      1.0000 0.19900  0.76630  0.06500  Biso   1.000  C
  C28      1.0000 0.19900  0.23370  0.06500  Biso   1.000  C
  C29      1.0000 0.30100  0.73370  0.93500  Biso   1.000  C
  C30      1.0000 0.30100  0.26630  0.93500  Biso   1.000  C
  C31      1.0000 0.80100  0.23370  0.93500  Biso   1.000  C
  C32      1.0000 0.80100  0.76630  0.93500  Biso   1.000  C
  C33      1.0000 0.66800  0.00000  0.52800  Biso   1.000  C
  C34      1.0000 0.16800  0.50000  0.52800  Biso   1.000  C
  C35      1.0000 0.33200  0.00000  0.47200  Biso   1.000  C
  C36      1.0000 0.83200  0.50000  0.47200  Biso   1.000  C
  H1       1.0000 0.73890  0.00000  0.64160  Biso   1.000  H
  H2       1.0000 0.23890  0.50000  0.64160  Biso   1.000  H
  H3       1.0000 0.26110  0.00000  0.35840  Biso   1.000  H
  H4       1.0000 0.76110  0.50000  0.35840  Biso   1.000  H
  H5       1.0000 0.62250  0.04980  0.50510  Biso   1.000  H
  H6       1.0000 0.62250  0.95020  0.50510  Biso   1.000  H
  H7       1.0000 0.12250  0.54980  0.50510  Biso   1.000  H
  H8       1.0000 0.12250  0.45020  0.50510  Biso   1.000  H
  H9       1.0000 0.37750  0.95020  0.49490  Biso   1.000  H
  H10      1.0000 0.37750  0.04980  0.49490  Biso   1.000  H
  H11      1.0000 0.87750  0.45020  0.49490  Biso   1.000  H
  H12      1.0000 0.87750  0.54980  0.49490  Biso   1.000  H
  H13      1.0000 0.77620  0.00000  0.47730  Biso   1.000  H
  H14      1.0000 0.27620  0.50000  0.47730  Biso   1.000  H
  H15      1.0000 0.22380  0.00000  0.52270  Biso   1.000  H
  H16      1.0000 0.72380  0.50000  0.52270  Biso   1.000  H
