data_image0
_cell_length_a       10.866
_cell_length_b       10.866
_cell_length_c       9.6705
_cell_angle_alpha    90
_cell_angle_beta     90
_cell_angle_gamma    90

_symmetry_space_group_name_H-M    "P 1"
_symmetry_int_tables_number       1

loop_
  _symmetry_equiv_pos_as_xyz
  'x, y, z'

loop_
  _atom_site_label
  _atom_site_occupancy
  _atom_site_fract_x
  _atom_site_fract_y
  _atom_site_fract_z
  _atom_site_thermal_displace_type
  _atom_site_B_iso_or_equiv
  _atom_site_type_symbol
  Cu1      1.0000 0.00000  0.00000  0.14430  Biso   1.000  Cu
  Cu2      1.0000 0.00000  0.00000  0.85570  Biso   1.000  Cu
  O1       1.0000 0.00000  0.16960  0.12000  Biso   1.000  O
  O2       1.0000 0.83040  0.00000  0.12000  Biso   1.000  O
  O3       1.0000 0.16960  0.00000  0.12000  Biso   1.000  O
  O4       1.0000 0.16960  0.00000  0.88000  Biso   1.000  O
  O5       1.0000 0.00000  0.83040  0.12000  Biso   1.000  O
  O6       1.0000 0.00000  0.16960  0.88000  Biso   1.000  O
  O7       1.0000 0.00000  0.83040  0.88000  Biso   1.000  O
  O8       1.0000 0.83040  0.00000  0.88000  Biso   1.000  O
  N1       1.0000 0.00000  0.00000  0.36900  Biso   1.000  N
  N2       1.0000 0.00000  0.00000  0.63100  Biso   1.000  N
  C1       1.0000 0.93000  0.44000  0.10900  Biso   1.000  C
  C2       1.0000 0.56000  0.93000  0.10900  Biso   1.000  C
  C3       1.0000 0.44000  0.07000  0.10900  Biso   1.000  C
  C4       1.0000 0.44000  0.93000  0.89100  Biso   1.000  C
  C5       1.0000 0.07000  0.56000  0.10900  Biso   1.000  C
  C6       1.0000 0.07000  0.44000  0.89100  Biso   1.000  C
  C7       1.0000 0.93000  0.56000  0.89100  Biso   1.000  C
  C8       1.0000 0.56000  0.07000  0.89100  Biso   1.000  C
  C9       1.0000 0.07000  0.56000  0.89100  Biso   1.000  C
  C10      1.0000 0.44000  0.07000  0.89100  Biso   1.000  C
  C11      1.0000 0.56000  0.93000  0.89100  Biso   1.000  C
  C12      1.0000 0.56000  0.07000  0.10900  Biso   1.000  C
  C13      1.0000 0.93000  0.44000  0.89100  Biso   1.000  C
  C14      1.0000 0.93000  0.56000  0.10900  Biso   1.000  C
  C15      1.0000 0.07000  0.44000  0.10900  Biso   1.000  C
  C16      1.0000 0.44000  0.93000  0.10900  Biso   1.000  C
  C17      1.0000 0.00000  0.37100  0.00000  Biso   1.000  C
  C18      1.0000 0.62900  0.00000  0.00000  Biso   1.000  C
  C19      1.0000 0.37100  0.00000  0.00000  Biso   1.000  C
  C20      1.0000 0.00000  0.62900  0.00000  Biso   1.000  C
  C21      1.0000 0.89119  0.93718  0.42200  Biso   1.000  C
  C22      1.0000 0.06282  0.89119  0.42200  Biso   1.000  C
  C23      1.0000 0.93718  0.10881  0.42200  Biso   1.000  C
  C24      1.0000 0.93718  0.89119  0.57800  Biso   1.000  C
  C25      1.0000 0.10881  0.06282  0.42200  Biso   1.000  C
  C26      1.0000 0.10881  0.93718  0.57800  Biso   1.000  C
  C27      1.0000 0.89119  0.06282  0.57800  Biso   1.000  C
  C28      1.0000 0.06282  0.10881  0.57800  Biso   1.000  C
  C29      1.0000 0.10881  0.06282  0.57800  Biso   1.000  C
  C30      1.0000 0.93718  0.10881  0.57800  Biso   1.000  C
  C31      1.0000 0.06282  0.89119  0.57800  Biso   1.000  C
  C32      1.0000 0.06282  0.10881  0.42200  Biso   1.000  C
  C33      1.0000 0.89119  0.93718  0.57800  Biso   1.000  C
  C34      1.0000 0.89119  0.06282  0.42200  Biso   1.000  C
  C35      1.0000 0.10881  0.93718  0.42200  Biso   1.000  C
  C36      1.0000 0.93718  0.89119  0.42200  Biso   1.000  C
  C37      1.0000 0.00000  0.12565  0.42200  Biso   1.000  C
  C38      1.0000 0.87435  0.00000  0.42200  Biso   1.000  C
  C39      1.0000 0.12565  0.00000  0.42200  Biso   1.000  C
  C40      1.0000 0.12565  0.00000  0.57800  Biso   1.000  C
  C41      1.0000 0.00000  0.87435  0.42200  Biso   1.000  C
  C42      1.0000 0.00000  0.12565  0.57800  Biso   1.000  C
  C43      1.0000 0.00000  0.87435  0.57800  Biso   1.000  C
  C44      1.0000 0.87435  0.00000  0.57800  Biso   1.000  C
  C45      1.0000 0.00000  0.23000  0.00000  Biso   1.000  C
  C46      1.0000 0.77000  0.00000  0.00000  Biso   1.000  C
  C47      1.0000 0.23000  0.00000  0.00000  Biso   1.000  C
  C48      1.0000 0.00000  0.77000  0.00000  Biso   1.000  C
  F1       1.0000 0.85630  0.37800  0.19700  Biso   1.000  F
  F2       1.0000 0.62200  0.85630  0.19700  Biso   1.000  F
  F3       1.0000 0.37800  0.14370  0.19700  Biso   1.000  F
  F4       1.0000 0.37800  0.85630  0.80300  Biso   1.000  F
  F5       1.0000 0.14370  0.62200  0.19700  Biso   1.000  F
  F6       1.0000 0.14370  0.37800  0.80300  Biso   1.000  F
  F7       1.0000 0.85630  0.62200  0.80300  Biso   1.000  F
  F8       1.0000 0.62200  0.14370  0.80300  Biso   1.000  F
  F9       1.0000 0.14370  0.62200  0.80300  Biso   1.000  F
  F10      1.0000 0.37800  0.14370  0.80300  Biso   1.000  F
  F11      1.0000 0.62200  0.85630  0.80300  Biso   1.000  F
  F12      1.0000 0.62200  0.14370  0.19700  Biso   1.000  F
  F13      1.0000 0.85630  0.37800  0.80300  Biso   1.000  F
  F14      1.0000 0.85630  0.62200  0.19700  Biso   1.000  F
  F15      1.0000 0.14370  0.37800  0.19700  Biso   1.000  F
  F16      1.0000 0.37800  0.85630  0.19700  Biso   1.000  F
  H1       1.0000 0.83880  0.92320  0.37300  Biso   1.000  H
  H2       1.0000 0.07680  0.83880  0.37300  Biso   1.000  H
  H3       1.0000 0.92320  0.16120  0.37300  Biso   1.000  H
  H4       1.0000 0.92320  0.83880  0.62700  Biso   1.000  H
  H5       1.0000 0.16120  0.07680  0.37300  Biso   1.000  H
  H6       1.0000 0.16120  0.92320  0.62700  Biso   1.000  H
  H7       1.0000 0.83880  0.07680  0.62700  Biso   1.000  H
  H8       1.0000 0.07680  0.16120  0.62700  Biso   1.000  H
  H9       1.0000 0.16120  0.07680  0.62700  Biso   1.000  H
  H10      1.0000 0.92320  0.16120  0.62700  Biso   1.000  H
  H11      1.0000 0.07680  0.83880  0.62700  Biso   1.000  H
  H12      1.0000 0.07680  0.16120  0.37300  Biso   1.000  H
  H13      1.0000 0.83880  0.92320  0.62700  Biso   1.000  H
  H14      1.0000 0.83880  0.07680  0.37300  Biso   1.000  H
  H15      1.0000 0.16120  0.92320  0.37300  Biso   1.000  H
  H16      1.0000 0.92320  0.83880  0.37300  Biso   1.000  H
  H17      1.0000 0.82200  0.98590  0.37300  Biso   1.000  H
  H18      1.0000 0.01410  0.82200  0.37300  Biso   1.000  H
  H19      1.0000 0.98590  0.17800  0.37300  Biso   1.000  H
  H20      1.0000 0.98590  0.82200  0.62700  Biso   1.000  H
  H21      1.0000 0.17800  0.01410  0.37300  Biso   1.000  H
  H22      1.0000 0.17800  0.98590  0.62700  Biso   1.000  H
  H23      1.0000 0.82200  0.01410  0.62700  Biso   1.000  H
  H24      1.0000 0.01410  0.17800  0.62700  Biso   1.000  H
  H25      1.0000 0.17800  0.01410  0.62700  Biso   1.000  H
  H26      1.0000 0.98590  0.17800  0.62700  Biso   1.000  H
  H27      1.0000 0.01410  0.82200  0.62700  Biso   1.000  H
  H28      1.0000 0.01410  0.17800  0.37300  Biso   1.000  H
  H29      1.0000 0.82200  0.98590  0.62700  Biso   1.000  H
  H30      1.0000 0.82200  0.01410  0.37300  Biso   1.000  H
  H31      1.0000 0.17800  0.98590  0.37300  Biso   1.000  H
  H32      1.0000 0.98590  0.82200  0.37300  Biso   1.000  H
  H33      1.0000 0.88910  0.86100  0.37300  Biso   1.000  H
  H34      1.0000 0.13900  0.88910  0.37300  Biso   1.000  H
  H35      1.0000 0.86100  0.11090  0.37300  Biso   1.000  H
  H36      1.0000 0.86100  0.88910  0.62700  Biso   1.000  H
  H37      1.0000 0.11090  0.13900  0.37300  Biso   1.000  H
  H38      1.0000 0.11090  0.86100  0.62700  Biso   1.000  H
  H39      1.0000 0.88910  0.13900  0.62700  Biso   1.000  H
  H40      1.0000 0.13900  0.11090  0.62700  Biso   1.000  H
  H41      1.0000 0.11090  0.13900  0.62700  Biso   1.000  H
  H42      1.0000 0.86100  0.11090  0.62700  Biso   1.000  H
  H43      1.0000 0.13900  0.88910  0.62700  Biso   1.000  H
  H44      1.0000 0.13900  0.11090  0.37300  Biso   1.000  H
  H45      1.0000 0.88910  0.86100  0.62700  Biso   1.000  H
  H46      1.0000 0.88910  0.13900  0.37300  Biso   1.000  H
  H47      1.0000 0.11090  0.86100  0.37300  Biso   1.000  H
  H48      1.0000 0.86100  0.88910  0.37300  Biso   1.000  H
