data_image0
_cell_length_a       9.01
_cell_length_b       7.6
_cell_length_c       10.38
_cell_angle_alpha    90
_cell_angle_beta     90
_cell_angle_gamma    90

_symmetry_space_group_name_H-M    "P 1"
_symmetry_int_tables_number       1

loop_
  _symmetry_equiv_pos_as_xyz
  'x, y, z'

loop_
  _atom_site_label
  _atom_site_occupancy
  _atom_site_fract_x
  _atom_site_fract_y
  _atom_site_fract_z
  _atom_site_thermal_displace_type
  _atom_site_B_iso_or_equiv
  _atom_site_type_symbol
  Br1      1.0000 0.24520  0.25000  0.92320  Biso   1.000  Br
  Br2      1.0000 0.25480  0.75000  0.42320  Biso   1.000  Br
  Br3      1.0000 0.74520  0.25000  0.57680  Biso   1.000  Br
  Br4      1.0000 0.75480  0.75000  0.07680  Biso   1.000  Br
  Cu1      1.0000 0.07960  0.25000  0.15860  Biso   1.000  Cu
  Cu2      1.0000 0.42040  0.75000  0.65860  Biso   1.000  Cu
  Cu3      1.0000 0.57960  0.25000  0.34140  Biso   1.000  Cu
  Cu4      1.0000 0.92040  0.75000  0.84140  Biso   1.000  Cu
  C1       1.0000 0.13050  0.25000  0.46470  Biso   1.000  C
  C2       1.0000 0.36950  0.75000  0.96470  Biso   1.000  C
  C3       1.0000 0.63050  0.25000  0.03530  Biso   1.000  C
  C4       1.0000 0.86950  0.75000  0.53530  Biso   1.000  C
  C5       1.0000 0.26900  0.25000  0.38450  Biso   1.000  C
  C6       1.0000 0.23100  0.75000  0.88450  Biso   1.000  C
  C7       1.0000 0.76900  0.25000  0.11550  Biso   1.000  C
  C8       1.0000 0.73100  0.75000  0.61550  Biso   1.000  C
  H1       1.0000 0.98800  0.52500  0.17100  Biso   1.000  H
  H2       1.0000 0.51200  0.47500  0.67100  Biso   1.000  H
  H3       1.0000 0.48800  0.97500  0.32900  Biso   1.000  H
  H4       1.0000 0.01200  0.02500  0.82900  Biso   1.000  H
  H5       1.0000 0.01200  0.47500  0.82900  Biso   1.000  H
  H6       1.0000 0.48800  0.52500  0.32900  Biso   1.000  H
  H7       1.0000 0.51200  0.02500  0.67100  Biso   1.000  H
  H8       1.0000 0.98800  0.97500  0.17100  Biso   1.000  H
  H9       1.0000 0.11800  0.53800  0.23500  Biso   1.000  H
  H10      1.0000 0.38200  0.46200  0.73500  Biso   1.000  H
  H11      1.0000 0.61800  0.96200  0.26500  Biso   1.000  H
  H12      1.0000 0.88200  0.03800  0.76500  Biso   1.000  H
  H13      1.0000 0.88200  0.46200  0.76500  Biso   1.000  H
  H14      1.0000 0.61800  0.53800  0.26500  Biso   1.000  H
  H15      1.0000 0.38200  0.03800  0.73500  Biso   1.000  H
  H16      1.0000 0.11800  0.96200  0.23500  Biso   1.000  H
  H17      1.0000 0.10200  0.54800  0.10500  Biso   1.000  H
  H18      1.0000 0.39800  0.45200  0.60500  Biso   1.000  H
  H19      1.0000 0.60200  0.95200  0.39500  Biso   1.000  H
  H20      1.0000 0.89800  0.04800  0.89500  Biso   1.000  H
  H21      1.0000 0.89800  0.45200  0.89500  Biso   1.000  H
  H22      1.0000 0.60200  0.54800  0.39500  Biso   1.000  H
  H23      1.0000 0.39800  0.04800  0.60500  Biso   1.000  H
  H24      1.0000 0.10200  0.95200  0.10500  Biso   1.000  H
  N1       1.0000 0.06720  0.50930  0.17740  Biso   1.000  N
  N2       1.0000 0.43280  0.49070  0.67740  Biso   1.000  N
  N3       1.0000 0.56720  0.99070  0.32260  Biso   1.000  N
  N4       1.0000 0.93280  0.00930  0.82260  Biso   1.000  N
  N5       1.0000 0.93280  0.49070  0.82260  Biso   1.000  N
  N6       1.0000 0.56720  0.50930  0.32260  Biso   1.000  N
  N7       1.0000 0.43280  0.00930  0.67740  Biso   1.000  N
  N8       1.0000 0.06720  0.99070  0.17740  Biso   1.000  N
  O1       1.0000 0.26540  0.25000  0.26410  Biso   1.000  O
  O2       1.0000 0.23460  0.75000  0.76410  Biso   1.000  O
  O3       1.0000 0.76540  0.25000  0.23590  Biso   1.000  O
  O4       1.0000 0.73460  0.75000  0.73590  Biso   1.000  O
  O5       1.0000 0.89330  0.25000  0.05470  Biso   1.000  O
  O6       1.0000 0.60670  0.75000  0.55470  Biso   1.000  O
  O7       1.0000 0.39330  0.25000  0.44530  Biso   1.000  O
  O8       1.0000 0.10670  0.75000  0.94530  Biso   1.000  O
