data_image0
_cell_length_a       11.5841
_cell_length_b       12.0774
_cell_length_c       12.1591
_cell_angle_alpha    63.859
_cell_angle_beta     71.425
_cell_angle_gamma    64.501

_symmetry_space_group_name_H-M    "P 1"
_symmetry_int_tables_number       1

loop_
  _symmetry_equiv_pos_as_xyz
  'x, y, z'

loop_
  _atom_site_label
  _atom_site_occupancy
  _atom_site_fract_x
  _atom_site_fract_y
  _atom_site_fract_z
  _atom_site_thermal_displace_type
  _atom_site_B_iso_or_equiv
  _atom_site_type_symbol
  Cu1      1.0000 0.50000  0.00000  0.50000  Biso   1.000  Cu
  Cu2      1.0000 0.50000  0.50000  0.00000  Biso   1.000  Cu
  S1       1.0000 0.43125  0.35272  0.35543  Biso   1.000  S
  S2       1.0000 0.56875  0.64728  0.64457  Biso   1.000  S
  O1       1.0000 0.62841  0.97758  0.58484  Biso   1.000  O
  O2       1.0000 0.37159  0.02242  0.41516  Biso   1.000  O
  O3       1.0000 0.48367  0.38530  0.93935  Biso   1.000  O
  O4       1.0000 0.51633  0.61470  0.06065  Biso   1.000  O
  C1       1.0000 0.60580  0.97340  0.69470  Biso   1.000  C
  C2       1.0000 0.39420  0.02660  0.30530  Biso   1.000  C
  F1       1.0000 0.80340  0.01040  0.64840  Biso   1.000  F
  F2       1.0000 0.19660  0.98960  0.35160  Biso   1.000  F
  O5       1.0000 0.44740  0.36220  0.23034  Biso   1.000  O
  O6       1.0000 0.55260  0.63780  0.76966  Biso   1.000  O
  O7       1.0000 0.42310  0.23117  0.45250  Biso   1.000  O
  O8       1.0000 0.57690  0.76883  0.54750  Biso   1.000  O
  N1       1.0000 0.55130  0.38870  0.36160  Biso   1.000  N
  N2       1.0000 0.44870  0.61130  0.63840  Biso   1.000  N
  C3       1.0000 0.67170  0.27080  0.39790  Biso   1.000  C
  C4       1.0000 0.32830  0.72920  0.60210  Biso   1.000  C
  H1       1.0000 0.66600  0.18400  0.41590  Biso   1.000  H
  H2       1.0000 0.33400  0.81600  0.58410  Biso   1.000  H
  C5       1.0000 0.29490  0.47870  0.38950  Biso   1.000  C
  C6       1.0000 0.70510  0.52130  0.61050  Biso   1.000  C
  C7       1.0000 0.21470  0.45110  0.50210  Biso   1.000  C
  C8       1.0000 0.78530  0.54890  0.49790  Biso   1.000  C
  H3       1.0000 0.23350  0.36420  0.56100  Biso   1.000  H
  H4       1.0000 0.76650  0.63580  0.43900  Biso   1.000  H
  C9       1.0000 0.26750  0.60580  0.30280  Biso   1.000  C
  C10      1.0000 0.73250  0.39420  0.69720  Biso   1.000  C
  H5       1.0000 0.32240  0.62530  0.22510  Biso   1.000  H
  H6       1.0000 0.67760  0.37470  0.77490  Biso   1.000  H
  C11      1.0000 0.07690  0.67750  0.44470  Biso   1.000  C
  C12      1.0000 0.92310  0.32250  0.55530  Biso   1.000  C
  C13      1.0000 0.10740  0.55050  0.52830  Biso   1.000  C
  C14      1.0000 0.89260  0.44950  0.47170  Biso   1.000  C
  H7       1.0000 0.05270  0.53110  0.60620  Biso   1.000  H
  H8       1.0000 0.94730  0.46890  0.39380  Biso   1.000  H
  C15      1.0000 0.15890  0.70270  0.33250  Biso   1.000  C
  C16      1.0000 0.84110  0.29730  0.66750  Biso   1.000  C
  H9       1.0000 0.13970  0.78980  0.27390  Biso   1.000  H
  H10      1.0000 0.86030  0.21020  0.72610  Biso   1.000  H
  C17      1.0000 0.58810  0.33700  0.48530  Biso   1.000  C
  C18      1.0000 0.41190  0.66300  0.51470  Biso   1.000  C
  H11      1.0000 0.62120  0.38980  0.50280  Biso   1.000  H
  H12      1.0000 0.37880  0.61020  0.49720  Biso   1.000  H
  H13      1.0000 0.53490  0.29080  0.55720  Biso   1.000  H
  H14      1.0000 0.46510  0.70920  0.44280  Biso   1.000  H
  C19      1.0000 0.79440  0.29030  0.32560  Biso   1.000  C
  C20      1.0000 0.20560  0.70970  0.67440  Biso   1.000  C
  H15      1.0000 0.80340  0.37240  0.30360  Biso   1.000  H
  H16      1.0000 0.19660  0.62760  0.69640  Biso   1.000  H
  C21      1.0000 0.95630  0.78560  0.47310  Biso   1.000  C
  C22      1.0000 0.04370  0.21440  0.52690  Biso   1.000  C
  H17      1.0000 0.88760  0.74910  0.52430  Biso   1.000  H
  H18      1.0000 0.11240  0.25090  0.47570  Biso   1.000  H
  H19      1.0000 0.92750  0.85360  0.39530  Biso   1.000  H
  H20      1.0000 0.07250  0.14640  0.60470  Biso   1.000  H
  H21      1.0000 0.97590  0.82410  0.51810  Biso   1.000  H
  H22      1.0000 0.02410  0.17590  0.48190  Biso   1.000  H
  C23      1.0000 0.89010  0.20020  0.29110  Biso   1.000  C
  C24      1.0000 0.10990  0.79980  0.70890  Biso   1.000  C
  H23      1.0000 0.88280  0.11750  0.31230  Biso   1.000  H
  H24      1.0000 0.11720  0.88250  0.68770  Biso   1.000  H
  H25      1.0000 0.96800  0.21630  0.24440  Biso   1.000  H
  H26      1.0000 0.03200  0.78370  0.75560  Biso   1.000  H
  O9       1.0000 0.31478  0.58870  0.02559  Biso   1.000  O
  O10      1.0000 0.68522  0.41130  0.97441  Biso   1.000  O
  C25      1.0000 0.23330  0.55430  0.01420  Biso   1.000  C
  C26      1.0000 0.76670  0.44570  0.98580  Biso   1.000  C
  C27      1.0000 0.37830  0.38600  0.93120  Biso   1.000  C
  C28      1.0000 0.62170  0.61400  0.06880  Biso   1.000  C
  C29      1.0000 0.39390  0.29120  0.87100  Biso   1.000  C
  C30      1.0000 0.60610  0.70880  0.12900  Biso   1.000  C
  C31      1.0000 0.09260  0.62780  0.06140  Biso   1.000  C
  C32      1.0000 0.90740  0.37220  0.93860  Biso   1.000  C
  C33      1.0000 0.25450  0.45950  0.96840  Biso   1.000  C
  C34      1.0000 0.74550  0.54050  0.03160  Biso   1.000  C
  H27      1.0000 0.18270  0.44480  0.96270  Biso   1.000  H
  H28      1.0000 0.81730  0.55520  0.03730  Biso   1.000  H
  C35      1.0000 0.49100  0.98090  0.77710  Biso   1.000  C
  C36      1.0000 0.50900  0.01910  0.22290  Biso   1.000  C
  H29      1.0000 0.48720  0.98040  0.85650  Biso   1.000  H
  H30      1.0000 0.51280  0.01960  0.14350  Biso   1.000  H
  C37      1.0000 0.72500  0.95390  0.73820  Biso   1.000  C
  C38      1.0000 0.27500  0.04610  0.26180  Biso   1.000  C
  F3       1.0000 0.79340  0.82720  0.78030  Biso   1.000  F
  F4       1.0000 0.20660  0.17280  0.21970  Biso   1.000  F
  F5       1.0000 0.69650  0.99700  0.82910  Biso   1.000  F
  F6       1.0000 0.30350  0.00300  0.17090  Biso   1.000  F
  F7       1.0000 0.00780  0.63060  0.00870  Biso   1.000  F
  F8       1.0000 0.99220  0.36940  0.99130  Biso   1.000  F
  F9       1.0000 0.07290  0.74630  0.04470  Biso   1.000  F
  F10      1.0000 0.92710  0.25370  0.95530  Biso   1.000  F
  C39      1.0000 0.38140  0.98930  0.74650  Biso   1.000  C
  C40      1.0000 0.61860  0.01070  0.25350  Biso   1.000  C
  C41      1.0000 0.25910  0.99770  0.84230  Biso   1.000  C
  C42      1.0000 0.74090  0.00230  0.15770  Biso   1.000  C
  O11      1.0000 0.36791  0.99278  0.64632  Biso   1.000  O
  O12      1.0000 0.63209  0.00722  0.35368  Biso   1.000  O
  F11      1.0000 0.17920  0.11950  0.81020  Biso   1.000  F
  F12      1.0000 0.82080  0.88050  0.18980  Biso   1.000  F
  F13      1.0000 0.27500  0.97040  0.95180  Biso   1.000  F
  F14      1.0000 0.72500  0.02960  0.04820  Biso   1.000  F
  F15      1.0000 0.06550  0.56780  0.18060  Biso   1.000  F
  F16      1.0000 0.93450  0.43220  0.81940  Biso   1.000  F
  F17      1.0000 0.19450  0.93530  0.84400  Biso   1.000  F
  F18      1.0000 0.80550  0.06470  0.15600  Biso   1.000  F
  F19      1.0000 0.39170  0.18140  0.94690  Biso   1.000  F
  F20      1.0000 0.60830  0.81860  0.05310  Biso   1.000  F
  F21      1.0000 0.50800  0.26880  0.79390  Biso   1.000  F
  F22      1.0000 0.49200  0.73120  0.20610  Biso   1.000  F
  F23      1.0000 0.31030  0.33910  0.79650  Biso   1.000  F
  F24      1.0000 0.68970  0.66090  0.20350  Biso   1.000  F
  F25      1.0000 0.46850  0.17310  0.92820  Biso   1.000  F
  F26      1.0000 0.53150  0.82690  0.07180  Biso   1.000  F
  F27      1.0000 0.43400  0.32610  0.76240  Biso   1.000  F
  F28      1.0000 0.56600  0.67390  0.23760  Biso   1.000  F
  F29      1.0000 0.28070  0.27360  0.88800  Biso   1.000  F
  F30      1.0000 0.71930  0.72640  0.11200  Biso   1.000  F
