data_image0
_cell_length_a       9.4375
_cell_length_b       15.2188
_cell_length_c       18.9663
_cell_angle_alpha    78.966
_cell_angle_beta     84.35
_cell_angle_gamma    80.514

_symmetry_space_group_name_H-M    "P 1"
_symmetry_int_tables_number       1

loop_
  _symmetry_equiv_pos_as_xyz
  'x, y, z'

loop_
  _atom_site_label
  _atom_site_occupancy
  _atom_site_fract_x
  _atom_site_fract_y
  _atom_site_fract_z
  _atom_site_thermal_displace_type
  _atom_site_B_iso_or_equiv
  _atom_site_type_symbol
  Cu1      1.0000 0.50000  0.00000  0.50000  Biso   1.000  Cu
  S1       1.0000 0.49255  0.11999  0.33516  Biso   1.000  S
  S2       1.0000 0.50745  0.88001  0.66484  Biso   1.000  S
  O1       1.0000 0.33660  0.10035  0.49742  Biso   1.000  O
  O2       1.0000 0.66340  0.89965  0.50258  Biso   1.000  O
  C1       1.0000 0.60940  0.16070  0.25940  Biso   1.000  C
  C2       1.0000 0.39060  0.83930  0.74060  Biso   1.000  C
  H1       1.0000 0.69130  0.17930  0.27650  Biso   1.000  H
  H2       1.0000 0.30870  0.82070  0.72350  Biso   1.000  H
  H3       1.0000 0.64520  0.11200  0.23290  Biso   1.000  H
  H4       1.0000 0.35480  0.88800  0.76710  Biso   1.000  H
  Cu2      1.0000 0.50000  0.50000  0.00000  Biso   1.000  Cu
  S3       1.0000 0.43337  0.42132  0.17514  Biso   1.000  S
  S4       1.0000 0.56663  0.57868  0.82486  Biso   1.000  S
  C3       1.0000 0.53110  0.24100  0.20870  Biso   1.000  C
  C4       1.0000 0.46890  0.75900  0.79130  Biso   1.000  C
  H5       1.0000 0.58880  0.25200  0.16360  Biso   1.000  H
  H6       1.0000 0.41120  0.74800  0.83640  Biso   1.000  H
  H7       1.0000 0.44000  0.22610  0.19840  Biso   1.000  H
  H8       1.0000 0.56000  0.77390  0.80160  Biso   1.000  H
  O3       1.0000 0.62330  0.06803  0.54187  Biso   1.000  O
  O4       1.0000 0.37670  0.93197  0.45813  Biso   1.000  O
  O5       1.0000 0.59100  0.05426  0.38515  Biso   1.000  O
  O6       1.0000 0.40900  0.94574  0.61485  Biso   1.000  O
  C5       1.0000 0.50360  0.32570  0.24160  Biso   1.000  C
  C6       1.0000 0.49640  0.67430  0.75840  Biso   1.000  C
  H9       1.0000 0.59260  0.33660  0.25760  Biso   1.000  H
  H10      1.0000 0.40740  0.66340  0.74240  Biso   1.000  H
  H11      1.0000 0.43490  0.31810  0.28300  Biso   1.000  H
  H12      1.0000 0.56510  0.68190  0.71700  Biso   1.000  H
  S5       1.0000 0.75713  0.09987  0.49933  Biso   1.000  S
  S6       1.0000 0.24287  0.90013  0.50067  Biso   1.000  S
  S7       1.0000 0.29440  0.14566  0.56339  Biso   1.000  S
  S8       1.0000 0.70560  0.85434  0.43661  Biso   1.000  S
  O7       1.0000 0.55460  0.43177  0.11901  Biso   1.000  O
  O8       1.0000 0.44540  0.56823  0.88099  Biso   1.000  O
  C7       1.0000 0.12200  0.11290  0.59620  Biso   1.000  C
  C8       1.0000 0.87800  0.88710  0.40380  Biso   1.000  C
  H13      1.0000 0.13560  0.04890  0.61670  Biso   1.000  H
  H14      1.0000 0.86440  0.95110  0.38330  Biso   1.000  H
  H15      1.0000 0.08200  0.14580  0.63440  Biso   1.000  H
  H16      1.0000 0.91800  0.85420  0.36560  Biso   1.000  H
  S9       1.0000 0.63297  0.62626  0.06806  Biso   1.000  S
  S10      1.0000 0.36703  0.37374  0.93194  Biso   1.000  S
  C9       1.0000 0.01480  0.13040  0.53860  Biso   1.000  C
  C10      1.0000 0.98520  0.86960  0.46140  Biso   1.000  C
  H17      1.0000 0.05680  0.10170  0.49830  Biso   1.000  H
  H18      1.0000 0.94320  0.89830  0.50170  Biso   1.000  H
  H19      1.0000 0.99270  0.19500  0.52120  Biso   1.000  H
  H20      1.0000 0.00730  0.80500  0.47880  Biso   1.000  H
  O9       1.0000 0.35040  0.58761  0.03848  Biso   1.000  O
  O10      1.0000 0.64960  0.41239  0.96152  Biso   1.000  O
  O11      1.0000 0.64580  0.57721  0.00420  Biso   1.000  O
  O12      1.0000 0.35420  0.42279  0.99580  Biso   1.000  O
  S11      1.0000 0.21073  0.61510  0.99963  Biso   1.000  S
  S12      1.0000 0.78927  0.38490  0.00037  Biso   1.000  S
  C11      1.0000 0.87680  0.09300  0.56890  Biso   1.000  C
  C12      1.0000 0.12320  0.90700  0.43110  Biso   1.000  C
  H21      1.0000 0.82880  0.12700  0.60500  Biso   1.000  H
  H22      1.0000 0.17120  0.87300  0.39500  Biso   1.000  H
  H23      1.0000 0.90050  0.03030  0.59200  Biso   1.000  H
  H24      1.0000 0.09950  0.96970  0.40800  Biso   1.000  H
  C13      1.0000 0.81020  0.60010  0.10070  Biso   1.000  C
  C14      1.0000 0.18980  0.39990  0.89930  Biso   1.000  C
  H25      1.0000 0.81340  0.63310  0.13940  Biso   1.000  H
  H26      1.0000 0.18660  0.36690  0.86060  Biso   1.000  H
  H27      1.0000 0.82920  0.53590  0.12040  Biso   1.000  H
  H28      1.0000 0.17080  0.46410  0.87960  Biso   1.000  H
  C15      1.0000 0.92720  0.62370  0.04260  Biso   1.000  C
  C16      1.0000 0.07280  0.37630  0.95740  Biso   1.000  C
  H29      1.0000 0.92040  0.59420  0.00230  Biso   1.000  H
  H30      1.0000 0.07960  0.40580  0.99770  Biso   1.000  H
  H31      1.0000 0.91350  0.68860  0.02540  Biso   1.000  H
  H32      1.0000 0.08650  0.31140  0.97460  Biso   1.000  H
  C17      1.0000 0.07480  0.59380  0.07140  Biso   1.000  C
  C18      1.0000 0.92520  0.40620  0.92860  Biso   1.000  C
  H33      1.0000 0.08640  0.52980  0.09180  Biso   1.000  H
  H34      1.0000 0.91360  0.47020  0.90820  Biso   1.000  H
  H35      1.0000 0.08480  0.62680  0.10920  Biso   1.000  H
  H36      1.0000 0.91520  0.37320  0.89080  Biso   1.000  H
  C19      1.0000 0.39720  0.05500  0.29350  Biso   1.000  C
  C20      1.0000 0.60280  0.94500  0.70650  Biso   1.000  C
  C21      1.0000 0.25310  0.08620  0.28440  Biso   1.000  C
  C22      1.0000 0.74690  0.91380  0.71560  Biso   1.000  C
  H37      1.0000 0.20820  0.14000  0.29820  Biso   1.000  H
  H38      1.0000 0.79180  0.86000  0.70180  Biso   1.000  H
  C23      1.0000 0.17760  0.03290  0.25320  Biso   1.000  C
  C24      1.0000 0.82240  0.96710  0.74680  Biso   1.000  C
  H39      1.0000 0.08050  0.05250  0.24640  Biso   1.000  H
  H40      1.0000 0.91950  0.94750  0.75360  Biso   1.000  H
  C25      1.0000 0.23960  0.95540  0.23310  Biso   1.000  C
  C26      1.0000 0.76040  0.04460  0.76690  Biso   1.000  C
  H41      1.0000 0.18680  0.92180  0.21230  Biso   1.000  H
  H42      1.0000 0.81320  0.07820  0.78770  Biso   1.000  H
  C27      1.0000 0.38000  0.92690  0.24340  Biso   1.000  C
  C28      1.0000 0.62000  0.07310  0.75660  Biso   1.000  C
  H43      1.0000 0.42300  0.87230  0.23020  Biso   1.000  H
  H44      1.0000 0.57700  0.12770  0.76980  Biso   1.000  H
  C29      1.0000 0.46290  0.97600  0.27300  Biso   1.000  C
  C30      1.0000 0.53710  0.02400  0.72700  Biso   1.000  C
  H45      1.0000 0.56020  0.95570  0.27880  Biso   1.000  H
  H46      1.0000 0.43980  0.04430  0.72120  Biso   1.000  H
  C31      1.0000 0.43230  0.50580  0.22757  Biso   1.000  C
  C32      1.0000 0.56770  0.49420  0.77243  Biso   1.000  C
  C33      1.0000 0.55980  0.52920  0.24420  Biso   1.000  C
  C34      1.0000 0.44020  0.47080  0.75580  Biso   1.000  C
  H47      1.0000 0.64760  0.49590  0.23220  Biso   1.000  H
  H48      1.0000 0.35240  0.50410  0.76780  Biso   1.000  H
  C35      1.0000 0.55590  0.60240  0.27870  Biso   1.000  C
  C36      1.0000 0.44410  0.39760  0.72130  Biso   1.000  C
  H49      1.0000 0.64120  0.61800  0.28990  Biso   1.000  H
  H50      1.0000 0.35880  0.38200  0.71010  Biso   1.000  H
  C37      1.0000 0.42460  0.65220  0.29660  Biso   1.000  C
  C38      1.0000 0.57540  0.34780  0.70340  Biso   1.000  C
  H51      1.0000 0.42200  0.70120  0.31970  Biso   1.000  H
  H52      1.0000 0.57800  0.29880  0.68030  Biso   1.000  H
  C39      1.0000 0.29710  0.62880  0.28000  Biso   1.000  C
  C40      1.0000 0.70290  0.37120  0.72000  Biso   1.000  C
  H53      1.0000 0.20920  0.66220  0.29200  Biso   1.000  H
  H54      1.0000 0.79080  0.33780  0.70800  Biso   1.000  H
  C41      1.0000 0.30100  0.55560  0.24550  Biso   1.000  C
  C42      1.0000 0.69900  0.44440  0.75450  Biso   1.000  C
  H55      1.0000 0.21570  0.54000  0.23430  Biso   1.000  H
  H56      1.0000 0.78430  0.46000  0.76570  Biso   1.000  H
  C43      1.0000 0.71320  0.21880  0.47530  Biso   1.000  C
  C44      1.0000 0.28680  0.78120  0.52470  Biso   1.000  C
  C45      1.0000 0.61490  0.26570  0.51930  Biso   1.000  C
  C46      1.0000 0.38510  0.73430  0.48070  Biso   1.000  C
  H57      1.0000 0.57390  0.23540  0.56180  Biso   1.000  H
  H58      1.0000 0.42610  0.76460  0.43820  Biso   1.000  H
  C47      1.0000 0.57920  0.35810  0.49880  Biso   1.000  C
  C48      1.0000 0.42080  0.64190  0.50120  Biso   1.000  C
  H59      1.0000 0.51330  0.39040  0.52770  Biso   1.000  H
  H60      1.0000 0.48670  0.60960  0.47230  Biso   1.000  H
  C49      1.0000 0.63940  0.40230  0.43690  Biso   1.000  C
  C50      1.0000 0.36060  0.59770  0.56310  Biso   1.000  C
  H61      1.0000 0.61370  0.46460  0.42360  Biso   1.000  H
  H62      1.0000 0.38630  0.53540  0.57640  Biso   1.000  H
  C51      1.0000 0.73690  0.35630  0.39440  Biso   1.000  C
  C52      1.0000 0.26310  0.64370  0.60560  Biso   1.000  C
  H63      1.0000 0.77850  0.38730  0.35240  Biso   1.000  H
  H64      1.0000 0.22150  0.61270  0.64760  Biso   1.000  H
  C53      1.0000 0.77470  0.26300  0.41320  Biso   1.000  C
  C54      1.0000 0.22530  0.73700  0.58680  Biso   1.000  C
  H65      1.0000 0.84070  0.23120  0.38400  Biso   1.000  H
  H66      1.0000 0.15930  0.76880  0.61600  Biso   1.000  H
  C55      1.0000 0.24120  0.26170  0.52620  Biso   1.000  C
  C56      1.0000 0.75880  0.73830  0.47380  Biso   1.000  C
  C57      1.0000 0.24190  0.29090  0.45280  Biso   1.000  C
  C58      1.0000 0.75810  0.70910  0.54720  Biso   1.000  C
  H67      1.0000 0.26510  0.24970  0.42150  Biso   1.000  H
  H68      1.0000 0.73490  0.75030  0.57850  Biso   1.000  H
  C59      1.0000 0.20730  0.38230  0.42640  Biso   1.000  C
  C60      1.0000 0.79270  0.61770  0.57360  Biso   1.000  C
  H69      1.0000 0.20720  0.40310  0.37700  Biso   1.000  H
  H70      1.0000 0.79280  0.59690  0.62300  Biso   1.000  H
  C61      1.0000 0.17360  0.44190  0.47260  Biso   1.000  C
  C62      1.0000 0.82640  0.55810  0.52740  Biso   1.000  C
  H71      1.0000 0.15150  0.50340  0.45410  Biso   1.000  H
  H72      1.0000 0.84850  0.49660  0.54590  Biso   1.000  H
  C63      1.0000 0.17130  0.41380  0.54540  Biso   1.000  C
  C64      1.0000 0.82870  0.58620  0.45460  Biso   1.000  C
  H73      1.0000 0.14730  0.45560  0.57610  Biso   1.000  H
  H74      1.0000 0.85270  0.54440  0.42390  Biso   1.000  H
  C65      1.0000 0.20500  0.32220  0.57330  Biso   1.000  C
  C66      1.0000 0.79500  0.67780  0.42670  Biso   1.000  C
  H75      1.0000 0.20320  0.30190  0.62280  Biso   1.000  H
  H76      1.0000 0.79680  0.69810  0.37720  Biso   1.000  H
  C67      1.0000 0.63510  0.74200  0.02800  Biso   1.000  C
  C68      1.0000 0.36490  0.25800  0.97200  Biso   1.000  C
  C69      1.0000 0.62300  0.80460  0.07250  Biso   1.000  C
  C70      1.0000 0.37700  0.19540  0.92750  Biso   1.000  C
  H77      1.0000 0.60930  0.78760  0.12220  Biso   1.000  H
  H78      1.0000 0.39070  0.21240  0.87780  Biso   1.000  H
  C71      1.0000 0.63180  0.89340  0.04150  Biso   1.000  C
  C72      1.0000 0.36820  0.10660  0.95850  Biso   1.000  C
  H79      1.0000 0.62720  0.93690  0.07040  Biso   1.000  H
  H80      1.0000 0.37280  0.06310  0.92960  Biso   1.000  H
  C73      1.0000 0.64740  0.91750  0.96800  Biso   1.000  C
  C74      1.0000 0.35260  0.08250  0.03200  Biso   1.000  C
  H81      1.0000 0.65050  0.97770  0.94720  Biso   1.000  H
  H82      1.0000 0.34950  0.02230  0.05280  Biso   1.000  H
  C75      1.0000 0.65830  0.85510  0.92570  Biso   1.000  C
  C76      1.0000 0.34170  0.14490  0.07430  Biso   1.000  C
  H83      1.0000 0.66950  0.87250  0.87590  Biso   1.000  H
  H84      1.0000 0.33050  0.12750  0.12410  Biso   1.000  H
  C77      1.0000 0.65330  0.76570  0.95500  Biso   1.000  C
  C78      1.0000 0.34670  0.23430  0.04500  Biso   1.000  C
  H85      1.0000 0.66200  0.72240  0.92560  Biso   1.000  H
  H86      1.0000 0.33800  0.27760  0.07440  Biso   1.000  H
  C79      1.0000 0.18260  0.73540  0.98350  Biso   1.000  C
  C80      1.0000 0.81740  0.26460  0.01650  Biso   1.000  C
  C81      1.0000 0.21610  0.78120  0.03320  Biso   1.000  C
  C82      1.0000 0.78390  0.21880  0.96680  Biso   1.000  C
  H87      1.0000 0.25430  0.74980  0.07580  Biso   1.000  H
  H88      1.0000 0.74570  0.25020  0.92420  Biso   1.000  H
  C83      1.0000 0.19300  0.87480  0.01970  Biso   1.000  C
  C84      1.0000 0.80700  0.12520  0.98030  Biso   1.000  C
  H89      1.0000 0.21070  0.90690  0.05420  Biso   1.000  H
  H90      1.0000 0.78930  0.09310  0.94580  Biso   1.000  H
  C85      1.0000 0.14340  0.92010  0.95440  Biso   1.000  C
  C86      1.0000 0.85660  0.07990  0.04560  Biso   1.000  C
  H91      1.0000 0.13400  0.98300  0.94370  Biso   1.000  H
  H92      1.0000 0.86600  0.01700  0.05630  Biso   1.000  H
  C87      1.0000 0.10900  0.87550  0.90700  Biso   1.000  C
  C88      1.0000 0.89100  0.12450  0.09300  Biso   1.000  C
  H93      1.0000 0.07050  0.90720  0.86450  Biso   1.000  H
  H94      1.0000 0.92950  0.09280  0.13550  Biso   1.000  H
  C89      1.0000 0.13030  0.78060  0.92020  Biso   1.000  C
  C90      1.0000 0.86970  0.21940  0.07980  Biso   1.000  C
  H95      1.0000 0.10880  0.74900  0.88620  Biso   1.000  H
  H96      1.0000 0.89120  0.25100  0.11380  Biso   1.000  H
  Cl1      1.0000 0.02546  0.33995  0.22671  Biso   1.000  Cl
  Cl2      1.0000 0.97454  0.66005  0.77329  Biso   1.000  Cl
  O13      1.0000 0.13390  0.31940  0.27220  Biso   1.000  O
  O14      1.0000 0.86610  0.68060  0.72780  Biso   1.000  O
  O15      1.0000 0.95840  0.42600  0.23680  Biso   1.000  O
  O16      1.0000 0.04160  0.57400  0.76320  Biso   1.000  O
  O17      1.0000 0.08000  0.34220  0.15700  Biso   1.000  O
  O18      1.0000 0.92000  0.65780  0.84300  Biso   1.000  O
  O19      1.0000 0.93230  0.27740  0.24660  Biso   1.000  O
  O20      1.0000 0.06770  0.72260  0.75340  Biso   1.000  O
  Cl3      1.0000 0.89590  0.81153  0.21745  Biso   1.000  Cl
  Cl4      1.0000 0.10410  0.18847  0.78255  Biso   1.000  Cl
  O21      1.0000 0.76480  0.79850  0.25010  Biso   1.000  O
  O22      1.0000 0.23520  0.20150  0.74990  Biso   1.000  O
  O23      1.0000 0.92380  0.77230  0.16270  Biso   1.000  O
  O24      1.0000 0.07620  0.22770  0.83730  Biso   1.000  O
  O25      1.0000 0.88010  0.90150  0.19940  Biso   1.000  O
  O26      1.0000 0.11990  0.09850  0.80060  Biso   1.000  O
  O27      1.0000 0.00340  0.79010  0.26610  Biso   1.000  O
  O28      1.0000 0.99660  0.20990  0.73390  Biso   1.000  O
