data_image0
_cell_length_a       8.0447
_cell_length_b       9.1568
_cell_length_c       12.854
_cell_angle_alpha    82.898
_cell_angle_beta     72.031
_cell_angle_gamma    67.553

_symmetry_space_group_name_H-M    "P 1"
_symmetry_int_tables_number       1

loop_
  _symmetry_equiv_pos_as_xyz
  'x, y, z'

loop_
  _atom_site_label
  _atom_site_occupancy
  _atom_site_fract_x
  _atom_site_fract_y
  _atom_site_fract_z
  _atom_site_thermal_displace_type
  _atom_site_B_iso_or_equiv
  _atom_site_type_symbol
  Cu1      1.0000 0.00000  0.00000  0.00000  Biso   1.000  Cu
  O1       1.0000 0.95700  0.80220  0.02940  Biso   1.000  O
  O2       1.0000 0.04300  0.19780  0.97060  Biso   1.000  O
  O3       1.0000 0.17490  0.92630  0.08520  Biso   1.000  O
  O4       1.0000 0.82510  0.07370  0.91480  Biso   1.000  O
  S1       1.0000 0.09046  0.65307  0.06986  Biso   1.000  S
  S2       1.0000 0.90954  0.34693  0.93014  Biso   1.000  S
  C1       1.0000 0.10040  0.49260  0.99430  Biso   1.000  C
  C2       1.0000 0.89960  0.50740  0.00570  Biso   1.000  C
  S3       1.0000 0.24850  0.02272  0.13421  Biso   1.000  S
  S4       1.0000 0.75150  0.97728  0.86579  Biso   1.000  S
  C3       1.0000 0.97250  0.63710  0.20890  Biso   1.000  C
  C4       1.0000 0.02750  0.36290  0.79110  Biso   1.000  C
  C5       1.0000 0.83060  0.76800  0.26220  Biso   1.000  C
  C6       1.0000 0.16940  0.23200  0.73780  Biso   1.000  C
  H1       1.0000 0.79390  0.86300  0.22470  Biso   1.000  H
  H2       1.0000 0.20610  0.13700  0.77530  Biso   1.000  H
  C7       1.0000 0.74460  0.75700  0.37010  Biso   1.000  C
  C8       1.0000 0.25540  0.24300  0.62990  Biso   1.000  C
  H3       1.0000 0.64510  0.84390  0.40610  Biso   1.000  H
  H4       1.0000 0.35490  0.15610  0.59390  Biso   1.000  H
  C9       1.0000 0.80100  0.62320  0.42440  Biso   1.000  C
  C10      1.0000 0.19900  0.37680  0.57560  Biso   1.000  C
  H5       1.0000 0.74840  0.61940  0.49960  Biso   1.000  H
  H6       1.0000 0.25160  0.38060  0.50040  Biso   1.000  H
  C11      1.0000 0.93600  0.49160  0.37130  Biso   1.000  C
  C12      1.0000 0.06400  0.50840  0.62870  Biso   1.000  C
  H7       1.0000 0.96380  0.39540  0.40840  Biso   1.000  H
  H8       1.0000 0.03620  0.60460  0.59160  Biso   1.000  H
  C13      1.0000 0.03220  0.49910  0.26420  Biso   1.000  C
  C14      1.0000 0.96780  0.50090  0.73580  Biso   1.000  C
  H9       1.0000 0.13500  0.41280  0.22990  Biso   1.000  H
  H10      1.0000 0.86500  0.58720  0.77010  Biso   1.000  H
  C15      1.0000 0.49200  0.96310  0.05640  Biso   1.000  C
  C16      1.0000 0.50800  0.03690  0.94360  Biso   1.000  C
  H11      1.0000 0.55980  0.99660  0.09330  Biso   1.000  H
  H12      1.0000 0.44020  0.00340  0.90670  Biso   1.000  H
  H13      1.0000 0.54690  0.84890  0.05040  Biso   1.000  H
  H14      1.0000 0.45310  0.15110  0.94960  Biso   1.000  H
  C17      1.0000 0.27240  0.92520  0.25930  Biso   1.000  C
  C18      1.0000 0.72760  0.07480  0.74070  Biso   1.000  C
  C19      1.0000 0.22560  0.01560  0.34850  Biso   1.000  C
  C20      1.0000 0.77440  0.98440  0.65150  Biso   1.000  C
  H15      1.0000 0.18760  0.12500  0.34270  Biso   1.000  H
  H16      1.0000 0.81240  0.87500  0.65730  Biso   1.000  H
  C21      1.0000 0.23630  0.93900  0.44880  Biso   1.000  C
  C22      1.0000 0.76370  0.06100  0.55120  Biso   1.000  C
  H17      1.0000 0.20840  0.99670  0.51060  Biso   1.000  H
  H18      1.0000 0.79160  0.00330  0.48940  Biso   1.000  H
  C23      1.0000 0.28820  0.77830  0.45470  Biso   1.000  C
  C24      1.0000 0.71180  0.22170  0.54530  Biso   1.000  C
  H19      1.0000 0.29080  0.72760  0.52180  Biso   1.000  H
  H20      1.0000 0.70920  0.27240  0.47820  Biso   1.000  H
  C25      1.0000 0.33470  0.69350  0.36690  Biso   1.000  C
  C26      1.0000 0.66530  0.30650  0.63310  Biso   1.000  C
  H21      1.0000 0.37330  0.58410  0.37300  Biso   1.000  H
  H22      1.0000 0.62670  0.41590  0.62700  Biso   1.000  H
  C27      1.0000 0.32710  0.76400  0.26770  Biso   1.000  C
  C28      1.0000 0.67290  0.23600  0.73230  Biso   1.000  C
  H23      1.0000 0.35850  0.70350  0.20660  Biso   1.000  H
  H24      1.0000 0.64150  0.29650  0.79340  Biso   1.000  H
  Cl1      1.0000 0.43040  0.73470  0.79670  Biso   1.000  Cl
  Cl2      1.0000 0.56960  0.26530  0.20330  Biso   1.000  Cl
  O5       1.0000 0.55310  0.71600  0.86290  Biso   1.000  O
  O6       1.0000 0.44690  0.28400  0.13710  Biso   1.000  O
  O7       1.0000 0.50270  0.75260  0.68110  Biso   1.000  O
  O8       1.0000 0.49730  0.24740  0.31890  Biso   1.000  O
  O9       1.0000 0.39080  0.59650  0.81590  Biso   1.000  O
  O10      1.0000 0.60920  0.40350  0.18410  Biso   1.000  O
  O11      1.0000 0.27230  0.87220  0.83790  Biso   1.000  O
  O12      1.0000 0.72770  0.12780  0.16210  Biso   1.000  O
  C29      1.0000 0.99000  0.50690  0.05550  Biso   1.000  C
  C30      1.0000 0.01000  0.49310  0.94450  Biso   1.000  C
  Cl3      1.0000 0.35910  0.74340  0.77200  Biso   1.000  Cl
  Cl4      1.0000 0.64090  0.25660  0.22800  Biso   1.000  Cl
  O13      1.0000 0.19000  0.76100  0.74050  Biso   1.000  O
  O14      1.0000 0.81000  0.23900  0.25950  Biso   1.000  O
