data_image0
_cell_length_a       11.191
_cell_length_b       11.75
_cell_length_c       11.802
_cell_angle_alpha    86.92
_cell_angle_beta     82.65
_cell_angle_gamma    62.9

_symmetry_space_group_name_H-M    "P 1"
_symmetry_int_tables_number       1

loop_
  _symmetry_equiv_pos_as_xyz
  'x, y, z'

loop_
  _atom_site_label
  _atom_site_occupancy
  _atom_site_fract_x
  _atom_site_fract_y
  _atom_site_fract_z
  _atom_site_thermal_displace_type
  _atom_site_B_iso_or_equiv
  _atom_site_type_symbol
  Cl1      1.0000 0.65080  0.64780  0.78010  Biso   1.000  Cl
  Cl2      1.0000 0.34920  0.35220  0.21990  Biso   1.000  Cl
  O1       1.0000 0.53330  0.75230  0.76890  Biso   1.000  O
  O2       1.0000 0.46670  0.24770  0.23110  Biso   1.000  O
  O3       1.0000 0.63280  0.54730  0.82380  Biso   1.000  O
  O4       1.0000 0.36720  0.45270  0.17620  Biso   1.000  O
  O5       1.0000 0.74760  0.62680  0.69030  Biso   1.000  O
  O6       1.0000 0.25240  0.37320  0.30970  Biso   1.000  O
  O7       1.0000 0.70240  0.68520  0.86020  Biso   1.000  O
  O8       1.0000 0.29760  0.31480  0.13980  Biso   1.000  O
  Cu1      1.0000 0.00000  0.00000  0.50000  Biso   1.000  Cu
  S1       1.0000 0.78340  0.93450  0.62490  Biso   1.000  S
  S2       1.0000 0.21660  0.06550  0.37510  Biso   1.000  S
  S3       1.0000 0.23280  0.70510  0.58270  Biso   1.000  S
  S4       1.0000 0.76720  0.29490  0.41730  Biso   1.000  S
  S5       1.0000 0.88460  0.01560  0.27448  Biso   1.000  S
  S6       1.0000 0.11540  0.98440  0.72552  Biso   1.000  S
  O9       1.0000 0.81940  0.00800  0.52730  Biso   1.000  O
  O10      1.0000 0.18060  0.99200  0.47270  Biso   1.000  O
  O11      1.0000 0.10110  0.77770  0.53450  Biso   1.000  O
  O12      1.0000 0.89890  0.22230  0.46550  Biso   1.000  O
  O13      1.0000 0.01060  0.96890  0.33580  Biso   1.000  O
  O14      1.0000 0.98940  0.03110  0.66420  Biso   1.000  O
  C1       1.0000 0.65130  0.90980  0.57680  Biso   1.000  C
  C2       1.0000 0.34870  0.09020  0.42320  Biso   1.000  C
  H1       1.0000 0.69210  0.83910  0.52290  Biso   1.000  H
  H2       1.0000 0.30790  0.16090  0.47710  Biso   1.000  H
  H3       1.0000 0.60620  0.88480  0.64180  Biso   1.000  H
  H4       1.0000 0.39380  0.11520  0.35820  Biso   1.000  H
  C3       1.0000 0.55140  0.01760  0.52360  Biso   1.000  C
  C4       1.0000 0.44860  0.98240  0.47640  Biso   1.000  C
  H5       1.0000 0.59560  0.04730  0.46140  Biso   1.000  H
  H6       1.0000 0.40440  0.95270  0.53860  Biso   1.000  H
  H7       1.0000 0.50360  0.08660  0.57880  Biso   1.000  H
  H8       1.0000 0.49640  0.91340  0.42120  Biso   1.000  H
  C5       1.0000 0.30690  0.55140  0.51090  Biso   1.000  C
  C6       1.0000 0.69310  0.44860  0.48910  Biso   1.000  C
  H9       1.0000 0.25610  0.50530  0.53910  Biso   1.000  H
  H10      1.0000 0.74390  0.49470  0.46090  Biso   1.000  H
  H11      1.0000 0.30040  0.56490  0.42970  Biso   1.000  H
  H12      1.0000 0.69960  0.43510  0.57030  Biso   1.000  H
  C7       1.0000 0.45420  0.47110  0.52950  Biso   1.000  C
  C8       1.0000 0.54580  0.52890  0.47050  Biso   1.000  C
  H13      1.0000 0.48540  0.38560  0.49980  Biso   1.000  H
  H14      1.0000 0.51460  0.61440  0.50020  Biso   1.000  H
  H15      1.0000 0.46170  0.46430  0.61090  Biso   1.000  H
  H16      1.0000 0.53830  0.53570  0.38910  Biso   1.000  H
  C9       1.0000 0.95350  0.02590  0.12730  Biso   1.000  C
  C10      1.0000 0.04650  0.97410  0.87270  Biso   1.000  C
  C11      1.0000 0.04790  0.92470  0.07870  Biso   1.000  C
  C12      1.0000 0.95210  0.07530  0.92130  Biso   1.000  C
  C13      1.0000 0.88800  0.04100  0.03850  Biso   1.000  C
  C14      1.0000 0.11200  0.95900  0.96150  Biso   1.000  C
  C15      1.0000 0.69400  0.04880  0.73820  Biso   1.000  C
  C16      1.0000 0.30600  0.95120  0.26180  Biso   1.000  C
  C17      1.0000 0.66090  0.00600  0.84320  Biso   1.000  C
  C18      1.0000 0.33910  0.99400  0.15680  Biso   1.000  C
  H17      1.0000 0.67880  0.92090  0.85370  Biso   1.000  H
  H18      1.0000 0.32120  0.07910  0.14630  Biso   1.000  H
  C19      1.0000 0.60020  0.09360  0.93280  Biso   1.000  C
  C20      1.0000 0.39980  0.90640  0.06720  Biso   1.000  C
  H19      1.0000 0.57560  0.06750  0.00390  Biso   1.000  H
  H20      1.0000 0.42440  0.93250  0.99610  Biso   1.000  H
  C21      1.0000 0.57650  0.21760  0.91670  Biso   1.000  C
  C22      1.0000 0.42350  0.78240  0.08330  Biso   1.000  C
  H21      1.0000 0.53730  0.27520  0.97740  Biso   1.000  H
  H22      1.0000 0.46270  0.72480  0.02260  Biso   1.000  H
  C23      1.0000 0.60980  0.25790  0.81260  Biso   1.000  C
  C24      1.0000 0.39020  0.74210  0.18740  Biso   1.000  C
  H23      1.0000 0.59220  0.34290  0.80250  Biso   1.000  H
  H24      1.0000 0.40780  0.65710  0.19750  Biso   1.000  H
  C25      1.0000 0.66910  0.17380  0.72210  Biso   1.000  C
  C26      1.0000 0.33090  0.82620  0.27790  Biso   1.000  C
  H25      1.0000 0.69210  0.20120  0.65110  Biso   1.000  H
  H26      1.0000 0.30790  0.79880  0.34890  Biso   1.000  H
  C27      1.0000 0.19310  0.66020  0.72420  Biso   1.000  C
  C28      1.0000 0.80690  0.33980  0.27580  Biso   1.000  C
  C29      1.0000 0.28750  0.62500  0.80010  Biso   1.000  C
  C30      1.0000 0.71250  0.37500  0.19990  Biso   1.000  C
  H27      1.0000 0.37120  0.62270  0.77720  Biso   1.000  H
  H28      1.0000 0.62880  0.37730  0.22280  Biso   1.000  H
  C31      1.0000 0.25660  0.59290  0.91070  Biso   1.000  C
  C32      1.0000 0.74340  0.40710  0.08930  Biso   1.000  C
  H29      1.0000 0.32160  0.56450  0.96130  Biso   1.000  H
  H30      1.0000 0.67840  0.43550  0.03870  Biso   1.000  H
  C33      1.0000 0.12910  0.60300  0.94650  Biso   1.000  C
  C34      1.0000 0.87090  0.39700  0.05350  Biso   1.000  C
  H31      1.0000 0.10720  0.58550  0.02190  Biso   1.000  H
  H32      1.0000 0.89280  0.41450  0.97810  Biso   1.000  H
  C35      1.0000 0.03560  0.63900  0.87030  Biso   1.000  C
  C36      1.0000 0.96440  0.36100  0.12970  Biso   1.000  C
  H33      1.0000 0.95070  0.64410  0.89370  Biso   1.000  H
  H34      1.0000 0.04930  0.35590  0.10630  Biso   1.000  H
  C37      1.0000 0.06670  0.66750  0.75920  Biso   1.000  C
  C38      1.0000 0.93330  0.33250  0.24080  Biso   1.000  C
  H35      1.0000 0.00310  0.69170  0.70770  Biso   1.000  H
  H36      1.0000 0.99690  0.30830  0.29230  Biso   1.000  H
  C39      1.0000 0.85470  0.88020  0.26190  Biso   1.000  C
  C40      1.0000 0.14530  0.11980  0.73810  Biso   1.000  C
  C41      1.0000 0.94700  0.76230  0.29040  Biso   1.000  C
  C42      1.0000 0.05300  0.23770  0.70960  Biso   1.000  C
  H37      1.0000 0.02670  0.75020  0.31680  Biso   1.000  H
  H38      1.0000 0.97330  0.24980  0.68320  Biso   1.000  H
  C43      1.0000 0.91900  0.65860  0.27890  Biso   1.000  C
  C44      1.0000 0.08100  0.34140  0.72110  Biso   1.000  C
  H39      1.0000 0.98140  0.57620  0.29610  Biso   1.000  H
  H40      1.0000 0.01860  0.42380  0.70390  Biso   1.000  H
  C45      1.0000 0.80040  0.67960  0.24270  Biso   1.000  C
  C46      1.0000 0.19960  0.32040  0.75730  Biso   1.000  C
  H41      1.0000 0.78260  0.61080  0.23410  Biso   1.000  H
  H42      1.0000 0.21740  0.38920  0.76590  Biso   1.000  H
  C47      1.0000 0.70830  0.79820  0.21900  Biso   1.000  C
  C48      1.0000 0.29170  0.20180  0.78100  Biso   1.000  C
  H43      1.0000 0.62660  0.81050  0.19650  Biso   1.000  H
  H44      1.0000 0.37340  0.18950  0.80350  Biso   1.000  H
  C49      1.0000 0.73330  0.90320  0.22770  Biso   1.000  C
  C50      1.0000 0.26670  0.09680  0.77230  Biso   1.000  C
  H45      1.0000 0.67010  0.98540  0.21090  Biso   1.000  H
  H46      1.0000 0.32990  0.01460  0.78910  Biso   1.000  H
