data_image0
_cell_length_a       15.46
_cell_length_b       8.0382
_cell_length_c       13.998
_cell_angle_alpha    90
_cell_angle_beta     97.26
_cell_angle_gamma    90

_symmetry_space_group_name_H-M    "P 1"
_symmetry_int_tables_number       1

loop_
  _symmetry_equiv_pos_as_xyz
  'x, y, z'

loop_
  _atom_site_label
  _atom_site_occupancy
  _atom_site_fract_x
  _atom_site_fract_y
  _atom_site_fract_z
  _atom_site_thermal_displace_type
  _atom_site_B_iso_or_equiv
  _atom_site_type_symbol
  C1       1.0000 0.24800  0.84940  0.35670  Biso   1.000  C
  C2       1.0000 0.75200  0.34940  0.14330  Biso   1.000  C
  C3       1.0000 0.75200  0.15060  0.64330  Biso   1.000  C
  C4       1.0000 0.24800  0.65060  0.85670  Biso   1.000  C
  H1       1.0000 0.24410  0.73970  0.33550  Biso   1.000  H
  H2       1.0000 0.75590  0.23970  0.16450  Biso   1.000  H
  H3       1.0000 0.75590  0.26030  0.66450  Biso   1.000  H
  H4       1.0000 0.24410  0.76030  0.83550  Biso   1.000  H
  C5       1.0000 0.29666  0.97220  0.32470  Biso   1.000  C
  C6       1.0000 0.70334  0.47220  0.17530  Biso   1.000  C
  C7       1.0000 0.70334  0.02780  0.67530  Biso   1.000  C
  C8       1.0000 0.29666  0.52780  0.82470  Biso   1.000  C
  H5       1.0000 0.33300  0.96050  0.27700  Biso   1.000  H
  H6       1.0000 0.66700  0.46050  0.22300  Biso   1.000  H
  H7       1.0000 0.66700  0.03950  0.72300  Biso   1.000  H
  H8       1.0000 0.33300  0.53950  0.77700  Biso   1.000  H
  C9       1.0000 0.22920  0.08090  0.43510  Biso   1.000  C
  C10      1.0000 0.77080  0.58090  0.06490  Biso   1.000  C
  C11      1.0000 0.77080  0.91910  0.56490  Biso   1.000  C
  C12      1.0000 0.22920  0.41910  0.93510  Biso   1.000  C
  H9       1.0000 0.20940  0.15590  0.47810  Biso   1.000  H
  H10      1.0000 0.79060  0.65590  0.02190  Biso   1.000  H
  H11      1.0000 0.79060  0.84410  0.52190  Biso   1.000  H
  H12      1.0000 0.20940  0.34410  0.97810  Biso   1.000  H
  C13      1.0000 0.14500  0.83840  0.48430  Biso   1.000  C
  C14      1.0000 0.85500  0.33840  0.01570  Biso   1.000  C
  C15      1.0000 0.85500  0.16160  0.51570  Biso   1.000  C
  C16      1.0000 0.14500  0.66160  0.98430  Biso   1.000  C
  H13      1.0000 0.17280  0.74040  0.51480  Biso   1.000  H
  H14      1.0000 0.82720  0.24040  0.98520  Biso   1.000  H
  H15      1.0000 0.82720  0.25960  0.48520  Biso   1.000  H
  H16      1.0000 0.17280  0.75960  0.01480  Biso   1.000  H
  H17      1.0000 0.13190  0.91350  0.53480  Biso   1.000  H
  H18      1.0000 0.86810  0.41350  0.96520  Biso   1.000  H
  H19      1.0000 0.86810  0.08650  0.46520  Biso   1.000  H
  H20      1.0000 0.13190  0.58650  0.03480  Biso   1.000  H
  C17      1.0000 0.03635  0.63310  0.39950  Biso   1.000  C
  C18      1.0000 0.96365  0.13310  0.10050  Biso   1.000  C
  C19      1.0000 0.96365  0.36690  0.60050  Biso   1.000  C
  C20      1.0000 0.03635  0.86690  0.89950  Biso   1.000  C
  C21      1.0000 0.95020  0.65760  0.35810  Biso   1.000  C
  C22      1.0000 0.04980  0.15760  0.14190  Biso   1.000  C
  C23      1.0000 0.04980  0.34240  0.64190  Biso   1.000  C
  C24      1.0000 0.95020  0.84240  0.85810  Biso   1.000  C
  C25      1.0000 0.89860  0.52340  0.32330  Biso   1.000  C
  C26      1.0000 0.10140  0.02340  0.17670  Biso   1.000  C
  C27      1.0000 0.10140  0.47660  0.67670  Biso   1.000  C
  C28      1.0000 0.89860  0.97660  0.82330  Biso   1.000  C
  H21      1.0000 0.84080  0.53820  0.29680  Biso   1.000  H
  H22      1.0000 0.15920  0.03820  0.20320  Biso   1.000  H
  H23      1.0000 0.15920  0.46180  0.70320  Biso   1.000  H
  H24      1.0000 0.84080  0.96180  0.79680  Biso   1.000  H
  C29      1.0000 0.93580  0.36920  0.32970  Biso   1.000  C
  C30      1.0000 0.06420  0.86920  0.17030  Biso   1.000  C
  C31      1.0000 0.06420  0.63080  0.67030  Biso   1.000  C
  C32      1.0000 0.93580  0.13080  0.82970  Biso   1.000  C
  H25      1.0000 0.90300  0.27750  0.30650  Biso   1.000  H
  H26      1.0000 0.09700  0.77750  0.19350  Biso   1.000  H
  H27      1.0000 0.09700  0.72250  0.69350  Biso   1.000  H
  H28      1.0000 0.90300  0.22250  0.80650  Biso   1.000  H
  C33      1.0000 0.02280  0.34650  0.37050  Biso   1.000  C
  C34      1.0000 0.97720  0.84650  0.12950  Biso   1.000  C
  C35      1.0000 0.97720  0.65350  0.62950  Biso   1.000  C
  C36      1.0000 0.02280  0.15350  0.87050  Biso   1.000  C
  H29      1.0000 0.04610  0.23960  0.37340  Biso   1.000  H
  H30      1.0000 0.95390  0.73960  0.12660  Biso   1.000  H
  H31      1.0000 0.95390  0.76040  0.62660  Biso   1.000  H
  H32      1.0000 0.04610  0.26040  0.87340  Biso   1.000  H
  C37      1.0000 0.07460  0.47600  0.40620  Biso   1.000  C
  C38      1.0000 0.92540  0.97600  0.09380  Biso   1.000  C
  C39      1.0000 0.92540  0.52400  0.59380  Biso   1.000  C
  C40      1.0000 0.07460  0.02400  0.90620  Biso   1.000  C
  H33      1.0000 0.13210  0.45990  0.43340  Biso   1.000  H
  H34      1.0000 0.86790  0.95990  0.06660  Biso   1.000  H
  H35      1.0000 0.86790  0.54010  0.56660  Biso   1.000  H
  H36      1.0000 0.13210  0.04010  0.93340  Biso   1.000  H
  C41      1.0000 0.32539  0.53660  0.52090  Biso   1.000  C
  C42      1.0000 0.67461  0.03660  0.97910  Biso   1.000  C
  C43      1.0000 0.67461  0.46340  0.47910  Biso   1.000  C
  C44      1.0000 0.32539  0.96340  0.02090  Biso   1.000  C
  C45      1.0000 0.39930  0.61270  0.47430  Biso   1.000  C
  C46      1.0000 0.60070  0.11270  0.02570  Biso   1.000  C
  C47      1.0000 0.60070  0.38730  0.52570  Biso   1.000  C
  C48      1.0000 0.39930  0.88730  0.97430  Biso   1.000  C
  C49      1.0000 0.47216  0.61250  0.34050  Biso   1.000  C
  C50      1.0000 0.52784  0.11250  0.15950  Biso   1.000  C
  C51      1.0000 0.52784  0.38750  0.65950  Biso   1.000  C
  C52      1.0000 0.47216  0.88750  0.84050  Biso   1.000  C
  H37      1.0000 0.47880  0.57020  0.28000  Biso   1.000  H
  H38      1.0000 0.52120  0.07020  0.22000  Biso   1.000  H
  H39      1.0000 0.52120  0.42980  0.72000  Biso   1.000  H
  H40      1.0000 0.47880  0.92980  0.78000  Biso   1.000  H
  C53      1.0000 0.52625  0.74100  0.37780  Biso   1.000  C
  C54      1.0000 0.47375  0.24100  0.12220  Biso   1.000  C
  C55      1.0000 0.47375  0.25900  0.62220  Biso   1.000  C
  C56      1.0000 0.52625  0.75900  0.87780  Biso   1.000  C
  C57      1.0000 0.59455  0.81480  0.32170  Biso   1.000  C
  C58      1.0000 0.40545  0.31480  0.17830  Biso   1.000  C
  C59      1.0000 0.40545  0.18520  0.67830  Biso   1.000  C
  C60      1.0000 0.59455  0.68520  0.82170  Biso   1.000  C
  C61      1.0000 0.45062  0.74000  0.51690  Biso   1.000  C
  C62      1.0000 0.54938  0.24000  0.98310  Biso   1.000  C
  C63      1.0000 0.54938  0.26000  0.48310  Biso   1.000  C
  C64      1.0000 0.45062  0.76000  0.01690  Biso   1.000  C
  H41      1.0000 0.44120  0.78290  0.57640  Biso   1.000  H
  H42      1.0000 0.55880  0.28290  0.92360  Biso   1.000  H
  H43      1.0000 0.55880  0.21710  0.42360  Biso   1.000  H
  H44      1.0000 0.44120  0.71710  0.07640  Biso   1.000  H
  C65      1.0000 0.51650  0.80200  0.46840  Biso   1.000  C
  C66      1.0000 0.48350  0.30200  0.03160  Biso   1.000  C
  C67      1.0000 0.48350  0.19800  0.53160  Biso   1.000  C
  C68      1.0000 0.51650  0.69800  0.96840  Biso   1.000  C
  H45      1.0000 0.55380  0.88400  0.49640  Biso   1.000  H
  H46      1.0000 0.44620  0.38400  0.00360  Biso   1.000  H
  H47      1.0000 0.44620  0.11600  0.50360  Biso   1.000  H
  H48      1.0000 0.55380  0.61600  0.99640  Biso   1.000  H
  Cu1      1.0000 0.33558  0.34224  0.35934  Biso   1.000  Cu
  Cu2      1.0000 0.66442  0.84224  0.14066  Biso   1.000  Cu
  Cu3      1.0000 0.66442  0.65776  0.64066  Biso   1.000  Cu
  Cu4      1.0000 0.33558  0.15776  0.85934  Biso   1.000  Cu
  N1       1.0000 0.28424  0.11780  0.37381  Biso   1.000  N
  N2       1.0000 0.71576  0.61780  0.12619  Biso   1.000  N
  N3       1.0000 0.71576  0.88220  0.62619  Biso   1.000  N
  N4       1.0000 0.28424  0.38220  0.87381  Biso   1.000  N
  N5       1.0000 0.20536  0.91990  0.42708  Biso   1.000  N
  N6       1.0000 0.79464  0.41990  0.07292  Biso   1.000  N
  N7       1.0000 0.79464  0.08010  0.57292  Biso   1.000  N
  N8       1.0000 0.20536  0.58010  0.92708  Biso   1.000  N
  N9       1.0000 0.06438  0.78990  0.42678  Biso   1.000  N
  N10      1.0000 0.93562  0.28990  0.07322  Biso   1.000  N
  N11      1.0000 0.93562  0.21010  0.57322  Biso   1.000  N
  N12      1.0000 0.06438  0.71010  0.92678  Biso   1.000  N
  N13      1.0000 0.00024  0.90300  0.40370  Biso   1.000  N
  N14      1.0000 0.99976  0.40300  0.09630  Biso   1.000  N
  N15      1.0000 0.99976  0.09700  0.59630  Biso   1.000  N
  N16      1.0000 0.00024  0.59700  0.90370  Biso   1.000  N
  N17      1.0000 0.93159  0.82560  0.36210  Biso   1.000  N
  N18      1.0000 0.06841  0.32560  0.13790  Biso   1.000  N
  N19      1.0000 0.06841  0.17440  0.63790  Biso   1.000  N
  N20      1.0000 0.93159  0.67440  0.86210  Biso   1.000  N
  N21      1.0000 0.41089  0.54780  0.38863  Biso   1.000  N
  N22      1.0000 0.58911  0.04780  0.11137  Biso   1.000  N
  N23      1.0000 0.58911  0.45220  0.61137  Biso   1.000  N
  N24      1.0000 0.41089  0.95220  0.88863  Biso   1.000  N
  O1       1.0000 0.28668  0.41470  0.47398  Biso   1.000  O
  O2       1.0000 0.71332  0.91470  0.02602  Biso   1.000  O
  O3       1.0000 0.71332  0.58530  0.52602  Biso   1.000  O
  O4       1.0000 0.28668  0.08530  0.97398  Biso   1.000  O
  O5       1.0000 0.30570  0.59520  0.59594  Biso   1.000  O
  O6       1.0000 0.69430  0.09520  0.90406  Biso   1.000  O
  O7       1.0000 0.69430  0.40480  0.40406  Biso   1.000  O
  O8       1.0000 0.30570  0.90480  0.09594  Biso   1.000  O
  O9       1.0000 0.59448  0.75720  0.23652  Biso   1.000  O
  O10      1.0000 0.40552  0.25720  0.26348  Biso   1.000  O
  O11      1.0000 0.40552  0.24280  0.76348  Biso   1.000  O
  O12      1.0000 0.59448  0.74280  0.73652  Biso   1.000  O
  O13      1.0000 0.64111  0.92740  0.35945  Biso   1.000  O
  O14      1.0000 0.35889  0.42740  0.14055  Biso   1.000  O
  O15      1.0000 0.35889  0.07260  0.64055  Biso   1.000  O
  O16      1.0000 0.64111  0.57260  0.85945  Biso   1.000  O
  O17      1.0000 0.22948  0.47660  0.25032  Biso   1.000  O
  O18      1.0000 0.77052  0.97660  0.24968  Biso   1.000  O
  O19      1.0000 0.77052  0.52340  0.74968  Biso   1.000  O
  O20      1.0000 0.22948  0.02340  0.75032  Biso   1.000  O
  H49      1.0000 0.18690  0.41580  0.23850  Biso   1.000  H
  H50      1.0000 0.81310  0.91580  0.26150  Biso   1.000  H
  H51      1.0000 0.81310  0.58420  0.76150  Biso   1.000  H
  H52      1.0000 0.18690  0.08420  0.73850  Biso   1.000  H
  H53      1.0000 0.26300  0.47900  0.20700  Biso   1.000  H
  H54      1.0000 0.73700  0.97900  0.29300  Biso   1.000  H
  H55      1.0000 0.73700  0.52100  0.79300  Biso   1.000  H
  H56      1.0000 0.26300  0.02100  0.70700  Biso   1.000  H
