data_image0
_cell_length_a       7.552
_cell_length_b       13.679
_cell_length_c       15.843
_cell_angle_alpha    90
_cell_angle_beta     97.63
_cell_angle_gamma    90

_symmetry_space_group_name_H-M    "P 1"
_symmetry_int_tables_number       1

loop_
  _symmetry_equiv_pos_as_xyz
  'x, y, z'

loop_
  _atom_site_label
  _atom_site_occupancy
  _atom_site_fract_x
  _atom_site_fract_y
  _atom_site_fract_z
  _atom_site_thermal_displace_type
  _atom_site_B_iso_or_equiv
  _atom_site_type_symbol
  H1       1.0000 0.09400  0.85600  0.57500  Biso   1.000  H
  H2       1.0000 0.40600  0.35600  0.92500  Biso   1.000  H
  H3       1.0000 0.90600  0.14400  0.42500  Biso   1.000  H
  H4       1.0000 0.59400  0.64400  0.07500  Biso   1.000  H
  H5       1.0000 0.50900  0.99500  0.18700  Biso   1.000  H
  H6       1.0000 0.99100  0.49500  0.31300  Biso   1.000  H
  H7       1.0000 0.49100  0.00500  0.81300  Biso   1.000  H
  H8       1.0000 0.00900  0.50500  0.68700  Biso   1.000  H
  H9       1.0000 0.21000  0.81700  0.33300  Biso   1.000  H
  H10      1.0000 0.29000  0.31700  0.16700  Biso   1.000  H
  H11      1.0000 0.79000  0.18300  0.66700  Biso   1.000  H
  H12      1.0000 0.71000  0.68300  0.83300  Biso   1.000  H
  H13      1.0000 0.30100  0.80000  0.48200  Biso   1.000  H
  H14      1.0000 0.19900  0.30000  0.01800  Biso   1.000  H
  H15      1.0000 0.69900  0.20000  0.51800  Biso   1.000  H
  H16      1.0000 0.80100  0.70000  0.98200  Biso   1.000  H
  H17      1.0000 0.37000  0.05000  0.41300  Biso   1.000  H
  H18      1.0000 0.13000  0.55000  0.08700  Biso   1.000  H
  H19      1.0000 0.63000  0.95000  0.58700  Biso   1.000  H
  H20      1.0000 0.87000  0.45000  0.91300  Biso   1.000  H
  H21      1.0000 0.30200  0.79000  0.03900  Biso   1.000  H
  H22      1.0000 0.19800  0.29000  0.46100  Biso   1.000  H
  H23      1.0000 0.69800  0.21000  0.96100  Biso   1.000  H
  H24      1.0000 0.80200  0.71000  0.53900  Biso   1.000  H
  H25      1.0000 0.29600  0.06500  0.26500  Biso   1.000  H
  H26      1.0000 0.20400  0.56500  0.23500  Biso   1.000  H
  H27      1.0000 0.70400  0.93500  0.73500  Biso   1.000  H
  H28      1.0000 0.79600  0.43500  0.76500  Biso   1.000  H
  H29      1.0000 0.59600  0.90600  0.96500  Biso   1.000  H
  H30      1.0000 0.90400  0.40600  0.53500  Biso   1.000  H
  H31      1.0000 0.40400  0.09400  0.03500  Biso   1.000  H
  H32      1.0000 0.09600  0.59400  0.46500  Biso   1.000  H
  H33      1.0000 0.74700  0.92300  0.92000  Biso   1.000  H
  H34      1.0000 0.75300  0.42300  0.58000  Biso   1.000  H
  H35      1.0000 0.25300  0.07700  0.08000  Biso   1.000  H
  H36      1.0000 0.24700  0.57700  0.42000  Biso   1.000  H
  H37      1.0000 0.28700  0.74800  0.12100  Biso   1.000  H
  H38      1.0000 0.21300  0.24800  0.37900  Biso   1.000  H
  H39      1.0000 0.71300  0.25200  0.87900  Biso   1.000  H
  H40      1.0000 0.78700  0.75200  0.62100  Biso   1.000  H
  H41      1.0000 0.35800  0.83300  0.13300  Biso   1.000  H
  H42      1.0000 0.14200  0.33300  0.36700  Biso   1.000  H
  H43      1.0000 0.64200  0.16700  0.86700  Biso   1.000  H
  H44      1.0000 0.85800  0.66700  0.63300  Biso   1.000  H
  H45      1.0000 0.66700  0.99800  0.96400  Biso   1.000  H
  H46      1.0000 0.83300  0.49800  0.53600  Biso   1.000  H
  H47      1.0000 0.33300  0.00200  0.03600  Biso   1.000  H
  H48      1.0000 0.16700  0.50200  0.46400  Biso   1.000  H
  Cu1      1.0000 0.86383  0.89629  0.22328  Biso   1.000  Cu
  Cu2      1.0000 0.63617  0.39629  0.27672  Biso   1.000  Cu
  Cu3      1.0000 0.13617  0.10371  0.77672  Biso   1.000  Cu
  Cu4      1.0000 0.36383  0.60371  0.72328  Biso   1.000  Cu
  Cl1      1.0000 0.62516  0.67822  0.29571  Biso   1.000  Cl
  Cl2      1.0000 0.87484  0.17822  0.20429  Biso   1.000  Cl
  Cl3      1.0000 0.37484  0.32178  0.70429  Biso   1.000  Cl
  Cl4      1.0000 0.12516  0.82178  0.79571  Biso   1.000  Cl
  O1       1.0000 0.74020  0.91483  0.11206  Biso   1.000  O
  O2       1.0000 0.75980  0.41483  0.38794  Biso   1.000  O
  O3       1.0000 0.25980  0.08517  0.88794  Biso   1.000  O
  O4       1.0000 0.24020  0.58517  0.61206  Biso   1.000  O
  N1       1.0000 0.90540  0.89667  0.48592  Biso   1.000  N
  N2       1.0000 0.59460  0.39667  0.01408  Biso   1.000  N
  N3       1.0000 0.09460  0.10333  0.51408  Biso   1.000  N
  N4       1.0000 0.40540  0.60333  0.98592  Biso   1.000  N
  N5       1.0000 0.97130  0.87797  0.34450  Biso   1.000  N
  N6       1.0000 0.52870  0.37797  0.15550  Biso   1.000  N
  N7       1.0000 0.02870  0.12203  0.65550  Biso   1.000  N
  N8       1.0000 0.47130  0.62203  0.84450  Biso   1.000  N
  O5       1.0000 0.07560  0.84704  0.18726  Biso   1.000  O
  O6       1.0000 0.42440  0.34704  0.31274  Biso   1.000  O
  O7       1.0000 0.92440  0.15296  0.81274  Biso   1.000  O
  O8       1.0000 0.57560  0.65296  0.68726  Biso   1.000  O
  N9       1.0000 0.66970  0.95426  0.28036  Biso   1.000  N
  N10      1.0000 0.83030  0.45426  0.21964  Biso   1.000  N
  N11      1.0000 0.33030  0.04574  0.71964  Biso   1.000  N
  N12      1.0000 0.16970  0.54574  0.78036  Biso   1.000  N
  C1       1.0000 0.86780  0.90558  0.40238  Biso   1.000  C
  C2       1.0000 0.63220  0.40558  0.09762  Biso   1.000  C
  C3       1.0000 0.13220  0.09442  0.59762  Biso   1.000  C
  C4       1.0000 0.36780  0.59442  0.90238  Biso   1.000  C
  C5       1.0000 0.81090  0.90263  0.04437  Biso   1.000  C
  C6       1.0000 0.68910  0.40263  0.45563  Biso   1.000  C
  C7       1.0000 0.18910  0.09737  0.95563  Biso   1.000  C
  C8       1.0000 0.31090  0.59737  0.54437  Biso   1.000  C
  C9       1.0000 0.98280  0.86680  0.03980  Biso   1.000  C
  C10      1.0000 0.51720  0.36680  0.46020  Biso   1.000  C
  C11      1.0000 0.01720  0.13320  0.96020  Biso   1.000  C
  C12      1.0000 0.48280  0.63320  0.53980  Biso   1.000  C
  N13      1.0000 0.58650  0.98530  0.41706  Biso   1.000  N
  N14      1.0000 0.91350  0.48530  0.08294  Biso   1.000  N
  N15      1.0000 0.41350  0.01470  0.58294  Biso   1.000  N
  N16      1.0000 0.08650  0.51470  0.91706  Biso   1.000  N
  C13      1.0000 0.10270  0.83890  0.11011  Biso   1.000  C
  C14      1.0000 0.39730  0.33890  0.38989  Biso   1.000  C
  C15      1.0000 0.89730  0.16110  0.88989  Biso   1.000  C
  C16      1.0000 0.60270  0.66110  0.61011  Biso   1.000  C
  C17      1.0000 0.69470  0.95105  0.36562  Biso   1.000  C
  C18      1.0000 0.80530  0.45105  0.13438  Biso   1.000  C
  C19      1.0000 0.30530  0.04895  0.63438  Biso   1.000  C
  C20      1.0000 0.19470  0.54895  0.86562  Biso   1.000  C
  C21      1.0000 0.13130  0.83930  0.37270  Biso   1.000  C
  C22      1.0000 0.36870  0.33930  0.12730  Biso   1.000  C
  C23      1.0000 0.86870  0.16070  0.62730  Biso   1.000  C
  C24      1.0000 0.63130  0.66070  0.87270  Biso   1.000  C
  C25      1.0000 0.69530  0.92900  0.96310  Biso   1.000  C
  C26      1.0000 0.80470  0.42900  0.53690  Biso   1.000  C
  C27      1.0000 0.30470  0.07100  0.03690  Biso   1.000  C
  C28      1.0000 0.19530  0.57100  0.46310  Biso   1.000  C
  C29      1.0000 0.18400  0.82980  0.45890  Biso   1.000  C
  C30      1.0000 0.31600  0.32980  0.04110  Biso   1.000  C
  C31      1.0000 0.81600  0.17020  0.54110  Biso   1.000  C
  C32      1.0000 0.68400  0.67020  0.95890  Biso   1.000  C
  C33      1.0000 0.43490  0.02700  0.37900  Biso   1.000  C
  C34      1.0000 0.06510  0.52700  0.12100  Biso   1.000  C
  C35      1.0000 0.56510  0.97300  0.62100  Biso   1.000  C
  C36      1.0000 0.93490  0.47300  0.87900  Biso   1.000  C
  C37      1.0000 0.06650  0.85830  0.51342  Biso   1.000  C
  C38      1.0000 0.43350  0.35830  0.98658  Biso   1.000  C
  C39      1.0000 0.93350  0.14170  0.48658  Biso   1.000  C
  C40      1.0000 0.56650  0.64170  0.01342  Biso   1.000  C
  C41      1.0000 0.51920  0.99740  0.24345  Biso   1.000  C
  C42      1.0000 0.98080  0.49740  0.25655  Biso   1.000  C
  C43      1.0000 0.48080  0.00260  0.75655  Biso   1.000  C
  C44      1.0000 0.01920  0.50260  0.74345  Biso   1.000  C
  C45      1.0000 0.28050  0.79650  0.09680  Biso   1.000  C
  C46      1.0000 0.21950  0.29650  0.40320  Biso   1.000  C
  C47      1.0000 0.71950  0.20350  0.90320  Biso   1.000  C
  C48      1.0000 0.78050  0.70350  0.59680  Biso   1.000  C
  C49      1.0000 0.39780  0.03570  0.29180  Biso   1.000  C
  C50      1.0000 0.10220  0.53570  0.20820  Biso   1.000  C
  C51      1.0000 0.60220  0.96430  0.70820  Biso   1.000  C
  C52      1.0000 0.89780  0.46430  0.79180  Biso   1.000  C
  O9       1.0000 0.70170  0.71950  0.22648  Biso   1.000  O
  O10      1.0000 0.79830  0.21950  0.27352  Biso   1.000  O
  O11      1.0000 0.29830  0.28050  0.77352  Biso   1.000  O
  O12      1.0000 0.20170  0.78050  0.72648  Biso   1.000  O
  O13      1.0000 0.76550  0.65620  0.36215  Biso   1.000  O
  O14      1.0000 0.73450  0.15620  0.13785  Biso   1.000  O
  O15      1.0000 0.23450  0.34380  0.63785  Biso   1.000  O
  O16      1.0000 0.26550  0.84380  0.86215  Biso   1.000  O
  O17      1.0000 0.53300  0.59130  0.26800  Biso   1.000  O
  O18      1.0000 0.96700  0.09130  0.23200  Biso   1.000  O
  O19      1.0000 0.46700  0.40870  0.73200  Biso   1.000  O
  O20      1.0000 0.03300  0.90870  0.76800  Biso   1.000  O
  O21      1.0000 0.50390  0.74560  0.32500  Biso   1.000  O
  O22      1.0000 0.99610  0.24560  0.17500  Biso   1.000  O
  O23      1.0000 0.49610  0.25440  0.67500  Biso   1.000  O
  O24      1.0000 0.00390  0.75440  0.82500  Biso   1.000  O
  H49      1.0000 0.96830  0.81040  0.00240  Biso   1.000  H
  H50      1.0000 0.53170  0.31040  0.49760  Biso   1.000  H
  H51      1.0000 0.03170  0.18960  0.99760  Biso   1.000  H
  H52      1.0000 0.46830  0.68960  0.50240  Biso   1.000  H
  H53      1.0000 0.04320  0.91630  0.01030  Biso   1.000  H
  H54      1.0000 0.45680  0.41630  0.48970  Biso   1.000  H
  H55      1.0000 0.95680  0.08370  0.98970  Biso   1.000  H
  H56      1.0000 0.54320  0.58370  0.51030  Biso   1.000  H
