data_image0
_cell_length_a       20.826
_cell_length_b       5.817
_cell_length_c       9.498
_cell_angle_alpha    90
_cell_angle_beta     104.831
_cell_angle_gamma    90

_symmetry_space_group_name_H-M    "P 1"
_symmetry_int_tables_number       1

loop_
  _symmetry_equiv_pos_as_xyz
  'x, y, z'

loop_
  _atom_site_label
  _atom_site_occupancy
  _atom_site_fract_x
  _atom_site_fract_y
  _atom_site_fract_z
  _atom_site_thermal_displace_type
  _atom_site_B_iso_or_equiv
  _atom_site_type_symbol
  Cu1      1.0000 0.29898  0.24920  0.50437  Biso   1.000  Cu
  Cu2      1.0000 0.70102  0.24920  0.49563  Biso   1.000  Cu
  Cu3      1.0000 0.79898  0.74920  0.50437  Biso   1.000  Cu
  Cu4      1.0000 0.20102  0.74920  0.49563  Biso   1.000  Cu
  Cl1      1.0000 0.29151  0.25150  0.26282  Biso   1.000  Cl
  Cl2      1.0000 0.70849  0.25150  0.73718  Biso   1.000  Cl
  Cl3      1.0000 0.79151  0.75150  0.26282  Biso   1.000  Cl
  Cl4      1.0000 0.20849  0.75150  0.73718  Biso   1.000  Cl
  Cl5      1.0000 0.18524  0.25860  0.46487  Biso   1.000  Cl
  Cl6      1.0000 0.81476  0.25860  0.53513  Biso   1.000  Cl
  Cl7      1.0000 0.68524  0.75860  0.46487  Biso   1.000  Cl
  Cl8      1.0000 0.31476  0.75860  0.53513  Biso   1.000  Cl
  N1       1.0000 0.30721  0.25760  0.71730  Biso   1.000  N
  N2       1.0000 0.69279  0.25760  0.28270  Biso   1.000  N
  N3       1.0000 0.80721  0.75760  0.71730  Biso   1.000  N
  N4       1.0000 0.19279  0.75760  0.28270  Biso   1.000  N
  H1       1.0000 0.28010  0.36680  0.73670  Biso   1.000  H
  H2       1.0000 0.71990  0.36680  0.26330  Biso   1.000  H
  H3       1.0000 0.78010  0.86680  0.73670  Biso   1.000  H
  H4       1.0000 0.21990  0.86680  0.26330  Biso   1.000  H
  H5       1.0000 0.29440  0.12140  0.74590  Biso   1.000  H
  H6       1.0000 0.70560  0.12140  0.25410  Biso   1.000  H
  H7       1.0000 0.79440  0.62140  0.74590  Biso   1.000  H
  H8       1.0000 0.20560  0.62140  0.25410  Biso   1.000  H
  O1       1.0000 0.39730  0.27210  0.56400  Biso   1.000  O
  O2       1.0000 0.60270  0.27210  0.43600  Biso   1.000  O
  O3       1.0000 0.89730  0.77210  0.56400  Biso   1.000  O
  O4       1.0000 0.10270  0.77210  0.43600  Biso   1.000  O
  O5       1.0000 0.47980  0.36800  0.75330  Biso   1.000  O
  O6       1.0000 0.52020  0.36800  0.24670  Biso   1.000  O
  O7       1.0000 0.97980  0.86800  0.75330  Biso   1.000  O
  O8       1.0000 0.02020  0.86800  0.24670  Biso   1.000  O
  C1       1.0000 0.42150  0.31820  0.69780  Biso   1.000  C
  C2       1.0000 0.57850  0.31820  0.30220  Biso   1.000  C
  C3       1.0000 0.92150  0.81820  0.69780  Biso   1.000  C
  C4       1.0000 0.07850  0.81820  0.30220  Biso   1.000  C
  C5       1.0000 0.37520  0.30550  0.79910  Biso   1.000  C
  C6       1.0000 0.62480  0.30550  0.20090  Biso   1.000  C
  C7       1.0000 0.87520  0.80550  0.79910  Biso   1.000  C
  C8       1.0000 0.12480  0.80550  0.20090  Biso   1.000  C
  H9       1.0000 0.37870  0.43990  0.86290  Biso   1.000  H
  H10      1.0000 0.62130  0.43990  0.13710  Biso   1.000  H
  H11      1.0000 0.87870  0.93990  0.86290  Biso   1.000  H
  H12      1.0000 0.12130  0.93990  0.13710  Biso   1.000  H
  C9       1.0000 0.40720  0.08150  0.88270  Biso   1.000  C
  C10      1.0000 0.59280  0.08150  0.11730  Biso   1.000  C
  C11      1.0000 0.90720  0.58150  0.88270  Biso   1.000  C
  C12      1.0000 0.09280  0.58150  0.11730  Biso   1.000  C
  H13      1.0000 0.40450  0.95650  0.81390  Biso   1.000  H
  H14      1.0000 0.59550  0.95650  0.18610  Biso   1.000  H
  H15      1.0000 0.90450  0.45650  0.81390  Biso   1.000  H
  H16      1.0000 0.09550  0.45650  0.18610  Biso   1.000  H
  H17      1.0000 0.45380  0.10920  0.92910  Biso   1.000  H
  H18      1.0000 0.54620  0.10920  0.07090  Biso   1.000  H
  H19      1.0000 0.95380  0.60920  0.92910  Biso   1.000  H
  H20      1.0000 0.04620  0.60920  0.07090  Biso   1.000  H
  C13      1.0000 0.37210  0.01540  0.99490  Biso   1.000  C
  C14      1.0000 0.62790  0.01540  0.00510  Biso   1.000  C
  C15      1.0000 0.87210  0.51540  0.99490  Biso   1.000  C
  C16      1.0000 0.12790  0.51540  0.00510  Biso   1.000  C
  H21      1.0000 0.32790  0.95790  0.95040  Biso   1.000  H
  H22      1.0000 0.67210  0.95790  0.04960  Biso   1.000  H
  H23      1.0000 0.82790  0.45790  0.95040  Biso   1.000  H
  H24      1.0000 0.17210  0.45790  0.04960  Biso   1.000  H
  H25      1.0000 0.36910  0.14410  0.05780  Biso   1.000  H
  H26      1.0000 0.63090  0.14410  0.94220  Biso   1.000  H
  H27      1.0000 0.86910  0.64410  0.05780  Biso   1.000  H
  H28      1.0000 0.13090  0.64410  0.94220  Biso   1.000  H
  C17      1.0000 0.42020  0.81200  0.08500  Biso   1.000  C
  C18      1.0000 0.57980  0.81200  0.91500  Biso   1.000  C
  C19      1.0000 0.92020  0.31200  0.08500  Biso   1.000  C
  C20      1.0000 0.07980  0.31200  0.91500  Biso   1.000  C
  H29      1.0000 0.42690  0.69000  0.02050  Biso   1.000  H
  H30      1.0000 0.57310  0.69000  0.97950  Biso   1.000  H
  H31      1.0000 0.92690  0.19000  0.02050  Biso   1.000  H
  H32      1.0000 0.07310  0.19000  0.97950  Biso   1.000  H
  H33      1.0000 0.46290  0.87230  0.13810  Biso   1.000  H
  H34      1.0000 0.53710  0.87230  0.86190  Biso   1.000  H
  H35      1.0000 0.96290  0.37230  0.13810  Biso   1.000  H
  H36      1.0000 0.03710  0.37230  0.86190  Biso   1.000  H
  C21      1.0000 0.38090  0.73400  0.18290  Biso   1.000  C
  C22      1.0000 0.61910  0.73400  0.81710  Biso   1.000  C
  C23      1.0000 0.88090  0.23400  0.18290  Biso   1.000  C
  C24      1.0000 0.11910  0.23400  0.81710  Biso   1.000  C
  H37      1.0000 0.34750  0.62670  0.13070  Biso   1.000  H
  H38      1.0000 0.65250  0.62670  0.86930  Biso   1.000  H
  H39      1.0000 0.84750  0.12670  0.13070  Biso   1.000  H
  H40      1.0000 0.15250  0.12670  0.86930  Biso   1.000  H
  H41      1.0000 0.35770  0.86520  0.20960  Biso   1.000  H
  H42      1.0000 0.64230  0.86520  0.79040  Biso   1.000  H
  H43      1.0000 0.85770  0.36520  0.20960  Biso   1.000  H
  H44      1.0000 0.14230  0.36520  0.79040  Biso   1.000  H
  N5       1.0000 0.41970  0.62150  0.31800  Biso   1.000  N
  N6       1.0000 0.58030  0.62150  0.68200  Biso   1.000  N
  N7       1.0000 0.91970  0.12150  0.31800  Biso   1.000  N
  N8       1.0000 0.08030  0.12150  0.68200  Biso   1.000  N
  H45      1.0000 0.45330  0.54350  0.29910  Biso   1.000  H
  H46      1.0000 0.54670  0.54350  0.70090  Biso   1.000  H
  H47      1.0000 0.95330  0.04350  0.29910  Biso   1.000  H
  H48      1.0000 0.04670  0.04350  0.70090  Biso   1.000  H
  H49      1.0000 0.39350  0.52550  0.35080  Biso   1.000  H
  H50      1.0000 0.60650  0.52550  0.64920  Biso   1.000  H
  H51      1.0000 0.89350  0.02550  0.35080  Biso   1.000  H
  H52      1.0000 0.10650  0.02550  0.64920  Biso   1.000  H
  H53      1.0000 0.43550  0.72800  0.38520  Biso   1.000  H
  H54      1.0000 0.56450  0.72800  0.61480  Biso   1.000  H
  H55      1.0000 0.93550  0.22800  0.38520  Biso   1.000  H
  H56      1.0000 0.06450  0.22800  0.61480  Biso   1.000  H
  O9       1.0000 0.50000  0.97550  0.50000  Biso   1.000  O
  O10      1.0000 0.00000  0.47550  0.50000  Biso   1.000  O
  H57      1.0000 0.47200  0.09100  0.52300  Biso   1.000  H
  H58      1.0000 0.52800  0.09100  0.47700  Biso   1.000  H
  H59      1.0000 0.97200  0.59100  0.52300  Biso   1.000  H
  H60      1.0000 0.02800  0.59100  0.47700  Biso   1.000  H
  C25      1.0000 0.39420  0.19810  0.95480  Biso   1.000  C
  C26      1.0000 0.60580  0.19810  0.04520  Biso   1.000  C
  C27      1.0000 0.89420  0.69810  0.95480  Biso   1.000  C
  C28      1.0000 0.10580  0.69810  0.04520  Biso   1.000  C
  C29      1.0000 0.39920  0.94040  0.94470  Biso   1.000  C
  C30      1.0000 0.60080  0.94040  0.05530  Biso   1.000  C
  C31      1.0000 0.89920  0.44040  0.94470  Biso   1.000  C
  C32      1.0000 0.10080  0.44040  0.05530  Biso   1.000  C
  C33      1.0000 0.42610  0.85600  0.11300  Biso   1.000  C
  C34      1.0000 0.57390  0.85600  0.88700  Biso   1.000  C
  C35      1.0000 0.92610  0.35600  0.11300  Biso   1.000  C
  C36      1.0000 0.07390  0.35600  0.88700  Biso   1.000  C
  H61      1.0000 0.37180  0.46850  0.82240  Biso   1.000  H
  H62      1.0000 0.62820  0.46850  0.17760  Biso   1.000  H
  H63      1.0000 0.87180  0.96850  0.82240  Biso   1.000  H
  H64      1.0000 0.12820  0.96850  0.17760  Biso   1.000  H
  H65      1.0000 0.44700  0.51820  0.29580  Biso   1.000  H
  H66      1.0000 0.55300  0.51820  0.70420  Biso   1.000  H
  H67      1.0000 0.94700  0.01820  0.29580  Biso   1.000  H
  H68      1.0000 0.05300  0.01820  0.70420  Biso   1.000  H
  H69      1.0000 0.39210  0.55180  0.36200  Biso   1.000  H
  H70      1.0000 0.60790  0.55180  0.63800  Biso   1.000  H
  H71      1.0000 0.89210  0.05180  0.36200  Biso   1.000  H
  H72      1.0000 0.10790  0.05180  0.63800  Biso   1.000  H
  H73      1.0000 0.44320  0.72700  0.37730  Biso   1.000  H
  H74      1.0000 0.55680  0.72700  0.62270  Biso   1.000  H
  H75      1.0000 0.94320  0.22700  0.37730  Biso   1.000  H
  H76      1.0000 0.05680  0.22700  0.62270  Biso   1.000  H
  H77      1.0000 0.43650  0.26000  0.00970  Biso   1.000  H
  H78      1.0000 0.56350  0.26000  0.99030  Biso   1.000  H
  H79      1.0000 0.93650  0.76000  0.00970  Biso   1.000  H
  H80      1.0000 0.06350  0.76000  0.99030  Biso   1.000  H
  H81      1.0000 0.36090  0.23750  0.00560  Biso   1.000  H
  H82      1.0000 0.63910  0.23750  0.99440  Biso   1.000  H
  H83      1.0000 0.86090  0.73750  0.00560  Biso   1.000  H
  H84      1.0000 0.13910  0.73750  0.99440  Biso   1.000  H
  H85      1.0000 0.43010  0.89760  0.88810  Biso   1.000  H
  H86      1.0000 0.56990  0.89760  0.11190  Biso   1.000  H
  H87      1.0000 0.93010  0.39760  0.88810  Biso   1.000  H
  H88      1.0000 0.06990  0.39760  0.11190  Biso   1.000  H
  H89      1.0000 0.35610  0.87360  0.89990  Biso   1.000  H
  H90      1.0000 0.64390  0.87360  0.10010  Biso   1.000  H
  H91      1.0000 0.85610  0.37360  0.89990  Biso   1.000  H
  H92      1.0000 0.14390  0.37360  0.10010  Biso   1.000  H
  H93      1.0000 0.46410  0.75690  0.11840  Biso   1.000  H
  H94      1.0000 0.53590  0.75690  0.88160  Biso   1.000  H
  H95      1.0000 0.96410  0.25690  0.11840  Biso   1.000  H
  H96      1.0000 0.03590  0.25690  0.88160  Biso   1.000  H
  H97      1.0000 0.44220  0.99060  0.17170  Biso   1.000  H
  H98      1.0000 0.55780  0.99060  0.82830  Biso   1.000  H
  H99      1.0000 0.94220  0.49060  0.17170  Biso   1.000  H
  H100     1.0000 0.05780  0.49060  0.82830  Biso   1.000  H
  H101     1.0000 0.35600  0.61920  0.11680  Biso   1.000  H
  H102     1.0000 0.64400  0.61920  0.88320  Biso   1.000  H
  H103     1.0000 0.85600  0.11920  0.11680  Biso   1.000  H
  H104     1.0000 0.14400  0.11920  0.88320  Biso   1.000  H
  H105     1.0000 0.34950  0.84160  0.20610  Biso   1.000  H
  H106     1.0000 0.65050  0.84160  0.79390  Biso   1.000  H
  H107     1.0000 0.84950  0.34160  0.20610  Biso   1.000  H
  H108     1.0000 0.15050  0.34160  0.79390  Biso   1.000  H
