data_image0
_cell_length_a       9.3422
_cell_length_b       9.4593
_cell_length_c       14.696
_cell_angle_alpha    80.739
_cell_angle_beta     76.79
_cell_angle_gamma    89.212

_symmetry_space_group_name_H-M    "P 1"
_symmetry_int_tables_number       1

loop_
  _symmetry_equiv_pos_as_xyz
  'x, y, z'

loop_
  _atom_site_label
  _atom_site_occupancy
  _atom_site_fract_x
  _atom_site_fract_y
  _atom_site_fract_z
  _atom_site_thermal_displace_type
  _atom_site_B_iso_or_equiv
  _atom_site_type_symbol
  Cu1      1.0000 0.10833  0.22904  0.28389  Biso   1.000  Cu
  Cu2      1.0000 0.89167  0.77096  0.71611  Biso   1.000  Cu
  N1       1.0000 0.97490  0.30910  0.39145  Biso   1.000  N
  N2       1.0000 0.02510  0.69090  0.60855  Biso   1.000  N
  N3       1.0000 0.96140  0.32170  0.21421  Biso   1.000  N
  N4       1.0000 0.03860  0.67830  0.78579  Biso   1.000  N
  N5       1.0000 0.25160  0.14850  0.36216  Biso   1.000  N
  N6       1.0000 0.74840  0.85150  0.63784  Biso   1.000  N
  N7       1.0000 0.24080  0.15210  0.17233  Biso   1.000  N
  N8       1.0000 0.75920  0.84790  0.82767  Biso   1.000  N
  N9       1.0000 0.22600  0.56710  0.18813  Biso   1.000  N
  N10      1.0000 0.77400  0.43290  0.81187  Biso   1.000  N
  N11      1.0000 0.84400  0.95340  0.33223  Biso   1.000  N
  N12      1.0000 0.15600  0.04660  0.66777  Biso   1.000  N
  C1       1.0000 0.98770  0.29510  0.48190  Biso   1.000  C
  C2       1.0000 0.01230  0.70490  0.51810  Biso   1.000  C
  H1       1.0000 0.06580  0.24360  0.49880  Biso   1.000  H
  H2       1.0000 0.93420  0.75640  0.50120  Biso   1.000  H
  C3       1.0000 0.89050  0.35370  0.55030  Biso   1.000  C
  C4       1.0000 0.10950  0.64630  0.44970  Biso   1.000  C
  H3       1.0000 0.90150  0.34050  0.61240  Biso   1.000  H
  H4       1.0000 0.09850  0.65950  0.38760  Biso   1.000  H
  C5       1.0000 0.77650  0.43230  0.52510  Biso   1.000  C
  C6       1.0000 0.22350  0.56770  0.47490  Biso   1.000  C
  H5       1.0000 0.70910  0.47300  0.56990  Biso   1.000  H
  H6       1.0000 0.29090  0.52700  0.43010  Biso   1.000  H
  C7       1.0000 0.76340  0.44990  0.43170  Biso   1.000  C
  C8       1.0000 0.23660  0.55010  0.56830  Biso   1.000  C
  H7       1.0000 0.68820  0.50420  0.41310  Biso   1.000  H
  H8       1.0000 0.31180  0.49580  0.58690  Biso   1.000  H
  C9       1.0000 0.86290  0.38610  0.36670  Biso   1.000  C
  C10      1.0000 0.13710  0.61390  0.63330  Biso   1.000  C
  C11      1.0000 0.85370  0.38930  0.26660  Biso   1.000  C
  C12      1.0000 0.14630  0.61070  0.73340  Biso   1.000  C
  C13      1.0000 0.73960  0.45360  0.22990  Biso   1.000  C
  C14      1.0000 0.26040  0.54640  0.77010  Biso   1.000  C
  H9       1.0000 0.66670  0.50140  0.26690  Biso   1.000  H
  H10      1.0000 0.33330  0.49860  0.73310  Biso   1.000  H
  C15      1.0000 0.73730  0.44480  0.13720  Biso   1.000  C
  C16      1.0000 0.26270  0.55520  0.86280  Biso   1.000  C
  H11      1.0000 0.66140  0.48580  0.11140  Biso   1.000  H
  H12      1.0000 0.33860  0.51420  0.88860  Biso   1.000  H
  C17      1.0000 0.84600  0.37640  0.08390  Biso   1.000  C
  C18      1.0000 0.15400  0.62360  0.91610  Biso   1.000  C
  H13      1.0000 0.84550  0.37050  0.02140  Biso   1.000  H
  H14      1.0000 0.15450  0.62950  0.97860  Biso   1.000  H
  C19      1.0000 0.95780  0.31550  0.12410  Biso   1.000  C
  C20      1.0000 0.04220  0.68450  0.87590  Biso   1.000  C
  H15      1.0000 0.03240  0.26900  0.08750  Biso   1.000  H
  H16      1.0000 0.96760  0.73100  0.91250  Biso   1.000  H
  C21      1.0000 0.37100  0.22020  0.36450  Biso   1.000  C
  C22      1.0000 0.62900  0.77980  0.63550  Biso   1.000  C
  H17      1.0000 0.38900  0.31160  0.32920  Biso   1.000  H
  H18      1.0000 0.61100  0.68840  0.67080  Biso   1.000  H
  C23      1.0000 0.47020  0.16540  0.41700  Biso   1.000  C
  C24      1.0000 0.52980  0.83460  0.58300  Biso   1.000  C
  H19      1.0000 0.55270  0.22010  0.41610  Biso   1.000  H
  H20      1.0000 0.44730  0.77990  0.58390  Biso   1.000  H
  C25      1.0000 0.44850  0.03080  0.47090  Biso   1.000  C
  C26      1.0000 0.55150  0.96920  0.52910  Biso   1.000  C
  C27      1.0000 0.32440  0.95690  0.46770  Biso   1.000  C
  C28      1.0000 0.67560  0.04310  0.53230  Biso   1.000  C
  H21      1.0000 0.30480  0.86480  0.50170  Biso   1.000  H
  H22      1.0000 0.69520  0.13520  0.49830  Biso   1.000  H
  C29      1.0000 0.22910  0.01770  0.41490  Biso   1.000  C
  C30      1.0000 0.77090  0.98230  0.58510  Biso   1.000  C
  H23      1.0000 0.14490  0.96570  0.41570  Biso   1.000  H
  H24      1.0000 0.85510  0.03430  0.58430  Biso   1.000  H
  C31      1.0000 0.22650  0.01620  0.16020  Biso   1.000  C
  C32      1.0000 0.77350  0.98380  0.83980  Biso   1.000  C
  H25      1.0000 0.14650  0.96130  0.19810  Biso   1.000  H
  H26      1.0000 0.85350  0.03870  0.80190  Biso   1.000  H
  C33      1.0000 0.32530  0.95400  0.09390  Biso   1.000  C
  C34      1.0000 0.67470  0.04600  0.90610  Biso   1.000  C
  H27      1.0000 0.31110  0.85900  0.08830  Biso   1.000  H
  H28      1.0000 0.68890  0.14100  0.91170  Biso   1.000  H
  C35      1.0000 0.44540  0.03210  0.03580  Biso   1.000  C
  C36      1.0000 0.55460  0.96790  0.96420  Biso   1.000  C
  C37      1.0000 0.45670  0.17350  0.04720  Biso   1.000  C
  C38      1.0000 0.54330  0.82650  0.95280  Biso   1.000  C
  H29      1.0000 0.53390  0.23160  0.00890  Biso   1.000  H
  H30      1.0000 0.46610  0.76840  0.99110  Biso   1.000  H
  C39      1.0000 0.35370  0.22930  0.11530  Biso   1.000  C
  C40      1.0000 0.64630  0.77070  0.88470  Biso   1.000  C
  H31      1.0000 0.36400  0.32480  0.12130  Biso   1.000  H
  H32      1.0000 0.63600  0.67520  0.87870  Biso   1.000  H
  C41      1.0000 0.48530  0.78040  0.27200  Biso   1.000  C
  C42      1.0000 0.51470  0.21960  0.72800  Biso   1.000  C
  H33      1.0000 0.38060  0.76450  0.28750  Biso   1.000  H
  H34      1.0000 0.61940  0.23550  0.71250  Biso   1.000  H
  H35      1.0000 0.52790  0.74240  0.21540  Biso   1.000  H
  H36      1.0000 0.47210  0.25760  0.78460  Biso   1.000  H
  H37      1.0000 0.50700  0.88140  0.26200  Biso   1.000  H
  H38      1.0000 0.49300  0.11860  0.73800  Biso   1.000  H
  C43      1.0000 0.01192  0.18950  0.92837  Biso   1.000  C
  C44      1.0000 0.98808  0.81050  0.07163  Biso   1.000  C
  H39      1.0000 0.96960  0.12640  0.98600  Biso   1.000  H
  H40      1.0000 0.03040  0.87360  0.01400  Biso   1.000  H
  H41      1.0000 0.95010  0.18980  0.88440  Biso   1.000  H
  H42      1.0000 0.04990  0.81020  0.11560  Biso   1.000  H
  H43      1.0000 0.02030  0.28470  0.94170  Biso   1.000  H
  H44      1.0000 0.97970  0.71530  0.05830  Biso   1.000  H
  O1       1.0000 0.24735  0.46670  0.24977  Biso   1.000  O
  O2       1.0000 0.75265  0.53330  0.75023  Biso   1.000  O
  O3       1.0000 0.12526  0.65145  0.21046  Biso   1.000  O
  O4       1.0000 0.87474  0.34855  0.78954  Biso   1.000  O
  O5       1.0000 0.30298  0.58284  0.10749  Biso   1.000  O
  O6       1.0000 0.69702  0.41716  0.89251  Biso   1.000  O
  O7       1.0000 0.96437  0.00080  0.33834  Biso   1.000  O
  O8       1.0000 0.03563  0.99920  0.66166  Biso   1.000  O
  O9       1.0000 0.80917  0.82643  0.36451  Biso   1.000  O
  O10      1.0000 0.19083  0.17357  0.63549  Biso   1.000  O
  O11      1.0000 0.75733  0.03357  0.29882  Biso   1.000  O
  O12      1.0000 0.24267  0.96643  0.70118  Biso   1.000  O
  O13      1.0000 0.54441  0.71124  0.34729  Biso   1.000  O
  O14      1.0000 0.45559  0.28876  0.65271  Biso   1.000  O
  H45      1.0000 0.61440  0.75880  0.35190  Biso   1.000  H
  H46      1.0000 0.38560  0.24120  0.64810  Biso   1.000  H
  O15      1.0000 0.13790  0.14680  0.89290  Biso   1.000  O
  O16      1.0000 0.86210  0.85320  0.10710  Biso   1.000  O
  H47      1.0000 0.14270  0.06070  0.91130  Biso   1.000  H
  H48      1.0000 0.85730  0.93930  0.08870  Biso   1.000  H
