data_image0
_cell_length_a       8.5606
_cell_length_b       8.9656
_cell_length_c       10.5456
_cell_angle_alpha    112.878
_cell_angle_beta     101.431
_cell_angle_gamma    96.338

_symmetry_space_group_name_H-M    "P 1"
_symmetry_int_tables_number       1

loop_
  _symmetry_equiv_pos_as_xyz
  'x, y, z'

loop_
  _atom_site_label
  _atom_site_occupancy
  _atom_site_fract_x
  _atom_site_fract_y
  _atom_site_fract_z
  _atom_site_thermal_displace_type
  _atom_site_B_iso_or_equiv
  _atom_site_type_symbol
  Pd1      1.0000 0.00000  0.00000  0.00000  Biso   1.000  Pd
  Cu1      1.0000 0.00000  0.50000  0.50000  Biso   1.000  Cu
  N1       1.0000 0.05510  0.26230  0.31489  Biso   1.000  N
  N2       1.0000 0.94490  0.73770  0.68511  Biso   1.000  N
  N3       1.0000 0.28420  0.82970  0.07660  Biso   1.000  N
  N4       1.0000 0.71580  0.17030  0.92340  Biso   1.000  N
  N5       1.0000 0.23422  0.61914  0.55259  Biso   1.000  N
  N6       1.0000 0.76578  0.38086  0.44741  Biso   1.000  N
  N7       1.0000 0.46687  0.69530  0.51272  Biso   1.000  N
  N8       1.0000 0.53313  0.30470  0.48728  Biso   1.000  N
  N9       1.0000 0.05036  0.39657  0.63964  Biso   1.000  N
  N10      1.0000 0.94964  0.60343  0.36036  Biso   1.000  N
  N11      1.0000 0.12070  0.35875  0.83566  Biso   1.000  N
  N12      1.0000 0.87930  0.64125  0.16434  Biso   1.000  N
  C1       1.0000 0.03980  0.16520  0.20097  Biso   1.000  C
  C2       1.0000 0.96020  0.83480  0.79903  Biso   1.000  C
  C3       1.0000 0.18280  0.89570  0.05170  Biso   1.000  C
  C4       1.0000 0.81720  0.10430  0.94830  Biso   1.000  C
  C5       1.0000 0.31930  0.59350  0.45700  Biso   1.000  C
  C6       1.0000 0.68070  0.40650  0.54300  Biso   1.000  C
  H1       1.0000 0.28180  0.51480  0.36290  Biso   1.000  H
  H2       1.0000 0.71820  0.48520  0.63710  Biso   1.000  H
  C7       1.0000 0.33230  0.74530  0.67650  Biso   1.000  C
  C8       1.0000 0.66770  0.25470  0.32350  Biso   1.000  C
  H3       1.0000 0.30470  0.79070  0.76260  Biso   1.000  H
  H4       1.0000 0.69530  0.20930  0.23740  Biso   1.000  H
  C9       1.0000 0.47690  0.79310  0.65230  Biso   1.000  C
  C10      1.0000 0.52310  0.20690  0.34770  Biso   1.000  C
  H5       1.0000 0.56470  0.87570  0.71790  Biso   1.000  H
  H6       1.0000 0.43530  0.12430  0.28210  Biso   1.000  H
  C11      1.0000 0.58920  0.70090  0.43290  Biso   1.000  C
  C12      1.0000 0.41080  0.29910  0.56710  Biso   1.000  C
  H7       1.0000 0.56910  0.59540  0.35080  Biso   1.000  H
  H8       1.0000 0.43090  0.40460  0.64920  Biso   1.000  H
  H9       1.0000 0.69680  0.71750  0.49340  Biso   1.000  H
  H10      1.0000 0.30320  0.28250  0.50660  Biso   1.000  H
  C13      1.0000 0.58570  0.83620  0.38310  Biso   1.000  C
  C14      1.0000 0.41430  0.16380  0.61690  Biso   1.000  C
  H11      1.0000 0.66650  0.83470  0.33140  Biso   1.000  H
  H12      1.0000 0.33350  0.16530  0.66860  Biso   1.000  H
  H13      1.0000 0.60840  0.94110  0.46400  Biso   1.000  H
  H14      1.0000 0.39160  0.05890  0.53600  Biso   1.000  H
  H15      1.0000 0.47990  0.81930  0.32190  Biso   1.000  H
  H16      1.0000 0.52010  0.18070  0.67810  Biso   1.000  H
  C15      1.0000 0.12670  0.46800  0.77708  Biso   1.000  C
  C16      1.0000 0.87330  0.53200  0.22292  Biso   1.000  C
  H17      1.0000 0.17780  0.57910  0.82680  Biso   1.000  H
  H18      1.0000 0.82220  0.42090  0.17320  Biso   1.000  H
  C17      1.0000 0.99300  0.23320  0.60900  Biso   1.000  C
  C18      1.0000 0.00700  0.76680  0.39100  Biso   1.000  C
  H19      1.0000 0.93410  0.15260  0.51980  Biso   1.000  H
  H20      1.0000 0.06590  0.84740  0.48020  Biso   1.000  H
  C19      1.0000 0.03580  0.20830  0.72930  Biso   1.000  C
  C20      1.0000 0.96420  0.79170  0.27070  Biso   1.000  C
  H21      1.0000 0.01240  0.10940  0.73780  Biso   1.000  H
  H22      1.0000 0.98760  0.89060  0.26220  Biso   1.000  H
  C21      1.0000 0.19380  0.39540  0.98560  Biso   1.000  C
  C22      1.0000 0.80620  0.60460  0.01440  Biso   1.000  C
  H23      1.0000 0.11100  0.36120  0.02530  Biso   1.000  H
  H24      1.0000 0.88900  0.63880  0.97470  Biso   1.000  H
  H25      1.0000 0.23360  0.51380  0.03930  Biso   1.000  H
  H26      1.0000 0.76640  0.48620  0.96070  Biso   1.000  H
  C23      1.0000 0.33310  0.30800  0.00170  Biso   1.000  C
  C24      1.0000 0.66690  0.69200  0.99830  Biso   1.000  C
  H27      1.0000 0.37620  0.33330  0.10060  Biso   1.000  H
  H28      1.0000 0.62380  0.66670  0.89940  Biso   1.000  H
  H29      1.0000 0.41720  0.34450  0.96580  Biso   1.000  H
  H30      1.0000 0.58280  0.65550  0.03420  Biso   1.000  H
  H31      1.0000 0.29410  0.19060  0.94880  Biso   1.000  H
  H32      1.0000 0.70590  0.80940  0.05120  Biso   1.000  H
