data_image0
_cell_length_a       8.6717
_cell_length_b       10.3082
_cell_length_c       17.7374
_cell_angle_alpha    79.638
_cell_angle_beta     79.641
_cell_angle_gamma    68.7

_symmetry_space_group_name_H-M    "P 1"
_symmetry_int_tables_number       1

loop_
  _symmetry_equiv_pos_as_xyz
  'x, y, z'

loop_
  _atom_site_label
  _atom_site_occupancy
  _atom_site_fract_x
  _atom_site_fract_y
  _atom_site_fract_z
  _atom_site_thermal_displace_type
  _atom_site_B_iso_or_equiv
  _atom_site_type_symbol
  Cu1      1.0000 0.50000  0.00000  0.00000  Biso   1.000  Cu
  Cu2      1.0000 0.00000  0.00000  0.50000  Biso   1.000  Cu
  Ni1      1.0000 0.50000  0.50000  0.00000  Biso   1.000  Ni
  Ni2      1.0000 0.00000  0.50000  0.50000  Biso   1.000  Ni
  O1       1.0000 0.24920  0.32250  0.27980  Biso   1.000  O
  O2       1.0000 0.75080  0.67750  0.72020  Biso   1.000  O
  H1       1.0000 0.15900  0.40100  0.28700  Biso   1.000  H
  H2       1.0000 0.84100  0.59900  0.71300  Biso   1.000  H
  H3       1.0000 0.31100  0.37000  0.24600  Biso   1.000  H
  H4       1.0000 0.68900  0.63000  0.75400  Biso   1.000  H
  N1       1.0000 0.55430  0.94220  0.11063  Biso   1.000  N
  N2       1.0000 0.44570  0.05780  0.88937  Biso   1.000  N
  N3       1.0000 0.62250  0.94200  0.22425  Biso   1.000  N
  N4       1.0000 0.37750  0.05800  0.77575  Biso   1.000  N
  N5       1.0000 0.26330  0.12290  0.03574  Biso   1.000  N
  N6       1.0000 0.73670  0.87710  0.96426  Biso   1.000  N
  N7       1.0000 0.04590  0.27180  0.09561  Biso   1.000  N
  N8       1.0000 0.95410  0.72820  0.90439  Biso   1.000  N
  N9       1.0000 0.40680  0.80820  0.00689  Biso   1.000  N
  N10      1.0000 0.59320  0.19180  0.99311  Biso   1.000  N
  N11      1.0000 0.46180  0.43160  0.17298  Biso   1.000  N
  N12      1.0000 0.53820  0.56840  0.82702  Biso   1.000  N
  N13      1.0000 0.08460  0.96230  0.38813  Biso   1.000  N
  N14      1.0000 0.91540  0.03770  0.61187  Biso   1.000  N
  N15      1.0000 0.15470  0.85920  0.28280  Biso   1.000  N
  N16      1.0000 0.84530  0.14080  0.71720  Biso   1.000  N
  N17      1.0000 0.78580  0.14260  0.46646  Biso   1.000  N
  N18      1.0000 0.21420  0.85740  0.53354  Biso   1.000  N
  N19      1.0000 0.60990  0.32460  0.40450  Biso   1.000  N
  N20      1.0000 0.39010  0.67540  0.59550  Biso   1.000  N
  N21      1.0000 0.11800  0.19350  0.48023  Biso   1.000  N
  N22      1.0000 0.88200  0.80650  0.51977  Biso   1.000  N
  N23      1.0000 0.90420  0.57020  0.33876  Biso   1.000  N
  N24      1.0000 0.09580  0.42980  0.66124  Biso   1.000  N
  C1       1.0000 0.58740  0.80970  0.15046  Biso   1.000  C
  C2       1.0000 0.41260  0.19030  0.84954  Biso   1.000  C
  H5       1.0000 0.58170  0.73280  0.13210  Biso   1.000  H
  H6       1.0000 0.41830  0.26720  0.86790  Biso   1.000  H
  C3       1.0000 0.62960  0.80820  0.22052  Biso   1.000  C
  C4       1.0000 0.37040  0.19180  0.77948  Biso   1.000  C
  H7       1.0000 0.65770  0.73170  0.25860  Biso   1.000  H
  H8       1.0000 0.34230  0.26830  0.74140  Biso   1.000  H
  C5       1.0000 0.57710  0.01890  0.15727  Biso   1.000  C
  C6       1.0000 0.42290  0.98110  0.84273  Biso   1.000  C
  H9       1.0000 0.56340  0.11370  0.14510  Biso   1.000  H
  H10      1.0000 0.43660  0.88630  0.85490  Biso   1.000  H
  C7       1.0000 0.65480  0.99120  0.29125  Biso   1.000  C
  C8       1.0000 0.34520  0.00880  0.70875  Biso   1.000  C
  H11      1.0000 0.72550  0.91190  0.32220  Biso   1.000  H
  H12      1.0000 0.27450  0.08810  0.67780  Biso   1.000  H
  H13      1.0000 0.55010  0.03080  0.32320  Biso   1.000  H
  H14      1.0000 0.44990  0.96920  0.67680  Biso   1.000  H
  C9       1.0000 0.73770  0.09960  0.26686  Biso   1.000  C
  C10      1.0000 0.26230  0.90040  0.73314  Biso   1.000  C
  H15      1.0000 0.77560  0.11580  0.31080  Biso   1.000  H
  H16      1.0000 0.22440  0.88420  0.68920  Biso   1.000  H
  H17      1.0000 0.65940  0.18560  0.24570  Biso   1.000  H
  H18      1.0000 0.34060  0.81440  0.75430  Biso   1.000  H
  H19      1.0000 0.83120  0.06690  0.22840  Biso   1.000  H
  H20      1.0000 0.16880  0.93310  0.77160  Biso   1.000  H
  C11      1.0000 0.12030  0.11910  0.01444  Biso   1.000  C
  C12      1.0000 0.87970  0.88090  0.98556  Biso   1.000  C
  H21      1.0000 0.11680  0.06180  0.98030  Biso   1.000  H
  H22      1.0000 0.88320  0.93820  0.01970  Biso   1.000  H
  C13      1.0000 0.98510  0.21160  0.05080  Biso   1.000  C
  C14      1.0000 0.01490  0.78840  0.94920  Biso   1.000  C
  H23      1.0000 0.87370  0.23020  0.04620  Biso   1.000  H
  H24      1.0000 0.12630  0.76980  0.95380  Biso   1.000  H
  C15      1.0000 0.21260  0.21620  0.08460  Biso   1.000  C
  C16      1.0000 0.78740  0.78380  0.91540  Biso   1.000  C
  H25      1.0000 0.28350  0.24060  0.10850  Biso   1.000  H
  H26      1.0000 0.71650  0.75940  0.89150  Biso   1.000  H
  C17      1.0000 0.94730  0.37680  0.14970  Biso   1.000  C
  C18      1.0000 0.05270  0.62320  0.85030  Biso   1.000  C
  H27      1.0000 0.83080  0.38490  0.15660  Biso   1.000  H
  H28      1.0000 0.16920  0.61510  0.84340  Biso   1.000  H
  H29      1.0000 0.98790  0.34660  0.19970  Biso   1.000  H
  H30      1.0000 0.01210  0.65340  0.80030  Biso   1.000  H
  C19      1.0000 0.96340  0.50670  0.11930  Biso   1.000  C
  C20      1.0000 0.03660  0.49330  0.88070  Biso   1.000  C
  H31      1.0000 0.90550  0.57330  0.15530  Biso   1.000  H
  H32      1.0000 0.09450  0.42670  0.84470  Biso   1.000  H
  H33      1.0000 0.91630  0.53900  0.07150  Biso   1.000  H
  H34      1.0000 0.08370  0.46100  0.92850  Biso   1.000  H
  H35      1.0000 0.07930  0.49710  0.11030  Biso   1.000  H
  H36      1.0000 0.92070  0.50290  0.88970  Biso   1.000  H
  C21      1.0000 0.43960  0.69070  0.00568  Biso   1.000  C
  C22      1.0000 0.56040  0.30930  0.99432  Biso   1.000  C
  C23      1.0000 0.47640  0.46020  0.10700  Biso   1.000  C
  C24      1.0000 0.52360  0.53980  0.89300  Biso   1.000  C
  C25      1.0000 0.16240  0.03620  0.33161  Biso   1.000  C
  C26      1.0000 0.83760  0.96380  0.66839  Biso   1.000  C
  H37      1.0000 0.18190  0.11670  0.33720  Biso   1.000  H
  H38      1.0000 0.81810  0.88330  0.66280  Biso   1.000  H
  C27      1.0000 0.20630  0.97250  0.26636  Biso   1.000  C
  C28      1.0000 0.79370  0.02750  0.73364  Biso   1.000  C
  H39      1.0000 0.26070  0.00070  0.21970  Biso   1.000  H
  H40      1.0000 0.73930  0.99930  0.78030  Biso   1.000  H
  C29      1.0000 0.08230  0.85660  0.35644  Biso   1.000  C
  C30      1.0000 0.91770  0.14340  0.64356  Biso   1.000  C
  H41      1.0000 0.03670  0.78910  0.38180  Biso   1.000  H
  H42      1.0000 0.96330  0.21090  0.61820  Biso   1.000  H
  C31      1.0000 0.18340  0.75150  0.23230  Biso   1.000  C
  C32      1.0000 0.81660  0.24850  0.76770  Biso   1.000  C
  H43      1.0000 0.14920  0.67560  0.26190  Biso   1.000  H
  H44      1.0000 0.85080  0.32440  0.73810  Biso   1.000  H
  H45      1.0000 0.30180  0.71320  0.21500  Biso   1.000  H
  H46      1.0000 0.69820  0.28680  0.78500  Biso   1.000  H
  C33      1.0000 0.09030  0.80750  0.16290  Biso   1.000  C
  C34      1.0000 0.90970  0.19250  0.83710  Biso   1.000  C
  H47      1.0000 0.12090  0.73550  0.12990  Biso   1.000  H
  H48      1.0000 0.87910  0.26450  0.87010  Biso   1.000  H
  H49      1.0000 0.11820  0.88650  0.13510  Biso   1.000  H
  H50      1.0000 0.88180  0.11350  0.86490  Biso   1.000  H
  H51      1.0000 0.97250  0.83620  0.17950  Biso   1.000  H
  H52      1.0000 0.02750  0.16380  0.82050  Biso   1.000  H
  C35      1.0000 0.63170  0.12820  0.48010  Biso   1.000  C
  C36      1.0000 0.36830  0.87180  0.51990  Biso   1.000  C
  H53      1.0000 0.60630  0.05340  0.51050  Biso   1.000  H
  H54      1.0000 0.39370  0.94660  0.48950  Biso   1.000  H
  C37      1.0000 0.52220  0.24050  0.44217  Biso   1.000  C
  C38      1.0000 0.47780  0.75950  0.55783  Biso   1.000  C
  H55      1.0000 0.40950  0.25690  0.44190  Biso   1.000  H
  H56      1.0000 0.59050  0.74310  0.55810  Biso   1.000  H
  C39      1.0000 0.76660  0.26220  0.42069  Biso   1.000  C
  C40      1.0000 0.23340  0.73780  0.57931  Biso   1.000  C
  H57      1.0000 0.85200  0.29840  0.40200  Biso   1.000  H
  H58      1.0000 0.14800  0.70160  0.59800  Biso   1.000  H
  C41      1.0000 0.54610  0.45780  0.35509  Biso   1.000  C
  C42      1.0000 0.45390  0.54220  0.64491  Biso   1.000  C
  H59      1.0000 0.47790  0.44720  0.32050  Biso   1.000  H
  H60      1.0000 0.52210  0.55280  0.67950  Biso   1.000  H
  H61      1.0000 0.63950  0.47970  0.32380  Biso   1.000  H
  H62      1.0000 0.36050  0.52030  0.67620  Biso   1.000  H
  C43      1.0000 0.44510  0.57700  0.39970  Biso   1.000  C
  C44      1.0000 0.55490  0.42300  0.60030  Biso   1.000  C
  H63      1.0000 0.40660  0.66120  0.36460  Biso   1.000  H
  H64      1.0000 0.59340  0.33880  0.63540  Biso   1.000  H
  H65      1.0000 0.51260  0.58960  0.43320  Biso   1.000  H
  H66      1.0000 0.48740  0.41040  0.56680  Biso   1.000  H
  H67      1.0000 0.35100  0.55700  0.43000  Biso   1.000  H
  H68      1.0000 0.64900  0.44300  0.57000  Biso   1.000  H
  C45      1.0000 0.07830  0.31030  0.48659  Biso   1.000  C
  C46      1.0000 0.92170  0.68970  0.51341  Biso   1.000  C
  C47      1.0000 0.93780  0.54550  0.40090  Biso   1.000  C
  C48      1.0000 0.06220  0.45450  0.59910  Biso   1.000  C
