data_image0
_cell_length_a       8.8153
_cell_length_b       12.9316
_cell_length_c       13.1313
_cell_angle_alpha    90
_cell_angle_beta     92.685
_cell_angle_gamma    90

_symmetry_space_group_name_H-M    "P 1"
_symmetry_int_tables_number       1

loop_
  _symmetry_equiv_pos_as_xyz
  'x, y, z'

loop_
  _atom_site_label
  _atom_site_occupancy
  _atom_site_fract_x
  _atom_site_fract_y
  _atom_site_fract_z
  _atom_site_thermal_displace_type
  _atom_site_B_iso_or_equiv
  _atom_site_type_symbol
  Cu1      1.0000 0.98741  0.30502  0.83960  Biso   1.000  Cu
  Cu2      1.0000 0.51259  0.80502  0.66040  Biso   1.000  Cu
  Cu3      1.0000 0.01259  0.69498  0.16040  Biso   1.000  Cu
  Cu4      1.0000 0.48741  0.19498  0.33960  Biso   1.000  Cu
  C1       1.0000 0.97670  0.31280  0.15640  Biso   1.000  C
  C2       1.0000 0.52330  0.81280  0.34360  Biso   1.000  C
  C3       1.0000 0.02330  0.68720  0.84360  Biso   1.000  C
  C4       1.0000 0.47670  0.18720  0.65640  Biso   1.000  C
  H1       1.0000 0.94170  0.29070  0.21850  Biso   1.000  H
  H2       1.0000 0.55830  0.79070  0.28150  Biso   1.000  H
  H3       1.0000 0.05830  0.70930  0.78150  Biso   1.000  H
  H4       1.0000 0.44170  0.20930  0.71850  Biso   1.000  H
  C5       1.0000 0.08110  0.38950  0.14370  Biso   1.000  C
  C6       1.0000 0.41890  0.88950  0.35630  Biso   1.000  C
  C7       1.0000 0.91890  0.61050  0.85630  Biso   1.000  C
  C8       1.0000 0.58110  0.11050  0.64370  Biso   1.000  C
  H5       1.0000 0.13030  0.42960  0.19390  Biso   1.000  H
  H6       1.0000 0.36970  0.92960  0.30610  Biso   1.000  H
  H7       1.0000 0.86970  0.57040  0.80610  Biso   1.000  H
  H8       1.0000 0.63030  0.07040  0.69390  Biso   1.000  H
  C9       1.0000 0.09700  0.39400  0.03990  Biso   1.000  C
  C10      1.0000 0.40300  0.89400  0.46010  Biso   1.000  C
  C11      1.0000 0.90300  0.60600  0.96010  Biso   1.000  C
  C12      1.0000 0.59700  0.10600  0.53990  Biso   1.000  C
  H9       1.0000 0.16030  0.44030  0.00820  Biso   1.000  H
  H10      1.0000 0.33970  0.94030  0.49180  Biso   1.000  H
  H11      1.0000 0.83970  0.55970  0.99180  Biso   1.000  H
  H12      1.0000 0.66030  0.05970  0.50820  Biso   1.000  H
  C13      1.0000 0.98840  0.16400  0.55180  Biso   1.000  C
  C14      1.0000 0.51160  0.66400  0.94820  Biso   1.000  C
  C15      1.0000 0.01160  0.83600  0.44820  Biso   1.000  C
  C16      1.0000 0.48840  0.33600  0.05180  Biso   1.000  C
  H13      1.0000 0.96680  0.15960  0.48190  Biso   1.000  H
  H14      1.0000 0.53320  0.65960  0.01810  Biso   1.000  H
  H15      1.0000 0.03320  0.84040  0.51810  Biso   1.000  H
  H16      1.0000 0.46680  0.34040  0.98190  Biso   1.000  H
  C17      1.0000 0.07690  0.09690  0.60860  Biso   1.000  C
  C18      1.0000 0.42310  0.59690  0.89140  Biso   1.000  C
  C19      1.0000 0.92310  0.90310  0.39140  Biso   1.000  C
  C20      1.0000 0.57690  0.40310  0.10860  Biso   1.000  C
  H17      1.0000 0.12680  0.03840  0.58620  Biso   1.000  H
  H18      1.0000 0.37320  0.53840  0.91380  Biso   1.000  H
  H19      1.0000 0.87320  0.96160  0.41380  Biso   1.000  H
  H20      1.0000 0.62680  0.46160  0.08620  Biso   1.000  H
  C21      1.0000 0.07590  0.13510  0.70630  Biso   1.000  C
  C22      1.0000 0.42410  0.63510  0.79370  Biso   1.000  C
  C23      1.0000 0.92410  0.86490  0.29370  Biso   1.000  C
  C24      1.0000 0.57590  0.36490  0.20630  Biso   1.000  C
  H21      1.0000 0.12740  0.10500  0.76210  Biso   1.000  H
  H22      1.0000 0.37260  0.60500  0.73790  Biso   1.000  H
  H23      1.0000 0.87260  0.89500  0.23790  Biso   1.000  H
  H24      1.0000 0.62740  0.39500  0.26210  Biso   1.000  H
  C25      1.0000 0.83280  0.18730  0.04280  Biso   1.000  C
  C26      1.0000 0.66720  0.68730  0.45720  Biso   1.000  C
  C27      1.0000 0.16720  0.81270  0.95720  Biso   1.000  C
  C28      1.0000 0.33280  0.31270  0.54280  Biso   1.000  C
  H25      1.0000 0.76570  0.20410  0.98450  Biso   1.000  H
  H26      1.0000 0.73430  0.70410  0.51550  Biso   1.000  H
  H27      1.0000 0.23430  0.79590  0.01550  Biso   1.000  H
  H28      1.0000 0.26570  0.29590  0.48450  Biso   1.000  H
  H29      1.0000 0.77050  0.17550  0.10070  Biso   1.000  H
  H30      1.0000 0.72950  0.67550  0.39930  Biso   1.000  H
  H31      1.0000 0.22950  0.82450  0.89930  Biso   1.000  H
  H32      1.0000 0.27050  0.32450  0.60070  Biso   1.000  H
  C29      1.0000 0.91870  0.09020  0.02070  Biso   1.000  C
  C30      1.0000 0.58130  0.59020  0.47930  Biso   1.000  C
  C31      1.0000 0.08130  0.90980  0.97930  Biso   1.000  C
  C32      1.0000 0.41870  0.40980  0.52070  Biso   1.000  C
  C33      1.0000 0.00730  0.04150  0.09620  Biso   1.000  C
  C34      1.0000 0.49270  0.54150  0.40380  Biso   1.000  C
  C35      1.0000 0.99270  0.95850  0.90380  Biso   1.000  C
  C36      1.0000 0.50730  0.45850  0.59620  Biso   1.000  C
  H33      1.0000 0.01320  0.06900  0.16170  Biso   1.000  H
  H34      1.0000 0.48680  0.56900  0.33830  Biso   1.000  H
  H35      1.0000 0.98680  0.93100  0.83830  Biso   1.000  H
  H36      1.0000 0.51320  0.43100  0.66170  Biso   1.000  H
  C37      1.0000 0.91300  0.04730  0.92440  Biso   1.000  C
  C38      1.0000 0.58700  0.54730  0.57560  Biso   1.000  C
  C39      1.0000 0.08700  0.95270  0.07560  Biso   1.000  C
  C40      1.0000 0.41300  0.45270  0.42440  Biso   1.000  C
  H37      1.0000 0.85450  0.07890  0.87240  Biso   1.000  H
  H38      1.0000 0.64550  0.57890  0.62760  Biso   1.000  H
  H39      1.0000 0.14550  0.92110  0.12760  Biso   1.000  H
  H40      1.0000 0.35450  0.42110  0.37240  Biso   1.000  H
  C41      1.0000 0.84110  0.32450  0.58400  Biso   1.000  C
  C42      1.0000 0.65890  0.82450  0.91600  Biso   1.000  C
  C43      1.0000 0.15890  0.67550  0.41600  Biso   1.000  C
  C44      1.0000 0.34110  0.17550  0.08400  Biso   1.000  C
  H41      1.0000 0.78830  0.34760  0.64310  Biso   1.000  H
  H42      1.0000 0.71170  0.84760  0.85690  Biso   1.000  H
  H43      1.0000 0.21170  0.65240  0.35690  Biso   1.000  H
  H44      1.0000 0.28830  0.15240  0.14310  Biso   1.000  H
  H45      1.0000 0.76520  0.30130  0.53320  Biso   1.000  H
  H46      1.0000 0.73480  0.80130  0.96680  Biso   1.000  H
  H47      1.0000 0.23480  0.69870  0.46680  Biso   1.000  H
  H48      1.0000 0.26520  0.19870  0.03320  Biso   1.000  H
  C45      1.0000 0.92600  0.41520  0.54130  Biso   1.000  C
  C46      1.0000 0.57400  0.91520  0.95870  Biso   1.000  C
  C47      1.0000 0.07400  0.58480  0.45870  Biso   1.000  C
  C48      1.0000 0.42600  0.08480  0.04130  Biso   1.000  C
  C49      1.0000 0.91990  0.43330  0.43730  Biso   1.000  C
  C50      1.0000 0.58010  0.93330  0.06270  Biso   1.000  C
  C51      1.0000 0.08010  0.56670  0.56270  Biso   1.000  C
  C52      1.0000 0.41990  0.06670  0.93730  Biso   1.000  C
  H49      1.0000 0.86570  0.38830  0.39410  Biso   1.000  H
  H50      1.0000 0.63430  0.88830  0.10590  Biso   1.000  H
  H51      1.0000 0.13430  0.61170  0.60590  Biso   1.000  H
  H52      1.0000 0.36570  0.11170  0.89410  Biso   1.000  H
  C53      1.0000 0.00700  0.48290  0.60320  Biso   1.000  C
  C54      1.0000 0.49300  0.98290  0.89680  Biso   1.000  C
  C55      1.0000 0.99300  0.51710  0.39680  Biso   1.000  C
  C56      1.0000 0.50700  0.01710  0.10320  Biso   1.000  C
  H53      1.0000 0.01280  0.47230  0.67330  Biso   1.000  H
  H54      1.0000 0.48720  0.97230  0.82670  Biso   1.000  H
  H55      1.0000 0.98720  0.52770  0.32670  Biso   1.000  H
  H56      1.0000 0.51280  0.02770  0.17330  Biso   1.000  H
  N1       1.0000 0.01060  0.32406  0.99080  Biso   1.000  N
  N2       1.0000 0.48940  0.82406  0.50920  Biso   1.000  N
  N3       1.0000 0.98940  0.67594  0.00920  Biso   1.000  N
  N4       1.0000 0.51060  0.17594  0.49080  Biso   1.000  N
  N5       1.0000 0.93350  0.27475  0.06497  Biso   1.000  N
  N6       1.0000 0.56650  0.77475  0.43503  Biso   1.000  N
  N7       1.0000 0.06650  0.72525  0.93503  Biso   1.000  N
  N8       1.0000 0.43350  0.22525  0.56497  Biso   1.000  N
  N9       1.0000 0.99180  0.22077  0.71104  Biso   1.000  N
  N10      1.0000 0.50820  0.72077  0.78896  Biso   1.000  N
  N11      1.0000 0.00820  0.77923  0.28896  Biso   1.000  N
  N12      1.0000 0.49180  0.27923  0.21104  Biso   1.000  N
  N13      1.0000 0.93790  0.23747  0.61374  Biso   1.000  N
  N14      1.0000 0.56210  0.73747  0.88626  Biso   1.000  N
  N15      1.0000 0.06210  0.76253  0.38626  Biso   1.000  N
  N16      1.0000 0.43790  0.26253  0.11374  Biso   1.000  N
  Cl1      1.0000 0.23223  0.34807  0.82116  Biso   1.000  Cl
  Cl2      1.0000 0.26777  0.84807  0.67884  Biso   1.000  Cl
  Cl3      1.0000 0.76777  0.65193  0.17884  Biso   1.000  Cl
  Cl4      1.0000 0.73223  0.15193  0.32116  Biso   1.000  Cl
  Cl5      1.0000 0.74108  0.34524  0.83314  Biso   1.000  Cl
  Cl6      1.0000 0.75892  0.84524  0.66686  Biso   1.000  Cl
  Cl7      1.0000 0.25892  0.65476  0.16686  Biso   1.000  Cl
  Cl8      1.0000 0.24108  0.15476  0.33314  Biso   1.000  Cl
