data_image0
_cell_length_a       14.723
_cell_length_b       8.4311
_cell_length_c       17.514
_cell_angle_alpha    90
_cell_angle_beta     114.14
_cell_angle_gamma    90

_symmetry_space_group_name_H-M    "P 1"
_symmetry_int_tables_number       1

loop_
  _symmetry_equiv_pos_as_xyz
  'x, y, z'

loop_
  _atom_site_label
  _atom_site_occupancy
  _atom_site_fract_x
  _atom_site_fract_y
  _atom_site_fract_z
  _atom_site_thermal_displace_type
  _atom_site_B_iso_or_equiv
  _atom_site_type_symbol
  C1       1.0000 0.44690  0.20500  0.45540  Biso   1.000  C
  C2       1.0000 0.55310  0.20500  0.04460  Biso   1.000  C
  C3       1.0000 0.94690  0.70500  0.45540  Biso   1.000  C
  C4       1.0000 0.05310  0.70500  0.04460  Biso   1.000  C
  C5       1.0000 0.55310  0.79500  0.54460  Biso   1.000  C
  C6       1.0000 0.44690  0.79500  0.95540  Biso   1.000  C
  C7       1.0000 0.05310  0.29500  0.54460  Biso   1.000  C
  C8       1.0000 0.94690  0.29500  0.95540  Biso   1.000  C
  H1       1.0000 0.44950  0.18190  0.51000  Biso   1.000  H
  H2       1.0000 0.55050  0.18190  0.99000  Biso   1.000  H
  H3       1.0000 0.94950  0.68190  0.51000  Biso   1.000  H
  H4       1.0000 0.05050  0.68190  0.99000  Biso   1.000  H
  H5       1.0000 0.55050  0.81810  0.49000  Biso   1.000  H
  H6       1.0000 0.44950  0.81810  0.01000  Biso   1.000  H
  H7       1.0000 0.05050  0.31810  0.49000  Biso   1.000  H
  H8       1.0000 0.94950  0.31810  0.01000  Biso   1.000  H
  H9       1.0000 0.51310  0.22140  0.45920  Biso   1.000  H
  H10      1.0000 0.48690  0.22140  0.04080  Biso   1.000  H
  H11      1.0000 0.01310  0.72140  0.45920  Biso   1.000  H
  H12      1.0000 0.98690  0.72140  0.04080  Biso   1.000  H
  H13      1.0000 0.48690  0.77860  0.54080  Biso   1.000  H
  H14      1.0000 0.51310  0.77860  0.95920  Biso   1.000  H
  H15      1.0000 0.98690  0.27860  0.54080  Biso   1.000  H
  H16      1.0000 0.01310  0.27860  0.95920  Biso   1.000  H
  H17      1.0000 0.41680  0.11760  0.41860  Biso   1.000  H
  H18      1.0000 0.58320  0.11760  0.08140  Biso   1.000  H
  H19      1.0000 0.91680  0.61760  0.41860  Biso   1.000  H
  H20      1.0000 0.08320  0.61760  0.08140  Biso   1.000  H
  H21      1.0000 0.58320  0.88240  0.58140  Biso   1.000  H
  H22      1.0000 0.41680  0.88240  0.91860  Biso   1.000  H
  H23      1.0000 0.08320  0.38240  0.58140  Biso   1.000  H
  H24      1.0000 0.91680  0.38240  0.91860  Biso   1.000  H
  C9       1.0000 0.38632  0.35160  0.42190  Biso   1.000  C
  C10      1.0000 0.61368  0.35160  0.07810  Biso   1.000  C
  C11      1.0000 0.88632  0.85160  0.42190  Biso   1.000  C
  C12      1.0000 0.11368  0.85160  0.07810  Biso   1.000  C
  C13      1.0000 0.61368  0.64840  0.57810  Biso   1.000  C
  C14      1.0000 0.38632  0.64840  0.92190  Biso   1.000  C
  C15      1.0000 0.11368  0.14840  0.57810  Biso   1.000  C
  C16      1.0000 0.88632  0.14840  0.92190  Biso   1.000  C
  C17      1.0000 0.40280  0.47590  0.37711  Biso   1.000  C
  C18      1.0000 0.59720  0.47590  0.12289  Biso   1.000  C
  C19      1.0000 0.90280  0.97590  0.37711  Biso   1.000  C
  C20      1.0000 0.09720  0.97590  0.12289  Biso   1.000  C
  C21      1.0000 0.59720  0.52410  0.62289  Biso   1.000  C
  C22      1.0000 0.40280  0.52410  0.87711  Biso   1.000  C
  C23      1.0000 0.09720  0.02410  0.62289  Biso   1.000  C
  C24      1.0000 0.90280  0.02410  0.87711  Biso   1.000  C
  H25      1.0000 0.45510  0.48510  0.36060  Biso   1.000  H
  H26      1.0000 0.54490  0.48510  0.13940  Biso   1.000  H
  H27      1.0000 0.95510  0.98510  0.36060  Biso   1.000  H
  H28      1.0000 0.04490  0.98510  0.13940  Biso   1.000  H
  H29      1.0000 0.54490  0.51490  0.63940  Biso   1.000  H
  H30      1.0000 0.45510  0.51490  0.86060  Biso   1.000  H
  H31      1.0000 0.04490  0.01490  0.63940  Biso   1.000  H
  H32      1.0000 0.95510  0.01490  0.86060  Biso   1.000  H
  C25      1.0000 0.32706  0.58230  0.36195  Biso   1.000  C
  C26      1.0000 0.67294  0.58230  0.13805  Biso   1.000  C
  C27      1.0000 0.82706  0.08230  0.36195  Biso   1.000  C
  C28      1.0000 0.17294  0.08230  0.13805  Biso   1.000  C
  C29      1.0000 0.67294  0.41770  0.63805  Biso   1.000  C
  C30      1.0000 0.32706  0.41770  0.86195  Biso   1.000  C
  C31      1.0000 0.17294  0.91770  0.63805  Biso   1.000  C
  C32      1.0000 0.82706  0.91770  0.86195  Biso   1.000  C
  C33      1.0000 0.30530  0.73700  0.31620  Biso   1.000  C
  C34      1.0000 0.69470  0.73700  0.18380  Biso   1.000  C
  C35      1.0000 0.80530  0.23700  0.31620  Biso   1.000  C
  C36      1.0000 0.19470  0.23700  0.18380  Biso   1.000  C
  C37      1.0000 0.69470  0.26300  0.68380  Biso   1.000  C
  C38      1.0000 0.30530  0.26300  0.81620  Biso   1.000  C
  C39      1.0000 0.19470  0.76300  0.68380  Biso   1.000  C
  C40      1.0000 0.80530  0.76300  0.81620  Biso   1.000  C
  H33      1.0000 0.36190  0.76910  0.30600  Biso   1.000  H
  H34      1.0000 0.63810  0.76910  0.19400  Biso   1.000  H
  H35      1.0000 0.86190  0.26910  0.30600  Biso   1.000  H
  H36      1.0000 0.13810  0.26910  0.19400  Biso   1.000  H
  H37      1.0000 0.63810  0.23090  0.69400  Biso   1.000  H
  H38      1.0000 0.36190  0.23090  0.80600  Biso   1.000  H
  H39      1.0000 0.13810  0.73090  0.69400  Biso   1.000  H
  H40      1.0000 0.86190  0.73090  0.80600  Biso   1.000  H
  H41      1.0000 0.29140  0.81610  0.34950  Biso   1.000  H
  H42      1.0000 0.70860  0.81610  0.15050  Biso   1.000  H
  H43      1.0000 0.79140  0.31610  0.34950  Biso   1.000  H
  H44      1.0000 0.20860  0.31610  0.15050  Biso   1.000  H
  H45      1.0000 0.70860  0.18390  0.65050  Biso   1.000  H
  H46      1.0000 0.29140  0.18390  0.84950  Biso   1.000  H
  H47      1.0000 0.20860  0.68390  0.65050  Biso   1.000  H
  H48      1.0000 0.79140  0.68390  0.84950  Biso   1.000  H
  H49      1.0000 0.24860  0.72520  0.26390  Biso   1.000  H
  H50      1.0000 0.75140  0.72520  0.23610  Biso   1.000  H
  H51      1.0000 0.74860  0.22520  0.26390  Biso   1.000  H
  H52      1.0000 0.25140  0.22520  0.23610  Biso   1.000  H
  H53      1.0000 0.75140  0.27480  0.73610  Biso   1.000  H
  H54      1.0000 0.24860  0.27480  0.76390  Biso   1.000  H
  H55      1.0000 0.25140  0.77480  0.73610  Biso   1.000  H
  H56      1.0000 0.74860  0.77480  0.76390  Biso   1.000  H
  C41      1.0000 0.18149  0.59450  0.40298  Biso   1.000  C
  C42      1.0000 0.81851  0.59450  0.09702  Biso   1.000  C
  C43      1.0000 0.68149  0.09450  0.40298  Biso   1.000  C
  C44      1.0000 0.31851  0.09450  0.09702  Biso   1.000  C
  C45      1.0000 0.81851  0.40550  0.59702  Biso   1.000  C
  C46      1.0000 0.18149  0.40550  0.90298  Biso   1.000  C
  C47      1.0000 0.31851  0.90550  0.59702  Biso   1.000  C
  C48      1.0000 0.68149  0.90550  0.90298  Biso   1.000  C
  H57      1.0000 0.19670  0.70440  0.41980  Biso   1.000  H
  H58      1.0000 0.80330  0.70440  0.08020  Biso   1.000  H
  H59      1.0000 0.69670  0.20440  0.41980  Biso   1.000  H
  H60      1.0000 0.30330  0.20440  0.08020  Biso   1.000  H
  H61      1.0000 0.80330  0.29560  0.58020  Biso   1.000  H
  H62      1.0000 0.19670  0.29560  0.91980  Biso   1.000  H
  H63      1.0000 0.30330  0.79560  0.58020  Biso   1.000  H
  H64      1.0000 0.69670  0.79560  0.91980  Biso   1.000  H
  H65      1.0000 0.16830  0.54090  0.44640  Biso   1.000  H
  H66      1.0000 0.83170  0.54090  0.05360  Biso   1.000  H
  H67      1.0000 0.66830  0.04090  0.44640  Biso   1.000  H
  H68      1.0000 0.33170  0.04090  0.05360  Biso   1.000  H
  H69      1.0000 0.83170  0.45910  0.55360  Biso   1.000  H
  H70      1.0000 0.16830  0.45910  0.94640  Biso   1.000  H
  H71      1.0000 0.33170  0.95910  0.55360  Biso   1.000  H
  H72      1.0000 0.66830  0.95910  0.94640  Biso   1.000  H
  C49      1.0000 0.08811  0.58920  0.32245  Biso   1.000  C
  C50      1.0000 0.91189  0.58920  0.17755  Biso   1.000  C
  C51      1.0000 0.58811  0.08920  0.32245  Biso   1.000  C
  C52      1.0000 0.41189  0.08920  0.17755  Biso   1.000  C
  C53      1.0000 0.91189  0.41080  0.67755  Biso   1.000  C
  C54      1.0000 0.08811  0.41080  0.82245  Biso   1.000  C
  C55      1.0000 0.41189  0.91080  0.67755  Biso   1.000  C
  C56      1.0000 0.58811  0.91080  0.82245  Biso   1.000  C
  C57      1.0000 0.04397  0.44730  0.28623  Biso   1.000  C
  C58      1.0000 0.95603  0.44730  0.21377  Biso   1.000  C
  C59      1.0000 0.54397  0.94730  0.28623  Biso   1.000  C
  C60      1.0000 0.45603  0.94730  0.21377  Biso   1.000  C
  C61      1.0000 0.95603  0.55270  0.71377  Biso   1.000  C
  C62      1.0000 0.04397  0.55270  0.78623  Biso   1.000  C
  C63      1.0000 0.45603  0.05270  0.71377  Biso   1.000  C
  C64      1.0000 0.54397  0.05270  0.78623  Biso   1.000  C
  H73      1.0000 0.07310  0.35170  0.31030  Biso   1.000  H
  H74      1.0000 0.92690  0.35170  0.18970  Biso   1.000  H
  H75      1.0000 0.57310  0.85170  0.31030  Biso   1.000  H
  H76      1.0000 0.42690  0.85170  0.18970  Biso   1.000  H
  H77      1.0000 0.92690  0.64830  0.68970  Biso   1.000  H
  H78      1.0000 0.07310  0.64830  0.81030  Biso   1.000  H
  H79      1.0000 0.42690  0.14830  0.68970  Biso   1.000  H
  H80      1.0000 0.57310  0.14830  0.81030  Biso   1.000  H
  C65      1.0000 0.04390  0.73000  0.28581  Biso   1.000  C
  C66      1.0000 0.95610  0.73000  0.21419  Biso   1.000  C
  C67      1.0000 0.54390  0.23000  0.28581  Biso   1.000  C
  C68      1.0000 0.45610  0.23000  0.21419  Biso   1.000  C
  C69      1.0000 0.95610  0.27000  0.71419  Biso   1.000  C
  C70      1.0000 0.04390  0.27000  0.78581  Biso   1.000  C
  C71      1.0000 0.45610  0.77000  0.71419  Biso   1.000  C
  C72      1.0000 0.54390  0.77000  0.78581  Biso   1.000  C
  H81      1.0000 0.07330  0.82580  0.30940  Biso   1.000  H
  H82      1.0000 0.92670  0.82580  0.19060  Biso   1.000  H
  H83      1.0000 0.57330  0.32580  0.30940  Biso   1.000  H
  H84      1.0000 0.42670  0.32580  0.19060  Biso   1.000  H
  H85      1.0000 0.92670  0.17420  0.69060  Biso   1.000  H
  H86      1.0000 0.07330  0.17420  0.80940  Biso   1.000  H
  H87      1.0000 0.42670  0.67420  0.69060  Biso   1.000  H
  H88      1.0000 0.57330  0.67420  0.80940  Biso   1.000  H
  N1       1.0000 0.26888  0.52190  0.39749  Biso   1.000  N
  N2       1.0000 0.73112  0.52190  0.10251  Biso   1.000  N
  N3       1.0000 0.76888  0.02190  0.39749  Biso   1.000  N
  N4       1.0000 0.23112  0.02190  0.10251  Biso   1.000  N
  N5       1.0000 0.73112  0.47810  0.60251  Biso   1.000  N
  N6       1.0000 0.26888  0.47810  0.89749  Biso   1.000  N
  N7       1.0000 0.23112  0.97810  0.60251  Biso   1.000  N
  N8       1.0000 0.76888  0.97810  0.89749  Biso   1.000  N
  N9       1.0000 0.30443  0.37930  0.43431  Biso   1.000  N
  N10      1.0000 0.69557  0.37930  0.06569  Biso   1.000  N
  N11      1.0000 0.80443  0.87930  0.43431  Biso   1.000  N
  N12      1.0000 0.19557  0.87930  0.06569  Biso   1.000  N
  N13      1.0000 0.69557  0.62070  0.56569  Biso   1.000  N
  N14      1.0000 0.30443  0.62070  0.93431  Biso   1.000  N
  N15      1.0000 0.19557  0.12070  0.56569  Biso   1.000  N
  N16      1.0000 0.80443  0.12070  0.93431  Biso   1.000  N
  Cu1      1.0000 0.25000  0.25000  0.50000  Biso   1.000  Cu
  Cu2      1.0000 0.75000  0.25000  0.00000  Biso   1.000  Cu
  Cu3      1.0000 0.75000  0.75000  0.50000  Biso   1.000  Cu
  Cu4      1.0000 0.25000  0.75000  0.00000  Biso   1.000  Cu
  Cl1      1.0000 0.18490  0.07699  0.39341  Biso   1.000  Cl
  Cl2      1.0000 0.81510  0.07699  0.10659  Biso   1.000  Cl
  Cl3      1.0000 0.68490  0.57699  0.39341  Biso   1.000  Cl
  Cl4      1.0000 0.31510  0.57699  0.10659  Biso   1.000  Cl
  Cl5      1.0000 0.81510  0.92301  0.60659  Biso   1.000  Cl
  Cl6      1.0000 0.18490  0.92301  0.89341  Biso   1.000  Cl
  Cl7      1.0000 0.31510  0.42301  0.60659  Biso   1.000  Cl
  Cl8      1.0000 0.68490  0.42301  0.89341  Biso   1.000  Cl
