data_image0
_cell_length_a       23.392
_cell_length_b       13.199
_cell_length_c       20.547
_cell_angle_alpha    90
_cell_angle_beta     90
_cell_angle_gamma    90

_symmetry_space_group_name_H-M    "P 1"
_symmetry_int_tables_number       1

loop_
  _symmetry_equiv_pos_as_xyz
  'x, y, z'

loop_
  _atom_site_label
  _atom_site_occupancy
  _atom_site_fract_x
  _atom_site_fract_y
  _atom_site_fract_z
  _atom_site_thermal_displace_type
  _atom_site_B_iso_or_equiv
  _atom_site_type_symbol
  C1       1.0000 0.03860  0.19360  0.73550  Biso   1.000  C
  C2       1.0000 0.96140  0.80640  0.23550  Biso   1.000  C
  C3       1.0000 0.46140  0.69360  0.23550  Biso   1.000  C
  C4       1.0000 0.53860  0.30640  0.73550  Biso   1.000  C
  C5       1.0000 0.05180  0.08810  0.74560  Biso   1.000  C
  C6       1.0000 0.94820  0.91190  0.24560  Biso   1.000  C
  C7       1.0000 0.44820  0.58810  0.24560  Biso   1.000  C
  C8       1.0000 0.55180  0.41190  0.74560  Biso   1.000  C
  C9       1.0000 0.04510  0.01560  0.70160  Biso   1.000  C
  C10      1.0000 0.95490  0.98440  0.20160  Biso   1.000  C
  C11      1.0000 0.45490  0.51560  0.20160  Biso   1.000  C
  C12      1.0000 0.54510  0.48440  0.70160  Biso   1.000  C
  C13      1.0000 0.02310  0.04060  0.64500  Biso   1.000  C
  C14      1.0000 0.97690  0.95940  0.14500  Biso   1.000  C
  C15      1.0000 0.47690  0.54060  0.14500  Biso   1.000  C
  C16      1.0000 0.52310  0.45940  0.64500  Biso   1.000  C
  C17      1.0000 0.01080  0.14130  0.62990  Biso   1.000  C
  C18      1.0000 0.98920  0.85870  0.12990  Biso   1.000  C
  C19      1.0000 0.48920  0.64130  0.12990  Biso   1.000  C
  C20      1.0000 0.51080  0.35870  0.62990  Biso   1.000  C
  C21      1.0000 0.01910  0.21890  0.67510  Biso   1.000  C
  C22      1.0000 0.98090  0.78110  0.17510  Biso   1.000  C
  C23      1.0000 0.48090  0.71890  0.17510  Biso   1.000  C
  C24      1.0000 0.51910  0.28110  0.67510  Biso   1.000  C
  C25      1.0000 0.00130  0.32250  0.66070  Biso   1.000  C
  C26      1.0000 0.99870  0.67750  0.16070  Biso   1.000  C
  C27      1.0000 0.49870  0.82250  0.16070  Biso   1.000  C
  C28      1.0000 0.50130  0.17750  0.66070  Biso   1.000  C
  C29      1.0000 0.97680  0.55050  0.72410  Biso   1.000  C
  C30      1.0000 0.02320  0.44950  0.22410  Biso   1.000  C
  C31      1.0000 0.52320  0.05050  0.22410  Biso   1.000  C
  C32      1.0000 0.47680  0.94950  0.72410  Biso   1.000  C
  C33      1.0000 0.95600  0.65440  0.71160  Biso   1.000  C
  C34      1.0000 0.04400  0.34560  0.21160  Biso   1.000  C
  C35      1.0000 0.54400  0.15440  0.21160  Biso   1.000  C
  C36      1.0000 0.45600  0.84560  0.71160  Biso   1.000  C
  C37      1.0000 0.93130  0.68040  0.65420  Biso   1.000  C
  C38      1.0000 0.06870  0.31960  0.15420  Biso   1.000  C
  C39      1.0000 0.56870  0.18040  0.15420  Biso   1.000  C
  C40      1.0000 0.43130  0.81960  0.65420  Biso   1.000  C
  C41      1.0000 0.91350  0.78160  0.64230  Biso   1.000  C
  C42      1.0000 0.08650  0.21840  0.14230  Biso   1.000  C
  C43      1.0000 0.58650  0.28160  0.14230  Biso   1.000  C
  C44      1.0000 0.41350  0.71840  0.64230  Biso   1.000  C
  C45      1.0000 0.92240  0.85300  0.69050  Biso   1.000  C
  C46      1.0000 0.07760  0.14700  0.19050  Biso   1.000  C
  C47      1.0000 0.57760  0.35300  0.19050  Biso   1.000  C
  C48      1.0000 0.42240  0.64700  0.69050  Biso   1.000  C
  C49      1.0000 0.94530  0.82740  0.74780  Biso   1.000  C
  C50      1.0000 0.05470  0.17260  0.24780  Biso   1.000  C
  C51      1.0000 0.55470  0.32740  0.24780  Biso   1.000  C
  C52      1.0000 0.44530  0.67260  0.74780  Biso   1.000  C
  C53      1.0000 0.96200  0.72570  0.75910  Biso   1.000  C
  C54      1.0000 0.03800  0.27430  0.25910  Biso   1.000  C
  C55      1.0000 0.53800  0.22570  0.25910  Biso   1.000  C
  C56      1.0000 0.46200  0.77430  0.75910  Biso   1.000  C
  C57      1.0000 0.89560  0.26180  0.78900  Biso   1.000  C
  C58      1.0000 0.10440  0.73820  0.28900  Biso   1.000  C
  C59      1.0000 0.60440  0.76180  0.28900  Biso   1.000  C
  C60      1.0000 0.39560  0.23820  0.78900  Biso   1.000  C
  C61      1.0000 0.86840  0.32770  0.74540  Biso   1.000  C
  C62      1.0000 0.13160  0.67230  0.24540  Biso   1.000  C
  C63      1.0000 0.63160  0.82770  0.24540  Biso   1.000  C
  C64      1.0000 0.36840  0.17230  0.74540  Biso   1.000  C
  C65      1.0000 0.83060  0.29890  0.69850  Biso   1.000  C
  C66      1.0000 0.16940  0.70110  0.19850  Biso   1.000  C
  C67      1.0000 0.66940  0.79890  0.19850  Biso   1.000  C
  C68      1.0000 0.33060  0.20110  0.69850  Biso   1.000  C
  C69      1.0000 0.81350  0.19610  0.69500  Biso   1.000  C
  C70      1.0000 0.18650  0.80390  0.19500  Biso   1.000  C
  C71      1.0000 0.68650  0.69610  0.19500  Biso   1.000  C
  C72      1.0000 0.31350  0.30390  0.69500  Biso   1.000  C
  C73      1.0000 0.83900  0.12810  0.73730  Biso   1.000  C
  C74      1.0000 0.16100  0.87190  0.23730  Biso   1.000  C
  C75      1.0000 0.66100  0.62810  0.23730  Biso   1.000  C
  C76      1.0000 0.33900  0.37190  0.73730  Biso   1.000  C
  C77      1.0000 0.88060  0.15970  0.78430  Biso   1.000  C
  C78      1.0000 0.11940  0.84030  0.28430  Biso   1.000  C
  C79      1.0000 0.61940  0.65970  0.28430  Biso   1.000  C
  C80      1.0000 0.38060  0.34030  0.78430  Biso   1.000  C
  C81      1.0000 0.90550  0.07950  0.82330  Biso   1.000  C
  C82      1.0000 0.09450  0.92050  0.32330  Biso   1.000  C
  C83      1.0000 0.59450  0.57950  0.32330  Biso   1.000  C
  C84      1.0000 0.40550  0.42050  0.82330  Biso   1.000  C
  C85      1.0000 0.01370  0.03440  0.92450  Biso   1.000  C
  C86      1.0000 0.98630  0.96560  0.42450  Biso   1.000  C
  C87      1.0000 0.48630  0.53440  0.42450  Biso   1.000  C
  C88      1.0000 0.51370  0.46560  0.92450  Biso   1.000  C
  C89      1.0000 0.04650  0.95210  0.95450  Biso   1.000  C
  C90      1.0000 0.95350  0.04790  0.45450  Biso   1.000  C
  C91      1.0000 0.45350  0.45210  0.45450  Biso   1.000  C
  C92      1.0000 0.54650  0.54790  0.95450  Biso   1.000  C
  C93      1.0000 0.04460  0.85310  0.93650  Biso   1.000  C
  C94      1.0000 0.95540  0.14690  0.43650  Biso   1.000  C
  C95      1.0000 0.45540  0.35310  0.43650  Biso   1.000  C
  C96      1.0000 0.54460  0.64690  0.93650  Biso   1.000  C
  C97      1.0000 0.07890  0.78060  0.96750  Biso   1.000  C
  C98      1.0000 0.92110  0.21940  0.46750  Biso   1.000  C
  C99      1.0000 0.42110  0.28060  0.46750  Biso   1.000  C
  C100     1.0000 0.57890  0.71940  0.96750  Biso   1.000  C
  C101     1.0000 0.11450  0.80590  0.01580  Biso   1.000  C
  C102     1.0000 0.88550  0.19410  0.51580  Biso   1.000  C
  C103     1.0000 0.38550  0.30590  0.51580  Biso   1.000  C
  C104     1.0000 0.61450  0.69410  0.01580  Biso   1.000  C
  C105     1.0000 0.11990  0.90220  0.03060  Biso   1.000  C
  C106     1.0000 0.88010  0.09780  0.53060  Biso   1.000  C
  C107     1.0000 0.38010  0.40220  0.53060  Biso   1.000  C
  C108     1.0000 0.61990  0.59780  0.03060  Biso   1.000  C
  C109     1.0000 0.08810  0.97710  0.00550  Biso   1.000  C
  C110     1.0000 0.91190  0.02290  0.50550  Biso   1.000  C
  C111     1.0000 0.41190  0.47710  0.50550  Biso   1.000  C
  C112     1.0000 0.58810  0.52290  0.00550  Biso   1.000  C
  C113     1.0000 0.03520  0.36300  0.97940  Biso   1.000  C
  C114     1.0000 0.96480  0.63700  0.47940  Biso   1.000  C
  C115     1.0000 0.46480  0.86300  0.47940  Biso   1.000  C
  C116     1.0000 0.53520  0.13700  0.97940  Biso   1.000  C
  C117     1.0000 0.05980  0.45700  0.97910  Biso   1.000  C
  C118     1.0000 0.94020  0.54300  0.47910  Biso   1.000  C
  C119     1.0000 0.44020  0.95700  0.47910  Biso   1.000  C
  C120     1.0000 0.55980  0.04300  0.97910  Biso   1.000  C
  C121     1.0000 0.06020  0.47630  0.91340  Biso   1.000  C
  C122     1.0000 0.93980  0.52370  0.41340  Biso   1.000  C
  C123     1.0000 0.43980  0.97630  0.41340  Biso   1.000  C
  C124     1.0000 0.56020  0.02370  0.91340  Biso   1.000  C
  N1       1.0000 0.00220  0.39440  0.69820  Biso   1.000  N
  N2       1.0000 0.99780  0.60560  0.19820  Biso   1.000  N
  N3       1.0000 0.49780  0.89440  0.19820  Biso   1.000  N
  N4       1.0000 0.50220  0.10560  0.69820  Biso   1.000  N
  N5       1.0000 0.98150  0.48660  0.67410  Biso   1.000  N
  N6       1.0000 0.01850  0.51340  0.17410  Biso   1.000  N
  N7       1.0000 0.51850  0.98660  0.17410  Biso   1.000  N
  N8       1.0000 0.48150  0.01340  0.67410  Biso   1.000  N
  N9       1.0000 0.03590  0.40420  0.87790  Biso   1.000  N
  N10      1.0000 0.96410  0.59580  0.37790  Biso   1.000  N
  N11      1.0000 0.46410  0.90420  0.37790  Biso   1.000  N
  N12      1.0000 0.53590  0.09580  0.87790  Biso   1.000  N
  N13      1.0000 0.01990  0.33310  0.92060  Biso   1.000  N
  N14      1.0000 0.98010  0.66690  0.42060  Biso   1.000  N
  N15      1.0000 0.48010  0.83310  0.42060  Biso   1.000  N
  N16      1.0000 0.51990  0.16690  0.92060  Biso   1.000  N
  N17      1.0000 0.94570  0.09120  0.86120  Biso   1.000  N
  N18      1.0000 0.05430  0.90880  0.36120  Biso   1.000  N
  N19      1.0000 0.55430  0.59120  0.36120  Biso   1.000  N
  N20      1.0000 0.44570  0.40880  0.86120  Biso   1.000  N
  N21      1.0000 0.96860  0.00410  0.89040  Biso   1.000  N
  N22      1.0000 0.03140  0.99590  0.39040  Biso   1.000  N
  N23      1.0000 0.53140  0.50410  0.39040  Biso   1.000  N
  N24      1.0000 0.46860  0.49590  0.89040  Biso   1.000  N
  O1       1.0000 0.04950  0.25660  0.78550  Biso   1.000  O
  O2       1.0000 0.95050  0.74340  0.28550  Biso   1.000  O
  O3       1.0000 0.45050  0.75660  0.28550  Biso   1.000  O
  O4       1.0000 0.54950  0.24340  0.78550  Biso   1.000  O
  O5       1.0000 0.98630  0.52420  0.78400  Biso   1.000  O
  O6       1.0000 0.01370  0.47580  0.28400  Biso   1.000  O
  O7       1.0000 0.51370  0.02420  0.28400  Biso   1.000  O
  O8       1.0000 0.48630  0.97580  0.78400  Biso   1.000  O
  O9       1.0000 0.93160  0.29560  0.83400  Biso   1.000  O
  O10      1.0000 0.06840  0.70440  0.33400  Biso   1.000  O
  O11      1.0000 0.56840  0.79560  0.33400  Biso   1.000  O
  O12      1.0000 0.43160  0.20440  0.83400  Biso   1.000  O
  O13      1.0000 0.03080  0.12820  0.93230  Biso   1.000  O
  O14      1.0000 0.96920  0.87180  0.43230  Biso   1.000  O
  O15      1.0000 0.46920  0.62820  0.43230  Biso   1.000  O
  O16      1.0000 0.53080  0.37180  0.93230  Biso   1.000  O
  Cu1      1.0000 0.01870  0.39080  0.78820  Biso   1.000  Cu
  Cu2      1.0000 0.98130  0.60920  0.28820  Biso   1.000  Cu
  Cu3      1.0000 0.48130  0.89080  0.28820  Biso   1.000  Cu
  Cu4      1.0000 0.51870  0.10920  0.78820  Biso   1.000  Cu
  Cu5      1.0000 0.98120  0.21590  0.88580  Biso   1.000  Cu
  Cu6      1.0000 0.01880  0.78410  0.38580  Biso   1.000  Cu
  Cu7      1.0000 0.51880  0.71590  0.38580  Biso   1.000  Cu
  Cu8      1.0000 0.48120  0.28410  0.88580  Biso   1.000  Cu
  C125     1.0000 0.85860  0.31460  0.98860  Biso   1.000  C
  C126     1.0000 0.14140  0.68540  0.48860  Biso   1.000  C
  C127     1.0000 0.64140  0.81460  0.48860  Biso   1.000  C
  C128     1.0000 0.35860  0.18540  0.98860  Biso   1.000  C
  C129     1.0000 0.88500  0.37980  0.03060  Biso   1.000  C
  C130     1.0000 0.11500  0.62020  0.53060  Biso   1.000  C
  C131     1.0000 0.61500  0.87980  0.53060  Biso   1.000  C
  C132     1.0000 0.38500  0.12020  0.03060  Biso   1.000  C
  C133     1.0000 0.92120  0.35290  0.08170  Biso   1.000  C
  C134     1.0000 0.07880  0.64710  0.58170  Biso   1.000  C
  C135     1.0000 0.57880  0.85290  0.58170  Biso   1.000  C
  C136     1.0000 0.42120  0.14710  0.08170  Biso   1.000  C
  C137     1.0000 0.93030  0.25270  0.09230  Biso   1.000  C
  C138     1.0000 0.06970  0.74730  0.59230  Biso   1.000  C
  C139     1.0000 0.56970  0.75270  0.59230  Biso   1.000  C
  C140     1.0000 0.43030  0.24730  0.09230  Biso   1.000  C
  C141     1.0000 0.90610  0.17920  0.05190  Biso   1.000  C
  C142     1.0000 0.09390  0.82080  0.55190  Biso   1.000  C
  C143     1.0000 0.59390  0.67920  0.55190  Biso   1.000  C
  C144     1.0000 0.40610  0.32080  0.05190  Biso   1.000  C
  C145     1.0000 0.86990  0.20780  0.00020  Biso   1.000  C
  C146     1.0000 0.13010  0.79220  0.50020  Biso   1.000  C
  C147     1.0000 0.63010  0.70780  0.50020  Biso   1.000  C
  C148     1.0000 0.36990  0.29220  0.00020  Biso   1.000  C
  C149     1.0000 0.84340  0.12710  0.96420  Biso   1.000  C
  C150     1.0000 0.15660  0.87290  0.46420  Biso   1.000  C
  C151     1.0000 0.65660  0.62710  0.46420  Biso   1.000  C
  C152     1.0000 0.34340  0.37290  0.96420  Biso   1.000  C
  C153     1.0000 0.73850  0.07820  0.85520  Biso   1.000  C
  C154     1.0000 0.26150  0.92180  0.35520  Biso   1.000  C
  C155     1.0000 0.76150  0.57820  0.35520  Biso   1.000  C
  C156     1.0000 0.23850  0.42180  0.85520  Biso   1.000  C
  C157     1.0000 0.70410  0.99960  0.82420  Biso   1.000  C
  C158     1.0000 0.29590  0.00040  0.32420  Biso   1.000  C
  C159     1.0000 0.79590  0.49960  0.32420  Biso   1.000  C
  C160     1.0000 0.20410  0.50040  0.82420  Biso   1.000  C
  C161     1.0000 0.66790  0.02690  0.77460  Biso   1.000  C
  C162     1.0000 0.33210  0.97310  0.27460  Biso   1.000  C
  C163     1.0000 0.83210  0.52690  0.27460  Biso   1.000  C
  C164     1.0000 0.16790  0.47310  0.77460  Biso   1.000  C
  C165     1.0000 0.63690  0.95520  0.74330  Biso   1.000  C
  C166     1.0000 0.36310  0.04480  0.24330  Biso   1.000  C
  C167     1.0000 0.86310  0.45520  0.24330  Biso   1.000  C
  C168     1.0000 0.13690  0.54480  0.74330  Biso   1.000  C
  C169     1.0000 0.64200  0.85530  0.76070  Biso   1.000  C
  C170     1.0000 0.35800  0.14470  0.26070  Biso   1.000  C
  C171     1.0000 0.85800  0.35530  0.26070  Biso   1.000  C
  C172     1.0000 0.14200  0.64470  0.76070  Biso   1.000  C
  C173     1.0000 0.68070  0.82260  0.80860  Biso   1.000  C
  C174     1.0000 0.31930  0.17740  0.30860  Biso   1.000  C
  C175     1.0000 0.81930  0.32260  0.30860  Biso   1.000  C
  C176     1.0000 0.18070  0.67740  0.80860  Biso   1.000  C
  C177     1.0000 0.71150  0.89910  0.83930  Biso   1.000  C
  C178     1.0000 0.28850  0.10090  0.33930  Biso   1.000  C
  C179     1.0000 0.78850  0.39910  0.33930  Biso   1.000  C
  C180     1.0000 0.21150  0.60090  0.83930  Biso   1.000  C
  C181     1.0000 0.71230  0.24630  0.03900  Biso   1.000  C
  C182     1.0000 0.28770  0.75370  0.53900  Biso   1.000  C
  C183     1.0000 0.78770  0.74630  0.53900  Biso   1.000  C
  C184     1.0000 0.21230  0.25370  0.03900  Biso   1.000  C
  C185     1.0000 0.69630  0.14350  0.03180  Biso   1.000  C
  C186     1.0000 0.30370  0.85650  0.53180  Biso   1.000  C
  C187     1.0000 0.80370  0.64350  0.53180  Biso   1.000  C
  C188     1.0000 0.19630  0.35650  0.03180  Biso   1.000  C
  C189     1.0000 0.69890  0.07460  0.08390  Biso   1.000  C
  C190     1.0000 0.30110  0.92540  0.58390  Biso   1.000  C
  C191     1.0000 0.80110  0.57460  0.58390  Biso   1.000  C
  C192     1.0000 0.19890  0.42540  0.08390  Biso   1.000  C
  C193     1.0000 0.71750  0.10800  0.14420  Biso   1.000  C
  C194     1.0000 0.28250  0.89200  0.64420  Biso   1.000  C
  C195     1.0000 0.78250  0.60800  0.64420  Biso   1.000  C
  C196     1.0000 0.21750  0.39200  0.14420  Biso   1.000  C
  C197     1.0000 0.73570  0.20450  0.15050  Biso   1.000  C
  C198     1.0000 0.26430  0.79550  0.65050  Biso   1.000  C
  C199     1.0000 0.76430  0.70450  0.65050  Biso   1.000  C
  C200     1.0000 0.23570  0.29550  0.15050  Biso   1.000  C
  C201     1.0000 0.73450  0.27430  0.10090  Biso   1.000  C
  C202     1.0000 0.26550  0.72570  0.60090  Biso   1.000  C
  C203     1.0000 0.76550  0.77430  0.60090  Biso   1.000  C
  C204     1.0000 0.23450  0.22570  0.10090  Biso   1.000  C
  C205     1.0000 0.75310  0.37660  0.11710  Biso   1.000  C
  C206     1.0000 0.24690  0.62340  0.61710  Biso   1.000  C
  C207     1.0000 0.74690  0.87660  0.61710  Biso   1.000  C
  C208     1.0000 0.25310  0.12340  0.11710  Biso   1.000  C
  C209     1.0000 0.77810  0.60320  0.05030  Biso   1.000  C
  C210     1.0000 0.22190  0.39680  0.55030  Biso   1.000  C
  C211     1.0000 0.72190  0.10320  0.55030  Biso   1.000  C
  C212     1.0000 0.27810  0.89680  0.05030  Biso   1.000  C
  C213     1.0000 0.79470  0.71060  0.06130  Biso   1.000  C
  C214     1.0000 0.20530  0.28940  0.56130  Biso   1.000  C
  C215     1.0000 0.70530  0.21060  0.56130  Biso   1.000  C
  C216     1.0000 0.29470  0.78940  0.06130  Biso   1.000  C
  C217     1.0000 0.77760  0.78570  0.02130  Biso   1.000  C
  C218     1.0000 0.22240  0.21430  0.52130  Biso   1.000  C
  C219     1.0000 0.72240  0.28570  0.52130  Biso   1.000  C
  C220     1.0000 0.27760  0.71430  0.02130  Biso   1.000  C
  C221     1.0000 0.78970  0.88870  0.03460  Biso   1.000  C
  C222     1.0000 0.21030  0.11130  0.53460  Biso   1.000  C
  C223     1.0000 0.71030  0.38870  0.53460  Biso   1.000  C
  C224     1.0000 0.28970  0.61130  0.03460  Biso   1.000  C
  C225     1.0000 0.82020  0.90790  0.08990  Biso   1.000  C
  C226     1.0000 0.17980  0.09210  0.58990  Biso   1.000  C
  C227     1.0000 0.67980  0.40790  0.58990  Biso   1.000  C
  C228     1.0000 0.32020  0.59210  0.08990  Biso   1.000  C
  C229     1.0000 0.83690  0.83400  0.12730  Biso   1.000  C
  C230     1.0000 0.16310  0.16600  0.62730  Biso   1.000  C
  C231     1.0000 0.66310  0.33400  0.62730  Biso   1.000  C
  C232     1.0000 0.33690  0.66600  0.12730  Biso   1.000  C
  C233     1.0000 0.82520  0.73550  0.11630  Biso   1.000  C
  C234     1.0000 0.17480  0.26450  0.61630  Biso   1.000  C
  C235     1.0000 0.67480  0.23550  0.61630  Biso   1.000  C
  C236     1.0000 0.32520  0.76450  0.11630  Biso   1.000  C
  C237     1.0000 0.72040  0.40250  0.79140  Biso   1.000  C
  C238     1.0000 0.27960  0.59750  0.29140  Biso   1.000  C
  C239     1.0000 0.77960  0.90250  0.29140  Biso   1.000  C
  C240     1.0000 0.22040  0.09750  0.79140  Biso   1.000  C
  C241     1.0000 0.69200  0.49680  0.79470  Biso   1.000  C
  C242     1.0000 0.30800  0.50320  0.29470  Biso   1.000  C
  C243     1.0000 0.80800  0.99680  0.29470  Biso   1.000  C
  C244     1.0000 0.19200  0.00320  0.79470  Biso   1.000  C
  C245     1.0000 0.69200  0.52400  0.85770  Biso   1.000  C
  C246     1.0000 0.30800  0.47600  0.35770  Biso   1.000  C
  C247     1.0000 0.80800  0.02400  0.35770  Biso   1.000  C
  C248     1.0000 0.19200  0.97600  0.85770  Biso   1.000  C
  N25      1.0000 0.80710  0.13910  0.92070  Biso   1.000  N
  N26      1.0000 0.19290  0.86090  0.42070  Biso   1.000  N
  N27      1.0000 0.69290  0.63910  0.42070  Biso   1.000  N
  N28      1.0000 0.30710  0.36090  0.92070  Biso   1.000  N
  N29      1.0000 0.78230  0.05220  0.89370  Biso   1.000  N
  N30      1.0000 0.21770  0.94780  0.39370  Biso   1.000  N
  N31      1.0000 0.71770  0.55220  0.39370  Biso   1.000  N
  N32      1.0000 0.28230  0.44780  0.89370  Biso   1.000  N
  N33      1.0000 0.73700  0.38070  0.85300  Biso   1.000  N
  N34      1.0000 0.26300  0.61930  0.35300  Biso   1.000  N
  N35      1.0000 0.76300  0.88070  0.35300  Biso   1.000  N
  N36      1.0000 0.23700  0.11930  0.85300  Biso   1.000  N
  N37      1.0000 0.72020  0.45310  0.89140  Biso   1.000  N
  N38      1.0000 0.27980  0.54690  0.39140  Biso   1.000  N
  N39      1.0000 0.77980  0.95310  0.39140  Biso   1.000  N
  N40      1.0000 0.22020  0.04690  0.89140  Biso   1.000  N
  N41      1.0000 0.75490  0.44860  0.07610  Biso   1.000  N
  N42      1.0000 0.24510  0.55140  0.57610  Biso   1.000  N
  N43      1.0000 0.74510  0.94860  0.57610  Biso   1.000  N
  N44      1.0000 0.25490  0.05140  0.07610  Biso   1.000  N
  N45      1.0000 0.77580  0.54240  0.09900  Biso   1.000  N
  N46      1.0000 0.22420  0.45760  0.59900  Biso   1.000  N
  N47      1.0000 0.72420  0.04240  0.59900  Biso   1.000  N
  N48      1.0000 0.27580  0.95760  0.09900  Biso   1.000  N
  O17      1.0000 0.82540  0.34550  0.94230  Biso   1.000  O
  O18      1.0000 0.17460  0.65450  0.44230  Biso   1.000  O
  O19      1.0000 0.67460  0.84550  0.44230  Biso   1.000  O
  O20      1.0000 0.32540  0.15450  0.94230  Biso   1.000  O
  O21      1.0000 0.72300  0.17090  0.84660  Biso   1.000  O
  O22      1.0000 0.27700  0.82910  0.34660  Biso   1.000  O
  O23      1.0000 0.77700  0.67090  0.34660  Biso   1.000  O
  O24      1.0000 0.22300  0.32910  0.84660  Biso   1.000  O
  O25      1.0000 0.70790  0.30890  0.98880  Biso   1.000  O
  O26      1.0000 0.29210  0.69110  0.48880  Biso   1.000  O
  O27      1.0000 0.79210  0.80890  0.48880  Biso   1.000  O
  O28      1.0000 0.20790  0.19110  0.98880  Biso   1.000  O
  O29      1.0000 0.76390  0.58300  0.98890  Biso   1.000  O
  O30      1.0000 0.23610  0.41700  0.48890  Biso   1.000  O
  O31      1.0000 0.73610  0.08300  0.48890  Biso   1.000  O
  O32      1.0000 0.26390  0.91700  0.98890  Biso   1.000  O
  Cu9      1.0000 0.77500  0.26370  0.89110  Biso   1.000  Cu
  Cu10     1.0000 0.22500  0.73630  0.39110  Biso   1.000  Cu
  Cu11     1.0000 0.72500  0.76370  0.39110  Biso   1.000  Cu
  Cu12     1.0000 0.27500  0.23630  0.89110  Biso   1.000  Cu
  Cu13     1.0000 0.73780  0.44320  0.98470  Biso   1.000  Cu
  Cu14     1.0000 0.26220  0.55680  0.48470  Biso   1.000  Cu
  Cu15     1.0000 0.76220  0.94320  0.48470  Biso   1.000  Cu
  Cu16     1.0000 0.23780  0.05680  0.98470  Biso   1.000  Cu
  K1       1.0000 0.90450  0.48510  0.88350  Biso   1.000  K
  K2       1.0000 0.09550  0.51490  0.38350  Biso   1.000  K
  K3       1.0000 0.59550  0.98510  0.38350  Biso   1.000  K
  K4       1.0000 0.40450  0.01490  0.88350  Biso   1.000  K
  K5       1.0000 0.12830  0.22490  0.88690  Biso   1.000  K
  K6       1.0000 0.87170  0.77510  0.38690  Biso   1.000  K
  K7       1.0000 0.37170  0.72490  0.38690  Biso   1.000  K
  K8       1.0000 0.62830  0.27510  0.88690  Biso   1.000  K
  O33      1.0000 0.87190  0.86320  0.89640  Biso   1.000  O
  O34      1.0000 0.12810  0.13680  0.39640  Biso   1.000  O
  O35      1.0000 0.62810  0.36320  0.39640  Biso   1.000  O
  O36      1.0000 0.37190  0.63680  0.89640  Biso   1.000  O
  C249     1.0000 0.90600  0.82490  0.93260  Biso   1.000  C
  C250     1.0000 0.09400  0.17510  0.43260  Biso   1.000  C
  C251     1.0000 0.59400  0.32490  0.43260  Biso   1.000  C
  C252     1.0000 0.40600  0.67510  0.93260  Biso   1.000  C
  O37      1.0000 0.83210  0.64230  0.87930  Biso   1.000  O
  O38      1.0000 0.16790  0.35770  0.37930  Biso   1.000  O
  O39      1.0000 0.66790  0.14230  0.37930  Biso   1.000  O
  O40      1.0000 0.33210  0.85770  0.87930  Biso   1.000  O
  O41      1.0000 0.93030  0.64050  0.96630  Biso   1.000  O
  O42      1.0000 0.06970  0.35950  0.46630  Biso   1.000  O
  O43      1.0000 0.56970  0.14050  0.46630  Biso   1.000  O
  O44      1.0000 0.43030  0.85950  0.96630  Biso   1.000  O
  H1       1.0000 0.06620  0.06950  0.78600  Biso   1.000  H
  H2       1.0000 0.93380  0.93050  0.28600  Biso   1.000  H
  H3       1.0000 0.43380  0.56950  0.28600  Biso   1.000  H
  H4       1.0000 0.56620  0.43050  0.78600  Biso   1.000  H
  H5       1.0000 0.05560  0.94910  0.71050  Biso   1.000  H
  H6       1.0000 0.94440  0.05090  0.21050  Biso   1.000  H
  H7       1.0000 0.44440  0.44910  0.21050  Biso   1.000  H
  H8       1.0000 0.55560  0.55090  0.71050  Biso   1.000  H
  H9       1.0000 0.01570  0.99030  0.61440  Biso   1.000  H
  H10      1.0000 0.98430  0.00970  0.11440  Biso   1.000  H
  H11      1.0000 0.48430  0.49030  0.11440  Biso   1.000  H
  H12      1.0000 0.51570  0.50970  0.61440  Biso   1.000  H
  H13      1.0000 0.99680  0.15710  0.58880  Biso   1.000  H
  H14      1.0000 0.00320  0.84290  0.08880  Biso   1.000  H
  H15      1.0000 0.50320  0.65710  0.08880  Biso   1.000  H
  H16      1.0000 0.49680  0.34290  0.58880  Biso   1.000  H
  H17      1.0000 0.98800  0.33510  0.61880  Biso   1.000  H
  H18      1.0000 0.01200  0.66490  0.11880  Biso   1.000  H
  H19      1.0000 0.51200  0.83510  0.11880  Biso   1.000  H
  H20      1.0000 0.48800  0.16490  0.61880  Biso   1.000  H
  H21      1.0000 0.92600  0.63140  0.62220  Biso   1.000  H
  H22      1.0000 0.07400  0.36860  0.12220  Biso   1.000  H
  H23      1.0000 0.57400  0.13140  0.12220  Biso   1.000  H
  H24      1.0000 0.42600  0.86860  0.62220  Biso   1.000  H
  H25      1.0000 0.89640  0.79940  0.60310  Biso   1.000  H
  H26      1.0000 0.10360  0.20060  0.10310  Biso   1.000  H
  H27      1.0000 0.60360  0.29940  0.10310  Biso   1.000  H
  H28      1.0000 0.39640  0.70060  0.60310  Biso   1.000  H
  H29      1.0000 0.91220  0.92010  0.68290  Biso   1.000  H
  H30      1.0000 0.08780  0.07990  0.18290  Biso   1.000  H
  H31      1.0000 0.58780  0.42010  0.18290  Biso   1.000  H
  H32      1.0000 0.41220  0.57990  0.68290  Biso   1.000  H
  H33      1.0000 0.95020  0.87600  0.78010  Biso   1.000  H
  H34      1.0000 0.04980  0.12400  0.28010  Biso   1.000  H
  H35      1.0000 0.54980  0.37600  0.28010  Biso   1.000  H
  H36      1.0000 0.45020  0.62400  0.78010  Biso   1.000  H
  H37      1.0000 0.97720  0.70750  0.79930  Biso   1.000  H
  H38      1.0000 0.02280  0.29250  0.29930  Biso   1.000  H
  H39      1.0000 0.52280  0.20750  0.29930  Biso   1.000  H
  H40      1.0000 0.47720  0.79250  0.79930  Biso   1.000  H
  H41      1.0000 0.87680  0.39640  0.74880  Biso   1.000  H
  H42      1.0000 0.12320  0.60360  0.24880  Biso   1.000  H
  H43      1.0000 0.62320  0.89640  0.24880  Biso   1.000  H
  H44      1.0000 0.37680  0.10360  0.74880  Biso   1.000  H
  H45      1.0000 0.81630  0.34610  0.66910  Biso   1.000  H
  H46      1.0000 0.18370  0.65390  0.16910  Biso   1.000  H
  H47      1.0000 0.68370  0.84610  0.16910  Biso   1.000  H
  H48      1.0000 0.31630  0.15390  0.66910  Biso   1.000  H
  H49      1.0000 0.78610  0.17490  0.66520  Biso   1.000  H
  H50      1.0000 0.21390  0.82510  0.16520  Biso   1.000  H
  H51      1.0000 0.71390  0.67490  0.16520  Biso   1.000  H
  H52      1.0000 0.28610  0.32510  0.66520  Biso   1.000  H
  H53      1.0000 0.82890  0.06000  0.73510  Biso   1.000  H
  H54      1.0000 0.17110  0.94000  0.23510  Biso   1.000  H
  H55      1.0000 0.67110  0.56000  0.23510  Biso   1.000  H
  H56      1.0000 0.32890  0.44000  0.73510  Biso   1.000  H
  H57      1.0000 0.89010  0.01480  0.81940  Biso   1.000  H
  H58      1.0000 0.10990  0.98520  0.31940  Biso   1.000  H
  H59      1.0000 0.60990  0.51480  0.31940  Biso   1.000  H
  H60      1.0000 0.39010  0.48520  0.81940  Biso   1.000  H
  H61      1.0000 0.02010  0.83320  0.90320  Biso   1.000  H
  H62      1.0000 0.97990  0.16680  0.40320  Biso   1.000  H
  H63      1.0000 0.47990  0.33320  0.40320  Biso   1.000  H
  H64      1.0000 0.52010  0.66680  0.90320  Biso   1.000  H
  H65      1.0000 0.07690  0.71340  0.95420  Biso   1.000  H
  H66      1.0000 0.92310  0.28660  0.45420  Biso   1.000  H
  H67      1.0000 0.42310  0.21340  0.45420  Biso   1.000  H
  H68      1.0000 0.57690  0.78660  0.95420  Biso   1.000  H
  H69      1.0000 0.13490  0.75660  0.03820  Biso   1.000  H
  H70      1.0000 0.86510  0.24340  0.53820  Biso   1.000  H
  H71      1.0000 0.36510  0.25660  0.53820  Biso   1.000  H
  H72      1.0000 0.63490  0.74340  0.03820  Biso   1.000  H
  H73      1.0000 0.14780  0.91960  0.06080  Biso   1.000  H
  H74      1.0000 0.85220  0.08040  0.56080  Biso   1.000  H
  H75      1.0000 0.35220  0.41960  0.56080  Biso   1.000  H
  H76      1.0000 0.64780  0.58040  0.06080  Biso   1.000  H
  H77      1.0000 0.09230  0.04330  0.02010  Biso   1.000  H
  H78      1.0000 0.90770  0.95670  0.52010  Biso   1.000  H
  H79      1.0000 0.40770  0.54330  0.52010  Biso   1.000  H
  H80      1.0000 0.59230  0.45670  0.02010  Biso   1.000  H
  H81      1.0000 0.02970  0.32450  0.01680  Biso   1.000  H
  H82      1.0000 0.97030  0.67550  0.51680  Biso   1.000  H
  H83      1.0000 0.47030  0.82450  0.51680  Biso   1.000  H
  H84      1.0000 0.52970  0.17550  0.01680  Biso   1.000  H
  H85      1.0000 0.07270  0.49660  0.01350  Biso   1.000  H
  H86      1.0000 0.92730  0.50340  0.51350  Biso   1.000  H
  H87      1.0000 0.42730  0.99660  0.51350  Biso   1.000  H
  H88      1.0000 0.57270  0.00340  0.01350  Biso   1.000  H
  H89      1.0000 0.07600  0.53450  0.89550  Biso   1.000  H
  H90      1.0000 0.92400  0.46550  0.39550  Biso   1.000  H
  H91      1.0000 0.42400  0.03450  0.39550  Biso   1.000  H
  H92      1.0000 0.57600  0.96550  0.89550  Biso   1.000  H
  H93      1.0000 0.87820  0.44850  0.02450  Biso   1.000  H
  H94      1.0000 0.12180  0.55150  0.52450  Biso   1.000  H
  H95      1.0000 0.62180  0.94850  0.52450  Biso   1.000  H
  H96      1.0000 0.37820  0.05150  0.02450  Biso   1.000  H
  H97      1.0000 0.93850  0.40190  0.10760  Biso   1.000  H
  H98      1.0000 0.06150  0.59810  0.60760  Biso   1.000  H
  H99      1.0000 0.56150  0.90190  0.60760  Biso   1.000  H
  H100     1.0000 0.43850  0.09810  0.10760  Biso   1.000  H
  H101     1.0000 0.95300  0.23260  0.12710  Biso   1.000  H
  H102     1.0000 0.04700  0.76740  0.62710  Biso   1.000  H
  H103     1.0000 0.54700  0.73260  0.62710  Biso   1.000  H
  H104     1.0000 0.45300  0.26740  0.12710  Biso   1.000  H
  H105     1.0000 0.91390  0.11110  0.05920  Biso   1.000  H
  H106     1.0000 0.08610  0.88890  0.55920  Biso   1.000  H
  H107     1.0000 0.58610  0.61110  0.55920  Biso   1.000  H
  H108     1.0000 0.41390  0.38890  0.05920  Biso   1.000  H
  H109     1.0000 0.85430  0.06110  0.97410  Biso   1.000  H
  H110     1.0000 0.14570  0.93890  0.47410  Biso   1.000  H
  H111     1.0000 0.64570  0.56110  0.47410  Biso   1.000  H
  H112     1.0000 0.35430  0.43890  0.97410  Biso   1.000  H
  H113     1.0000 0.66470  0.09460  0.76260  Biso   1.000  H
  H114     1.0000 0.33530  0.90540  0.26260  Biso   1.000  H
  H115     1.0000 0.83530  0.59460  0.26260  Biso   1.000  H
  H116     1.0000 0.16470  0.40540  0.76260  Biso   1.000  H
  H117     1.0000 0.61220  0.97370  0.70990  Biso   1.000  H
  H118     1.0000 0.38780  0.02630  0.20990  Biso   1.000  H
  H119     1.0000 0.88780  0.47370  0.20990  Biso   1.000  H
  H120     1.0000 0.11220  0.52630  0.70990  Biso   1.000  H
  H121     1.0000 0.61910  0.80760  0.74010  Biso   1.000  H
  H122     1.0000 0.38090  0.19240  0.24010  Biso   1.000  H
  H123     1.0000 0.88090  0.30760  0.24010  Biso   1.000  H
  H124     1.0000 0.11910  0.69240  0.74010  Biso   1.000  H
  H125     1.0000 0.68530  0.75450  0.81900  Biso   1.000  H
  H126     1.0000 0.31470  0.24550  0.31900  Biso   1.000  H
  H127     1.0000 0.81470  0.25450  0.31900  Biso   1.000  H
  H128     1.0000 0.18530  0.74550  0.81900  Biso   1.000  H
  H129     1.0000 0.73800  0.88160  0.87110  Biso   1.000  H
  H130     1.0000 0.26200  0.11840  0.37110  Biso   1.000  H
  H131     1.0000 0.76200  0.38160  0.37110  Biso   1.000  H
  H132     1.0000 0.23800  0.61840  0.87110  Biso   1.000  H
  H133     1.0000 0.68370  0.12090  0.99140  Biso   1.000  H
  H134     1.0000 0.31630  0.87910  0.49140  Biso   1.000  H
  H135     1.0000 0.81630  0.62090  0.49140  Biso   1.000  H
  H136     1.0000 0.18370  0.37910  0.99140  Biso   1.000  H
  H137     1.0000 0.68830  0.00730  0.07790  Biso   1.000  H
  H138     1.0000 0.31170  0.99270  0.57790  Biso   1.000  H
  H139     1.0000 0.81170  0.50730  0.57790  Biso   1.000  H
  H140     1.0000 0.18830  0.49270  0.07790  Biso   1.000  H
  H141     1.0000 0.71740  0.06450  0.17980  Biso   1.000  H
  H142     1.0000 0.28260  0.93550  0.67980  Biso   1.000  H
  H143     1.0000 0.78260  0.56450  0.67980  Biso   1.000  H
  H144     1.0000 0.21740  0.43550  0.17980  Biso   1.000  H
  H145     1.0000 0.74990  0.22500  0.19070  Biso   1.000  H
  H146     1.0000 0.25010  0.77500  0.69070  Biso   1.000  H
  H147     1.0000 0.75010  0.72500  0.69070  Biso   1.000  H
  H148     1.0000 0.24990  0.27500  0.19070  Biso   1.000  H
  H149     1.0000 0.76420  0.38990  0.15970  Biso   1.000  H
  H150     1.0000 0.23580  0.61010  0.65970  Biso   1.000  H
  H151     1.0000 0.73580  0.88990  0.65970  Biso   1.000  H
  H152     1.0000 0.26420  0.11010  0.15970  Biso   1.000  H
  H153     1.0000 0.75730  0.76930  0.98380  Biso   1.000  H
  H154     1.0000 0.24270  0.23070  0.48380  Biso   1.000  H
  H155     1.0000 0.74270  0.26930  0.48380  Biso   1.000  H
  H156     1.0000 0.25730  0.73070  0.98380  Biso   1.000  H
  H157     1.0000 0.77750  0.94050  0.00720  Biso   1.000  H
  H158     1.0000 0.22250  0.05950  0.50720  Biso   1.000  H
  H159     1.0000 0.72250  0.44050  0.50720  Biso   1.000  H
  H160     1.0000 0.27750  0.55950  0.00720  Biso   1.000  H
  H161     1.0000 0.82920  0.97440  0.10100  Biso   1.000  H
  H162     1.0000 0.17080  0.02560  0.60100  Biso   1.000  H
  H163     1.0000 0.67080  0.47440  0.60100  Biso   1.000  H
  H164     1.0000 0.32920  0.52560  0.10100  Biso   1.000  H
  H165     1.0000 0.85830  0.85030  0.16400  Biso   1.000  H
  H166     1.0000 0.14170  0.14970  0.66400  Biso   1.000  H
  H167     1.0000 0.64170  0.35030  0.66400  Biso   1.000  H
  H168     1.0000 0.35830  0.64970  0.16400  Biso   1.000  H
  H169     1.0000 0.83740  0.68560  0.14510  Biso   1.000  H
  H170     1.0000 0.16260  0.31440  0.64510  Biso   1.000  H
  H171     1.0000 0.66260  0.18560  0.64510  Biso   1.000  H
  H172     1.0000 0.33740  0.81440  0.14510  Biso   1.000  H
  H173     1.0000 0.72640  0.36320  0.75450  Biso   1.000  H
  H174     1.0000 0.27360  0.63680  0.25450  Biso   1.000  H
  H175     1.0000 0.77360  0.86320  0.25450  Biso   1.000  H
  H176     1.0000 0.22640  0.13680  0.75450  Biso   1.000  H
  H177     1.0000 0.67650  0.53290  0.76010  Biso   1.000  H
  H178     1.0000 0.32350  0.46710  0.26010  Biso   1.000  H
  H179     1.0000 0.82350  0.03290  0.26010  Biso   1.000  H
  H180     1.0000 0.17650  0.96710  0.76010  Biso   1.000  H
  H181     1.0000 0.67540  0.58210  0.87490  Biso   1.000  H
  H182     1.0000 0.32460  0.41790  0.37490  Biso   1.000  H
  H183     1.0000 0.82460  0.08210  0.37490  Biso   1.000  H
  H184     1.0000 0.17540  0.91790  0.87490  Biso   1.000  H
