data_image0
_cell_length_a       16.0811
_cell_length_b       24.0918
_cell_length_c       14.2992
_cell_angle_alpha    90
_cell_angle_beta     90
_cell_angle_gamma    90

_symmetry_space_group_name_H-M    "P 1"
_symmetry_int_tables_number       1

loop_
  _symmetry_equiv_pos_as_xyz
  'x, y, z'

loop_
  _atom_site_label
  _atom_site_occupancy
  _atom_site_fract_x
  _atom_site_fract_y
  _atom_site_fract_z
  _atom_site_thermal_displace_type
  _atom_site_B_iso_or_equiv
  _atom_site_type_symbol
  Cu1      1.0000 0.43973  0.64732  0.81167  Biso   1.000  Cu
  Cu2      1.0000 0.06027  0.85268  0.31167  Biso   1.000  Cu
  Cu3      1.0000 0.56027  0.64732  0.68833  Biso   1.000  Cu
  Cu4      1.0000 0.93973  0.85268  0.18833  Biso   1.000  Cu
  Cu5      1.0000 0.56027  0.35268  0.18833  Biso   1.000  Cu
  Cu6      1.0000 0.93973  0.14732  0.68833  Biso   1.000  Cu
  Cu7      1.0000 0.43973  0.35268  0.31167  Biso   1.000  Cu
  Cu8      1.0000 0.06027  0.14732  0.81167  Biso   1.000  Cu
  O1       1.0000 0.33839  0.64613  0.90240  Biso   1.000  O
  O2       1.0000 0.16161  0.85387  0.40240  Biso   1.000  O
  O3       1.0000 0.66161  0.64613  0.59760  Biso   1.000  O
  O4       1.0000 0.83839  0.85387  0.09760  Biso   1.000  O
  O5       1.0000 0.66161  0.35387  0.09760  Biso   1.000  O
  O6       1.0000 0.83839  0.14613  0.59760  Biso   1.000  O
  O7       1.0000 0.33839  0.35387  0.40240  Biso   1.000  O
  O8       1.0000 0.16161  0.14613  0.90240  Biso   1.000  O
  O9       1.0000 0.04119  0.47765  0.60160  Biso   1.000  O
  O10      1.0000 0.45881  0.02235  0.10160  Biso   1.000  O
  O11      1.0000 0.95881  0.47765  0.89840  Biso   1.000  O
  O12      1.0000 0.54119  0.02235  0.39840  Biso   1.000  O
  O13      1.0000 0.95881  0.52235  0.39840  Biso   1.000  O
  O14      1.0000 0.54119  0.97765  0.89840  Biso   1.000  O
  O15      1.0000 0.04119  0.52235  0.10160  Biso   1.000  O
  O16      1.0000 0.45881  0.97765  0.60160  Biso   1.000  O
  O17      1.0000 0.05200  0.56142  0.53660  Biso   1.000  O
  O18      1.0000 0.44800  0.93858  0.03660  Biso   1.000  O
  O19      1.0000 0.94800  0.56142  0.96340  Biso   1.000  O
  O20      1.0000 0.55200  0.93858  0.46340  Biso   1.000  O
  O21      1.0000 0.94800  0.43858  0.46340  Biso   1.000  O
  O22      1.0000 0.55200  0.06142  0.96340  Biso   1.000  O
  O23      1.0000 0.05200  0.43858  0.03660  Biso   1.000  O
  O24      1.0000 0.44800  0.06142  0.53660  Biso   1.000  O
  H1       1.0000 0.01000  0.55250  0.50520  Biso   1.000  H
  H2       1.0000 0.49000  0.94750  0.00520  Biso   1.000  H
  H3       1.0000 0.99000  0.55250  0.99480  Biso   1.000  H
  H4       1.0000 0.51000  0.94750  0.49480  Biso   1.000  H
  H5       1.0000 0.99000  0.44750  0.49480  Biso   1.000  H
  H6       1.0000 0.51000  0.05250  0.99480  Biso   1.000  H
  H7       1.0000 0.01000  0.44750  0.00520  Biso   1.000  H
  H8       1.0000 0.49000  0.05250  0.50520  Biso   1.000  H
  O25      1.0000 0.11259  0.80333  0.21961  Biso   1.000  O
  O26      1.0000 0.38741  0.69667  0.71961  Biso   1.000  O
  O27      1.0000 0.88741  0.80333  0.28039  Biso   1.000  O
  O28      1.0000 0.61259  0.69667  0.78039  Biso   1.000  O
  O29      1.0000 0.88741  0.19667  0.78039  Biso   1.000  O
  O30      1.0000 0.61259  0.30333  0.28039  Biso   1.000  O
  O31      1.0000 0.11259  0.19667  0.71961  Biso   1.000  O
  O32      1.0000 0.38741  0.30333  0.21961  Biso   1.000  O
  O33      1.0000 0.40110  0.41774  0.23962  Biso   1.000  O
  O34      1.0000 0.09890  0.08226  0.73962  Biso   1.000  O
  O35      1.0000 0.59890  0.41774  0.26038  Biso   1.000  O
  O36      1.0000 0.90110  0.08226  0.76038  Biso   1.000  O
  O37      1.0000 0.59890  0.58226  0.76038  Biso   1.000  O
  O38      1.0000 0.90110  0.91774  0.26038  Biso   1.000  O
  O39      1.0000 0.40110  0.58226  0.73962  Biso   1.000  O
  O40      1.0000 0.09890  0.91774  0.23962  Biso   1.000  O
  O41      1.0000 0.48386  0.40017  0.11631  Biso   1.000  O
  O42      1.0000 0.01614  0.09983  0.61631  Biso   1.000  O
  O43      1.0000 0.51614  0.40017  0.38369  Biso   1.000  O
  O44      1.0000 0.98386  0.09983  0.88369  Biso   1.000  O
  O45      1.0000 0.51614  0.59983  0.88369  Biso   1.000  O
  O46      1.0000 0.98386  0.90017  0.38369  Biso   1.000  O
  O47      1.0000 0.48386  0.59983  0.61631  Biso   1.000  O
  O48      1.0000 0.01614  0.90017  0.11631  Biso   1.000  O
  O49      1.0000 0.99585  0.78739  0.13560  Biso   1.000  O
  O50      1.0000 0.50415  0.71261  0.63560  Biso   1.000  O
  O51      1.0000 0.00415  0.78739  0.36440  Biso   1.000  O
  O52      1.0000 0.49585  0.71261  0.86440  Biso   1.000  O
  O53      1.0000 0.00415  0.21261  0.86440  Biso   1.000  O
  O54      1.0000 0.49585  0.28739  0.36440  Biso   1.000  O
  O55      1.0000 0.99585  0.21261  0.63560  Biso   1.000  O
  O56      1.0000 0.50415  0.28739  0.13560  Biso   1.000  O
  P1       1.0000 0.26673  0.61111  0.93235  Biso   1.000  P
  P2       1.0000 0.23327  0.88889  0.43235  Biso   1.000  P
  P3       1.0000 0.73327  0.61111  0.56765  Biso   1.000  P
  P4       1.0000 0.76673  0.88889  0.06765  Biso   1.000  P
  P5       1.0000 0.73327  0.38889  0.06765  Biso   1.000  P
  P6       1.0000 0.76673  0.11111  0.56765  Biso   1.000  P
  P7       1.0000 0.26673  0.38889  0.43235  Biso   1.000  P
  P8       1.0000 0.23327  0.11111  0.93235  Biso   1.000  P
  C1       1.0000 0.20525  0.58670  0.83593  Biso   1.000  C
  C2       1.0000 0.29475  0.91330  0.33593  Biso   1.000  C
  C3       1.0000 0.79475  0.58670  0.66407  Biso   1.000  C
  C4       1.0000 0.70525  0.91330  0.16407  Biso   1.000  C
  C5       1.0000 0.79475  0.41330  0.16407  Biso   1.000  C
  C6       1.0000 0.70525  0.08670  0.66407  Biso   1.000  C
  C7       1.0000 0.20525  0.41330  0.33593  Biso   1.000  C
  C8       1.0000 0.29475  0.08670  0.83593  Biso   1.000  C
  C9       1.0000 0.16329  0.53591  0.83820  Biso   1.000  C
  C10      1.0000 0.33671  0.96409  0.33820  Biso   1.000  C
  C11      1.0000 0.83671  0.53591  0.66180  Biso   1.000  C
  C12      1.0000 0.66329  0.96409  0.16180  Biso   1.000  C
  C13      1.0000 0.83671  0.46409  0.16180  Biso   1.000  C
  C14      1.0000 0.66329  0.03591  0.66180  Biso   1.000  C
  C15      1.0000 0.16329  0.46409  0.33820  Biso   1.000  C
  C16      1.0000 0.33671  0.03591  0.83820  Biso   1.000  C
  H9       1.0000 0.16620  0.51340  0.89270  Biso   1.000  H
  H10      1.0000 0.33380  0.98660  0.39270  Biso   1.000  H
  H11      1.0000 0.83380  0.51340  0.60730  Biso   1.000  H
  H12      1.0000 0.66620  0.98660  0.10730  Biso   1.000  H
  H13      1.0000 0.83380  0.48660  0.10730  Biso   1.000  H
  H14      1.0000 0.66620  0.01340  0.60730  Biso   1.000  H
  H15      1.0000 0.16620  0.48660  0.39270  Biso   1.000  H
  H16      1.0000 0.33380  0.01340  0.89270  Biso   1.000  H
  C17      1.0000 0.11764  0.51799  0.76200  Biso   1.000  C
  C18      1.0000 0.38236  0.98201  0.26200  Biso   1.000  C
  C19      1.0000 0.88236  0.51799  0.73800  Biso   1.000  C
  C20      1.0000 0.61764  0.98201  0.23800  Biso   1.000  C
  C21      1.0000 0.88236  0.48201  0.23800  Biso   1.000  C
  C22      1.0000 0.61764  0.01799  0.73800  Biso   1.000  C
  C23      1.0000 0.11764  0.48201  0.26200  Biso   1.000  C
  C24      1.0000 0.38236  0.01799  0.76200  Biso   1.000  C
  H17      1.0000 0.09010  0.48310  0.76430  Biso   1.000  H
  H18      1.0000 0.40990  0.01690  0.26430  Biso   1.000  H
  H19      1.0000 0.90990  0.48310  0.73570  Biso   1.000  H
  H20      1.0000 0.59010  0.01690  0.23570  Biso   1.000  H
  H21      1.0000 0.90990  0.51690  0.23570  Biso   1.000  H
  H22      1.0000 0.59010  0.98310  0.73570  Biso   1.000  H
  H23      1.0000 0.09010  0.51690  0.26430  Biso   1.000  H
  H24      1.0000 0.40990  0.98310  0.76430  Biso   1.000  H
  C25      1.0000 0.11190  0.54969  0.68450  Biso   1.000  C
  C26      1.0000 0.38810  0.95031  0.18450  Biso   1.000  C
  C27      1.0000 0.88810  0.54969  0.81550  Biso   1.000  C
  C28      1.0000 0.61190  0.95031  0.31550  Biso   1.000  C
  C29      1.0000 0.88810  0.45031  0.31550  Biso   1.000  C
  C30      1.0000 0.61190  0.04969  0.81550  Biso   1.000  C
  C31      1.0000 0.11190  0.45031  0.18450  Biso   1.000  C
  C32      1.0000 0.38810  0.04969  0.68450  Biso   1.000  C
  C33      1.0000 0.15130  0.60032  0.68030  Biso   1.000  C
  C34      1.0000 0.34870  0.89968  0.18030  Biso   1.000  C
  C35      1.0000 0.84870  0.60032  0.81970  Biso   1.000  C
  C36      1.0000 0.65130  0.89968  0.31970  Biso   1.000  C
  C37      1.0000 0.84870  0.39968  0.31970  Biso   1.000  C
  C38      1.0000 0.65130  0.10032  0.81970  Biso   1.000  C
  C39      1.0000 0.15130  0.39968  0.18030  Biso   1.000  C
  C40      1.0000 0.34870  0.10032  0.68030  Biso   1.000  C
  H25      1.0000 0.14530  0.62270  0.62600  Biso   1.000  H
  H26      1.0000 0.35470  0.87730  0.12600  Biso   1.000  H
  H27      1.0000 0.85470  0.62270  0.87400  Biso   1.000  H
  H28      1.0000 0.64530  0.87730  0.37400  Biso   1.000  H
  H29      1.0000 0.85470  0.37730  0.37400  Biso   1.000  H
  H30      1.0000 0.64530  0.12270  0.87400  Biso   1.000  H
  H31      1.0000 0.14530  0.37730  0.12600  Biso   1.000  H
  H32      1.0000 0.35470  0.12270  0.62600  Biso   1.000  H
  C41      1.0000 0.20060  0.61954  0.75600  Biso   1.000  C
  C42      1.0000 0.29940  0.88046  0.25600  Biso   1.000  C
  C43      1.0000 0.79940  0.61954  0.74400  Biso   1.000  C
  C44      1.0000 0.70060  0.88046  0.24400  Biso   1.000  C
  C45      1.0000 0.79940  0.38046  0.24400  Biso   1.000  C
  C46      1.0000 0.70060  0.11954  0.74400  Biso   1.000  C
  C47      1.0000 0.20060  0.38046  0.25600  Biso   1.000  C
  C48      1.0000 0.29940  0.11954  0.75600  Biso   1.000  C
  H33      1.0000 0.22960  0.65380  0.75210  Biso   1.000  H
  H34      1.0000 0.27040  0.84620  0.25210  Biso   1.000  H
  H35      1.0000 0.77040  0.65380  0.74790  Biso   1.000  H
  H36      1.0000 0.72960  0.84620  0.24790  Biso   1.000  H
  H37      1.0000 0.77040  0.34620  0.24790  Biso   1.000  H
  H38      1.0000 0.72960  0.15380  0.74790  Biso   1.000  H
  H39      1.0000 0.22960  0.34620  0.25210  Biso   1.000  H
  H40      1.0000 0.27040  0.15380  0.75210  Biso   1.000  H
  C49      1.0000 0.06360  0.52680  0.59870  Biso   1.000  C
  C50      1.0000 0.43640  0.97320  0.09870  Biso   1.000  C
  C51      1.0000 0.93640  0.52680  0.90130  Biso   1.000  C
  C52      1.0000 0.56360  0.97320  0.40130  Biso   1.000  C
  C53      1.0000 0.93640  0.47320  0.40130  Biso   1.000  C
  C54      1.0000 0.56360  0.02680  0.90130  Biso   1.000  C
  C55      1.0000 0.06360  0.47320  0.09870  Biso   1.000  C
  C56      1.0000 0.43640  0.02680  0.59870  Biso   1.000  C
  C57      1.0000 0.20144  0.65309  0.00549  Biso   1.000  C
  C58      1.0000 0.29856  0.84691  0.50549  Biso   1.000  C
  C59      1.0000 0.79856  0.65309  0.49451  Biso   1.000  C
  C60      1.0000 0.70144  0.84691  0.99451  Biso   1.000  C
  C61      1.0000 0.79856  0.34691  0.99451  Biso   1.000  C
  C62      1.0000 0.70144  0.15309  0.49451  Biso   1.000  C
  C63      1.0000 0.20144  0.34691  0.50549  Biso   1.000  C
  C64      1.0000 0.29856  0.15309  0.00549  Biso   1.000  C
  C65      1.0000 0.11737  0.66080  0.98930  Biso   1.000  C
  C66      1.0000 0.38263  0.83920  0.48930  Biso   1.000  C
  C67      1.0000 0.88263  0.66080  0.51070  Biso   1.000  C
  C68      1.0000 0.61737  0.83920  0.01070  Biso   1.000  C
  C69      1.0000 0.88263  0.33920  0.01070  Biso   1.000  C
  C70      1.0000 0.61737  0.16080  0.51070  Biso   1.000  C
  C71      1.0000 0.11737  0.33920  0.48930  Biso   1.000  C
  C72      1.0000 0.38263  0.16080  0.98930  Biso   1.000  C
  H41      1.0000 0.08920  0.63890  0.94400  Biso   1.000  H
  H42      1.0000 0.41080  0.86110  0.44400  Biso   1.000  H
  H43      1.0000 0.91080  0.63890  0.55600  Biso   1.000  H
  H44      1.0000 0.58920  0.86110  0.05600  Biso   1.000  H
  H45      1.0000 0.91080  0.36110  0.05600  Biso   1.000  H
  H46      1.0000 0.58920  0.13890  0.55600  Biso   1.000  H
  H47      1.0000 0.08920  0.36110  0.44400  Biso   1.000  H
  H48      1.0000 0.41080  0.13890  0.94400  Biso   1.000  H
  C73      1.0000 0.24129  0.68393  0.07426  Biso   1.000  C
  C74      1.0000 0.25871  0.81607  0.57426  Biso   1.000  C
  C75      1.0000 0.75871  0.68393  0.42574  Biso   1.000  C
  C76      1.0000 0.74129  0.81607  0.92574  Biso   1.000  C
  C77      1.0000 0.75871  0.31607  0.92574  Biso   1.000  C
  C78      1.0000 0.74129  0.18393  0.42574  Biso   1.000  C
  C79      1.0000 0.24129  0.31607  0.57426  Biso   1.000  C
  C80      1.0000 0.25871  0.18393  0.07426  Biso   1.000  C
  H49      1.0000 0.29860  0.67770  0.08670  Biso   1.000  H
  H50      1.0000 0.20140  0.82230  0.58670  Biso   1.000  H
  H51      1.0000 0.70140  0.67770  0.41330  Biso   1.000  H
  H52      1.0000 0.79860  0.82230  0.91330  Biso   1.000  H
  H53      1.0000 0.70140  0.32230  0.91330  Biso   1.000  H
  H54      1.0000 0.79860  0.17770  0.41330  Biso   1.000  H
  H55      1.0000 0.29860  0.32230  0.58670  Biso   1.000  H
  H56      1.0000 0.20140  0.17770  0.08670  Biso   1.000  H
  C81      1.0000 0.30171  0.55160  0.99746  Biso   1.000  C
  C82      1.0000 0.19829  0.94840  0.49746  Biso   1.000  C
  C83      1.0000 0.69829  0.55160  0.50254  Biso   1.000  C
  C84      1.0000 0.80171  0.94840  0.00254  Biso   1.000  C
  C85      1.0000 0.69829  0.44840  0.00254  Biso   1.000  C
  C86      1.0000 0.80171  0.05160  0.50254  Biso   1.000  C
  C87      1.0000 0.30171  0.44840  0.49746  Biso   1.000  C
  C88      1.0000 0.19829  0.05160  0.99746  Biso   1.000  C
  C89      1.0000 0.36260  0.51868  0.95587  Biso   1.000  C
  C90      1.0000 0.13740  0.98132  0.45587  Biso   1.000  C
  C91      1.0000 0.63740  0.51868  0.54413  Biso   1.000  C
  C92      1.0000 0.86260  0.98132  0.04413  Biso   1.000  C
  C93      1.0000 0.63740  0.48132  0.04413  Biso   1.000  C
  C94      1.0000 0.86260  0.01868  0.54413  Biso   1.000  C
  C95      1.0000 0.36260  0.48132  0.45587  Biso   1.000  C
  C96      1.0000 0.13740  0.01868  0.95587  Biso   1.000  C
  H57      1.0000 0.37810  0.52500  0.89260  Biso   1.000  H
  H58      1.0000 0.12190  0.97500  0.39260  Biso   1.000  H
  H59      1.0000 0.62190  0.52500  0.60740  Biso   1.000  H
  H60      1.0000 0.87810  0.97500  0.10740  Biso   1.000  H
  H61      1.0000 0.62190  0.47500  0.10740  Biso   1.000  H
  H62      1.0000 0.87810  0.02500  0.60740  Biso   1.000  H
  H63      1.0000 0.37810  0.47500  0.39260  Biso   1.000  H
  H64      1.0000 0.12190  0.02500  0.89260  Biso   1.000  H
  C97      1.0000 0.19841  0.72345  0.12450  Biso   1.000  C
  C98      1.0000 0.30159  0.77655  0.62450  Biso   1.000  C
  C99      1.0000 0.80159  0.72345  0.37550  Biso   1.000  C
  C100     1.0000 0.69841  0.77655  0.87550  Biso   1.000  C
  C101     1.0000 0.80159  0.27655  0.87550  Biso   1.000  C
  C102     1.0000 0.69841  0.22345  0.37550  Biso   1.000  C
  C103     1.0000 0.19841  0.27655  0.62450  Biso   1.000  C
  C104     1.0000 0.30159  0.22345  0.12450  Biso   1.000  C
  H65      1.0000 0.22600  0.74430  0.17160  Biso   1.000  H
  H66      1.0000 0.27400  0.75570  0.67160  Biso   1.000  H
  H67      1.0000 0.77400  0.74430  0.32840  Biso   1.000  H
  H68      1.0000 0.72600  0.75570  0.82840  Biso   1.000  H
  H69      1.0000 0.77400  0.25570  0.82840  Biso   1.000  H
  H70      1.0000 0.72600  0.24430  0.32840  Biso   1.000  H
  H71      1.0000 0.22600  0.25570  0.67160  Biso   1.000  H
  H72      1.0000 0.27400  0.24430  0.17160  Biso   1.000  H
  C105     1.0000 0.11491  0.73264  0.10620  Biso   1.000  C
  C106     1.0000 0.38509  0.76736  0.60620  Biso   1.000  C
  C107     1.0000 0.88509  0.73264  0.39380  Biso   1.000  C
  C108     1.0000 0.61491  0.76736  0.89380  Biso   1.000  C
  C109     1.0000 0.88509  0.26736  0.89380  Biso   1.000  C
  C110     1.0000 0.61491  0.23264  0.39380  Biso   1.000  C
  C111     1.0000 0.11491  0.26736  0.60620  Biso   1.000  C
  C112     1.0000 0.38509  0.23264  0.10620  Biso   1.000  C
  C113     1.0000 0.07424  0.70114  0.04010  Biso   1.000  C
  C114     1.0000 0.42576  0.79886  0.54010  Biso   1.000  C
  C115     1.0000 0.92576  0.70114  0.45990  Biso   1.000  C
  C116     1.0000 0.57424  0.79886  0.95990  Biso   1.000  C
  C117     1.0000 0.92576  0.29886  0.95990  Biso   1.000  C
  C118     1.0000 0.57424  0.20114  0.45990  Biso   1.000  C
  C119     1.0000 0.07424  0.29886  0.54010  Biso   1.000  C
  C120     1.0000 0.42576  0.20114  0.04010  Biso   1.000  C
  H73      1.0000 0.01660  0.70690  0.02890  Biso   1.000  H
  H74      1.0000 0.48340  0.79310  0.52890  Biso   1.000  H
  H75      1.0000 0.98340  0.70690  0.47110  Biso   1.000  H
  H76      1.0000 0.51660  0.79310  0.97110  Biso   1.000  H
  H77      1.0000 0.98340  0.29310  0.97110  Biso   1.000  H
  H78      1.0000 0.51660  0.20690  0.47110  Biso   1.000  H
  H79      1.0000 0.01660  0.29310  0.52890  Biso   1.000  H
  H80      1.0000 0.48340  0.20690  0.02890  Biso   1.000  H
  C121     1.0000 0.07074  0.77801  0.15794  Biso   1.000  C
  C122     1.0000 0.42926  0.72199  0.65794  Biso   1.000  C
  C123     1.0000 0.92926  0.77801  0.34206  Biso   1.000  C
  C124     1.0000 0.57074  0.72199  0.84206  Biso   1.000  C
  C125     1.0000 0.92926  0.22199  0.84206  Biso   1.000  C
  C126     1.0000 0.57074  0.27801  0.34206  Biso   1.000  C
  C127     1.0000 0.07074  0.22199  0.65794  Biso   1.000  C
  C128     1.0000 0.42926  0.27801  0.15794  Biso   1.000  C
  C129     1.0000 0.27693  0.54098  0.08920  Biso   1.000  C
  C130     1.0000 0.22307  0.95902  0.58920  Biso   1.000  C
  C131     1.0000 0.72307  0.54098  0.41080  Biso   1.000  C
  C132     1.0000 0.77693  0.95902  0.91080  Biso   1.000  C
  C133     1.0000 0.72307  0.45902  0.91080  Biso   1.000  C
  C134     1.0000 0.77693  0.04098  0.41080  Biso   1.000  C
  C135     1.0000 0.27693  0.45902  0.58920  Biso   1.000  C
  C136     1.0000 0.22307  0.04098  0.08920  Biso   1.000  C
  H81      1.0000 0.23390  0.56240  0.11690  Biso   1.000  H
  H82      1.0000 0.26610  0.93760  0.61690  Biso   1.000  H
  H83      1.0000 0.76610  0.56240  0.38310  Biso   1.000  H
  H84      1.0000 0.73390  0.93760  0.88310  Biso   1.000  H
  H85      1.0000 0.76610  0.43760  0.88310  Biso   1.000  H
  H86      1.0000 0.73390  0.06240  0.38310  Biso   1.000  H
  H87      1.0000 0.23390  0.43760  0.61690  Biso   1.000  H
  H88      1.0000 0.26610  0.06240  0.11690  Biso   1.000  H
  C137     1.0000 0.31540  0.49883  0.14009  Biso   1.000  C
  C138     1.0000 0.18460  0.00117  0.64009  Biso   1.000  C
  C139     1.0000 0.68460  0.49883  0.35991  Biso   1.000  C
  C140     1.0000 0.81540  0.00117  0.85991  Biso   1.000  C
  C141     1.0000 0.68460  0.50117  0.85991  Biso   1.000  C
  C142     1.0000 0.81540  0.99883  0.35991  Biso   1.000  C
  C143     1.0000 0.31540  0.50117  0.64009  Biso   1.000  C
  C144     1.0000 0.18460  0.99883  0.14009  Biso   1.000  C
  H89      1.0000 0.29860  0.49150  0.20260  Biso   1.000  H
  H90      1.0000 0.20140  0.00850  0.70260  Biso   1.000  H
  H91      1.0000 0.70140  0.49150  0.29740  Biso   1.000  H
  H92      1.0000 0.79860  0.00850  0.79740  Biso   1.000  H
  H93      1.0000 0.70140  0.50850  0.79740  Biso   1.000  H
  H94      1.0000 0.79860  0.99150  0.29740  Biso   1.000  H
  H95      1.0000 0.29860  0.50850  0.70260  Biso   1.000  H
  H96      1.0000 0.20140  0.99150  0.20260  Biso   1.000  H
  C145     1.0000 0.37842  0.46742  0.09936  Biso   1.000  C
  C146     1.0000 0.12158  0.03258  0.59936  Biso   1.000  C
  C147     1.0000 0.62158  0.46742  0.40064  Biso   1.000  C
  C148     1.0000 0.87842  0.03258  0.90064  Biso   1.000  C
  C149     1.0000 0.62158  0.53258  0.90064  Biso   1.000  C
  C150     1.0000 0.87842  0.96742  0.40064  Biso   1.000  C
  C151     1.0000 0.37842  0.53258  0.59936  Biso   1.000  C
  C152     1.0000 0.12158  0.96742  0.09936  Biso   1.000  C
  C153     1.0000 0.40062  0.47672  0.00655  Biso   1.000  C
  C154     1.0000 0.09938  0.02328  0.50655  Biso   1.000  C
  C155     1.0000 0.59938  0.47672  0.49345  Biso   1.000  C
  C156     1.0000 0.90062  0.02328  0.99345  Biso   1.000  C
  C157     1.0000 0.59938  0.52328  0.99345  Biso   1.000  C
  C158     1.0000 0.90062  0.97672  0.49345  Biso   1.000  C
  C159     1.0000 0.40062  0.52328  0.50655  Biso   1.000  C
  C160     1.0000 0.09938  0.97672  0.00655  Biso   1.000  C
  H97      1.0000 0.44190  0.45430  0.97790  Biso   1.000  H
  H98      1.0000 0.05810  0.04570  0.47790  Biso   1.000  H
  H99      1.0000 0.55810  0.45430  0.52210  Biso   1.000  H
  H100     1.0000 0.94190  0.04570  0.02210  Biso   1.000  H
  H101     1.0000 0.55810  0.54570  0.02210  Biso   1.000  H
  H102     1.0000 0.94190  0.95430  0.52210  Biso   1.000  H
  H103     1.0000 0.44190  0.54570  0.47790  Biso   1.000  H
  H104     1.0000 0.05810  0.95430  0.97790  Biso   1.000  H
  C161     1.0000 0.42439  0.42516  0.15632  Biso   1.000  C
  C162     1.0000 0.07561  0.07484  0.65632  Biso   1.000  C
  C163     1.0000 0.57561  0.42516  0.34368  Biso   1.000  C
  C164     1.0000 0.92439  0.07484  0.84368  Biso   1.000  C
  C165     1.0000 0.57561  0.57484  0.84368  Biso   1.000  C
  C166     1.0000 0.92439  0.92516  0.34368  Biso   1.000  C
  C167     1.0000 0.42439  0.57484  0.65632  Biso   1.000  C
  C168     1.0000 0.07561  0.92516  0.15632  Biso   1.000  C
