data_image0
_cell_length_a       17.341
_cell_length_b       6.744
_cell_length_c       34.555
_cell_angle_alpha    90
_cell_angle_beta     100.493
_cell_angle_gamma    90

_symmetry_space_group_name_H-M    "P 1"
_symmetry_int_tables_number       1

loop_
  _symmetry_equiv_pos_as_xyz
  'x, y, z'

loop_
  _atom_site_label
  _atom_site_occupancy
  _atom_site_fract_x
  _atom_site_fract_y
  _atom_site_fract_z
  _atom_site_thermal_displace_type
  _atom_site_B_iso_or_equiv
  _atom_site_type_symbol
  Cu1      1.0000 0.43725  0.28611  0.24943  Biso   1.000  Cu
  Cu2      1.0000 0.06275  0.78611  0.25057  Biso   1.000  Cu
  Cu3      1.0000 0.56275  0.71389  0.75057  Biso   1.000  Cu
  Cu4      1.0000 0.93725  0.21389  0.74943  Biso   1.000  Cu
  N1       1.0000 0.44340  0.26510  0.30793  Biso   1.000  N
  N2       1.0000 0.05660  0.76510  0.19207  Biso   1.000  N
  N3       1.0000 0.55660  0.73490  0.69207  Biso   1.000  N
  N4       1.0000 0.94340  0.23490  0.80793  Biso   1.000  N
  N5       1.0000 0.41173  0.29240  0.44956  Biso   1.000  N
  N6       1.0000 0.08827  0.79240  0.05044  Biso   1.000  N
  N7       1.0000 0.58827  0.70760  0.55044  Biso   1.000  N
  N8       1.0000 0.91173  0.20760  0.94956  Biso   1.000  N
  H1       1.0000 0.36960  0.31690  0.43290  Biso   1.000  H
  H2       1.0000 0.13040  0.81690  0.06710  Biso   1.000  H
  H3       1.0000 0.63040  0.68310  0.56710  Biso   1.000  H
  H4       1.0000 0.86960  0.18310  0.93290  Biso   1.000  H
  N9       1.0000 0.36850  0.38700  0.60464  Biso   1.000  N
  N10      1.0000 0.13150  0.88700  0.89536  Biso   1.000  N
  N11      1.0000 0.63150  0.61300  0.39536  Biso   1.000  N
  N12      1.0000 0.86850  0.11300  0.10464  Biso   1.000  N
  O1       1.0000 0.53811  0.19510  0.45237  Biso   1.000  O
  O2       1.0000 0.96189  0.69510  0.04763  Biso   1.000  O
  O3       1.0000 0.46189  0.80490  0.54763  Biso   1.000  O
  O4       1.0000 0.03811  0.30490  0.95237  Biso   1.000  O
  O5       1.0000 0.42310  0.35640  0.63197  Biso   1.000  O
  O6       1.0000 0.07690  0.85640  0.86803  Biso   1.000  O
  O7       1.0000 0.57690  0.64360  0.36803  Biso   1.000  O
  O8       1.0000 0.92310  0.14360  0.13197  Biso   1.000  O
  O9       1.0000 0.30310  0.43760  0.60938  Biso   1.000  O
  O10      1.0000 0.19690  0.93760  0.89062  Biso   1.000  O
  O11      1.0000 0.69690  0.56240  0.39062  Biso   1.000  O
  O12      1.0000 0.80310  0.06240  0.10938  Biso   1.000  O
  C1       1.0000 0.48910  0.12930  0.32894  Biso   1.000  C
  C2       1.0000 0.01090  0.62930  0.17106  Biso   1.000  C
  C3       1.0000 0.51090  0.87070  0.67106  Biso   1.000  C
  C4       1.0000 0.98910  0.37070  0.82894  Biso   1.000  C
  H5       1.0000 0.51490  0.03760  0.31570  Biso   1.000  H
  H6       1.0000 0.98510  0.53760  0.18430  Biso   1.000  H
  H7       1.0000 0.48510  0.96240  0.68430  Biso   1.000  H
  H8       1.0000 0.01490  0.46240  0.81570  Biso   1.000  H
  C5       1.0000 0.49980  0.11950  0.36959  Biso   1.000  C
  C6       1.0000 0.00020  0.61950  0.13041  Biso   1.000  C
  C7       1.0000 0.50020  0.88050  0.63041  Biso   1.000  C
  C8       1.0000 0.99980  0.38050  0.86959  Biso   1.000  C
  H9       1.0000 0.53300  0.02490  0.38330  Biso   1.000  H
  H10      1.0000 0.96700  0.52490  0.11670  Biso   1.000  H
  H11      1.0000 0.46700  0.97510  0.61670  Biso   1.000  H
  H12      1.0000 0.03300  0.47510  0.88330  Biso   1.000  H
  C9       1.0000 0.46050  0.25140  0.38941  Biso   1.000  C
  C10      1.0000 0.03950  0.75140  0.11059  Biso   1.000  C
  C11      1.0000 0.53950  0.74860  0.61059  Biso   1.000  C
  C12      1.0000 0.96050  0.24860  0.88941  Biso   1.000  C
  C13      1.0000 0.41260  0.39050  0.36781  Biso   1.000  C
  C14      1.0000 0.08740  0.89050  0.13219  Biso   1.000  C
  C15      1.0000 0.58740  0.60950  0.63219  Biso   1.000  C
  C16      1.0000 0.91260  0.10950  0.86781  Biso   1.000  C
  H13      1.0000 0.38490  0.48090  0.38030  Biso   1.000  H
  H14      1.0000 0.11510  0.98090  0.11970  Biso   1.000  H
  H15      1.0000 0.61510  0.51910  0.61970  Biso   1.000  H
  H16      1.0000 0.88490  0.01910  0.88030  Biso   1.000  H
  C17      1.0000 0.40620  0.39380  0.32756  Biso   1.000  C
  C18      1.0000 0.09380  0.89380  0.17244  Biso   1.000  C
  C19      1.0000 0.59380  0.60620  0.67244  Biso   1.000  C
  C20      1.0000 0.90620  0.10620  0.82756  Biso   1.000  C
  H17      1.0000 0.37460  0.49000  0.31330  Biso   1.000  H
  H18      1.0000 0.12540  0.99000  0.18670  Biso   1.000  H
  H19      1.0000 0.62540  0.51000  0.68670  Biso   1.000  H
  H20      1.0000 0.87460  0.01000  0.81330  Biso   1.000  H
  C21      1.0000 0.47480  0.24170  0.43362  Biso   1.000  C
  C22      1.0000 0.02520  0.74170  0.06638  Biso   1.000  C
  C23      1.0000 0.52520  0.75830  0.56638  Biso   1.000  C
  C24      1.0000 0.97480  0.25830  0.93362  Biso   1.000  C
  C25      1.0000 0.40540  0.31050  0.48900  Biso   1.000  C
  C26      1.0000 0.09460  0.81050  0.01100  Biso   1.000  C
  C27      1.0000 0.59460  0.68950  0.51100  Biso   1.000  C
  C28      1.0000 0.90540  0.18950  0.98900  Biso   1.000  C
  C29      1.0000 0.46700  0.28010  0.52028  Biso   1.000  C
  C30      1.0000 0.03300  0.78010  0.97972  Biso   1.000  C
  C31      1.0000 0.53300  0.71990  0.47972  Biso   1.000  C
  C32      1.0000 0.96700  0.21990  0.02028  Biso   1.000  C
  H21      1.0000 0.51610  0.24350  0.51560  Biso   1.000  H
  H22      1.0000 0.98390  0.74350  0.98440  Biso   1.000  H
  H23      1.0000 0.48390  0.75650  0.48440  Biso   1.000  H
  H24      1.0000 0.01610  0.25650  0.01560  Biso   1.000  H
  C33      1.0000 0.45480  0.30460  0.55822  Biso   1.000  C
  C34      1.0000 0.04520  0.80460  0.94178  Biso   1.000  C
  C35      1.0000 0.54520  0.69540  0.44178  Biso   1.000  C
  C36      1.0000 0.95480  0.19540  0.05822  Biso   1.000  C
  H25      1.0000 0.49550  0.28390  0.57940  Biso   1.000  H
  H26      1.0000 0.00450  0.78390  0.92060  Biso   1.000  H
  H27      1.0000 0.50450  0.71610  0.42060  Biso   1.000  H
  H28      1.0000 0.99550  0.21610  0.07940  Biso   1.000  H
  C37      1.0000 0.38160  0.36020  0.56447  Biso   1.000  C
  C38      1.0000 0.11840  0.86020  0.93553  Biso   1.000  C
  C39      1.0000 0.61840  0.63980  0.43553  Biso   1.000  C
  C40      1.0000 0.88160  0.13980  0.06447  Biso   1.000  C
  C41      1.0000 0.32020  0.39160  0.53402  Biso   1.000  C
  C42      1.0000 0.17980  0.89160  0.96598  Biso   1.000  C
  C43      1.0000 0.67980  0.60840  0.46598  Biso   1.000  C
  C44      1.0000 0.82020  0.10840  0.03402  Biso   1.000  C
  H29      1.0000 0.27120  0.42870  0.53890  Biso   1.000  H
  H30      1.0000 0.22880  0.92870  0.96110  Biso   1.000  H
  H31      1.0000 0.72880  0.57130  0.46110  Biso   1.000  H
  H32      1.0000 0.77120  0.07130  0.03890  Biso   1.000  H
  C45      1.0000 0.33250  0.36730  0.49634  Biso   1.000  C
  C46      1.0000 0.16750  0.86730  0.00366  Biso   1.000  C
  C47      1.0000 0.66750  0.63270  0.50366  Biso   1.000  C
  C48      1.0000 0.83250  0.13270  0.99634  Biso   1.000  C
  H33      1.0000 0.29150  0.38910  0.47540  Biso   1.000  H
  H34      1.0000 0.20850  0.88910  0.02460  Biso   1.000  H
  H35      1.0000 0.70850  0.61090  0.52460  Biso   1.000  H
  H36      1.0000 0.79150  0.11090  0.97540  Biso   1.000  H
  N13      1.0000 0.55475  0.32830  0.26071  Biso   1.000  N
  N14      1.0000 0.94525  0.82830  0.23929  Biso   1.000  N
  N15      1.0000 0.44525  0.67170  0.73929  Biso   1.000  N
  N16      1.0000 0.05475  0.17170  0.76071  Biso   1.000  N
  N17      1.0000 0.81859  0.45610  0.34246  Biso   1.000  N
  N18      1.0000 0.68141  0.95610  0.15754  Biso   1.000  N
  N19      1.0000 0.18141  0.54390  0.65754  Biso   1.000  N
  N20      1.0000 0.31859  0.04390  0.84246  Biso   1.000  N
  H37      1.0000 0.78210  0.52390  0.35010  Biso   1.000  H
  H38      1.0000 0.71790  0.02390  0.14990  Biso   1.000  H
  H39      1.0000 0.21790  0.47610  0.64990  Biso   1.000  H
  H40      1.0000 0.28210  0.97610  0.85010  Biso   1.000  H
  N21      1.0000 0.10440  0.42410  0.44815  Biso   1.000  N
  N22      1.0000 0.39560  0.92410  0.05185  Biso   1.000  N
  N23      1.0000 0.89560  0.57590  0.55185  Biso   1.000  N
  N24      1.0000 0.60440  0.07590  0.94815  Biso   1.000  N
  O13      1.0000 0.84599  0.28000  0.29040  Biso   1.000  O
  O14      1.0000 0.65401  0.78000  0.20960  Biso   1.000  O
  O15      1.0000 0.15401  0.72000  0.70960  Biso   1.000  O
  O16      1.0000 0.34599  0.22000  0.79040  Biso   1.000  O
  O17      1.0000 0.10470  0.45640  0.48284  Biso   1.000  O
  O18      1.0000 0.39530  0.95640  0.01716  Biso   1.000  O
  O19      1.0000 0.89530  0.54360  0.51716  Biso   1.000  O
  O20      1.0000 0.60470  0.04360  0.98284  Biso   1.000  O
  O21      1.0000 0.16330  0.38470  0.43504  Biso   1.000  O
  O22      1.0000 0.33670  0.88470  0.06496  Biso   1.000  O
  O23      1.0000 0.83670  0.61530  0.56496  Biso   1.000  O
  O24      1.0000 0.66330  0.11530  0.93504  Biso   1.000  O
  C49      1.0000 0.60390  0.18190  0.25592  Biso   1.000  C
  C50      1.0000 0.89610  0.68190  0.24408  Biso   1.000  C
  C51      1.0000 0.39610  0.81810  0.74408  Biso   1.000  C
  C52      1.0000 0.10390  0.31810  0.75592  Biso   1.000  C
  H41      1.0000 0.58380  0.06880  0.24230  Biso   1.000  H
  H42      1.0000 0.91620  0.56880  0.25770  Biso   1.000  H
  H43      1.0000 0.41620  0.93120  0.75770  Biso   1.000  H
  H44      1.0000 0.08380  0.43120  0.74230  Biso   1.000  H
  C53      1.0000 0.68350  0.19190  0.27043  Biso   1.000  C
  C54      1.0000 0.81650  0.69190  0.22957  Biso   1.000  C
  C55      1.0000 0.31650  0.80810  0.72957  Biso   1.000  C
  C56      1.0000 0.18350  0.30810  0.77043  Biso   1.000  C
  H45      1.0000 0.71630  0.08710  0.26680  Biso   1.000  H
  H46      1.0000 0.78370  0.58710  0.23320  Biso   1.000  H
  H47      1.0000 0.28370  0.91290  0.73320  Biso   1.000  H
  H48      1.0000 0.21630  0.41290  0.76680  Biso   1.000  H
  C57      1.0000 0.71360  0.36030  0.29045  Biso   1.000  C
  C58      1.0000 0.78640  0.86030  0.20955  Biso   1.000  C
  C59      1.0000 0.28640  0.63970  0.70955  Biso   1.000  C
  C60      1.0000 0.21360  0.13970  0.79045  Biso   1.000  C
  C61      1.0000 0.66330  0.51440  0.29423  Biso   1.000  C
  C62      1.0000 0.83670  0.01440  0.20577  Biso   1.000  C
  C63      1.0000 0.33670  0.48560  0.70577  Biso   1.000  C
  C64      1.0000 0.16330  0.98560  0.79423  Biso   1.000  C
  H49      1.0000 0.68210  0.63140  0.30680  Biso   1.000  H
  H50      1.0000 0.81790  0.13140  0.19320  Biso   1.000  H
  H51      1.0000 0.31790  0.36860  0.69320  Biso   1.000  H
  H52      1.0000 0.18210  0.86860  0.80680  Biso   1.000  H
  C65      1.0000 0.58470  0.49240  0.27920  Biso   1.000  C
  C66      1.0000 0.91530  0.99240  0.22080  Biso   1.000  C
  C67      1.0000 0.41530  0.50760  0.72080  Biso   1.000  C
  C68      1.0000 0.08470  0.00760  0.77920  Biso   1.000  C
  H53      1.0000 0.55100  0.59630  0.28200  Biso   1.000  H
  H54      1.0000 0.94900  0.09630  0.21800  Biso   1.000  H
  H55      1.0000 0.44900  0.40370  0.71800  Biso   1.000  H
  H56      1.0000 0.05100  0.90370  0.78200  Biso   1.000  H
  C69      1.0000 0.79950  0.36120  0.30728  Biso   1.000  C
  C70      1.0000 0.70050  0.86120  0.19272  Biso   1.000  C
  C71      1.0000 0.20050  0.63880  0.69272  Biso   1.000  C
  C72      1.0000 0.29950  0.13880  0.80728  Biso   1.000  C
  C73      1.0000 0.89210  0.45460  0.36763  Biso   1.000  C
  C74      1.0000 0.60790  0.95460  0.13237  Biso   1.000  C
  C75      1.0000 0.10790  0.54540  0.63237  Biso   1.000  C
  C76      1.0000 0.39210  0.04540  0.86763  Biso   1.000  C
  C77      1.0000 0.96140  0.41840  0.35427  Biso   1.000  C
  C78      1.0000 0.53860  0.91840  0.14573  Biso   1.000  C
  C79      1.0000 0.03860  0.58160  0.64573  Biso   1.000  C
  C80      1.0000 0.46140  0.08160  0.85427  Biso   1.000  C
  H57      1.0000 0.96130  0.40180  0.32750  Biso   1.000  H
  H58      1.0000 0.53870  0.90180  0.17250  Biso   1.000  H
  H59      1.0000 0.03870  0.59820  0.67250  Biso   1.000  H
  H60      1.0000 0.46130  0.09820  0.82750  Biso   1.000  H
  C81      1.0000 0.03060  0.40740  0.38104  Biso   1.000  C
  C82      1.0000 0.46940  0.90740  0.11896  Biso   1.000  C
  C83      1.0000 0.96940  0.59260  0.61896  Biso   1.000  C
  C84      1.0000 0.53060  0.09260  0.88104  Biso   1.000  C
  H61      1.0000 0.07740  0.37970  0.37260  Biso   1.000  H
  H62      1.0000 0.42260  0.87970  0.12740  Biso   1.000  H
  H63      1.0000 0.92260  0.62030  0.62740  Biso   1.000  H
  H64      1.0000 0.57740  0.12030  0.87260  Biso   1.000  H
  C85      1.0000 0.02990  0.43770  0.42017  Biso   1.000  C
  C86      1.0000 0.47010  0.93770  0.07983  Biso   1.000  C
  C87      1.0000 0.97010  0.56230  0.57983  Biso   1.000  C
  C88      1.0000 0.52990  0.06230  0.92017  Biso   1.000  C
  C89      1.0000 0.96280  0.47940  0.43351  Biso   1.000  C
  C90      1.0000 0.53720  0.97940  0.06649  Biso   1.000  C
  C91      1.0000 0.03720  0.52060  0.56649  Biso   1.000  C
  C92      1.0000 0.46280  0.02060  0.93351  Biso   1.000  C
  H65      1.0000 0.96410  0.50160  0.46020  Biso   1.000  H
  H66      1.0000 0.53590  0.00160  0.03980  Biso   1.000  H
  H67      1.0000 0.03590  0.49840  0.53980  Biso   1.000  H
  H68      1.0000 0.46410  0.99840  0.96020  Biso   1.000  H
  C93      1.0000 0.89360  0.48860  0.40748  Biso   1.000  C
  C94      1.0000 0.60640  0.98860  0.09252  Biso   1.000  C
  C95      1.0000 0.10640  0.51140  0.59252  Biso   1.000  C
  C96      1.0000 0.39360  0.01140  0.90748  Biso   1.000  C
  H69      1.0000 0.84740  0.51760  0.41640  Biso   1.000  H
  H70      1.0000 0.65260  0.01760  0.08360  Biso   1.000  H
  H71      1.0000 0.15260  0.48240  0.58360  Biso   1.000  H
  H72      1.0000 0.34740  0.98240  0.91640  Biso   1.000  H
  N25      1.0000 0.42941  0.31780  0.19083  Biso   1.000  N
  N26      1.0000 0.07059  0.81780  0.30917  Biso   1.000  N
  N27      1.0000 0.57059  0.68220  0.80917  Biso   1.000  N
  N28      1.0000 0.92941  0.18220  0.69083  Biso   1.000  N
  N29      1.0000 0.33497  0.40720  0.04367  Biso   1.000  N
  N30      1.0000 0.16503  0.90720  0.45633  Biso   1.000  N
  N31      1.0000 0.66503  0.59280  0.95633  Biso   1.000  N
  N32      1.0000 0.83497  0.09280  0.54367  Biso   1.000  N
  H73      1.0000 0.29650  0.38520  0.05560  Biso   1.000  H
  H74      1.0000 0.20350  0.88520  0.44440  Biso   1.000  H
  H75      1.0000 0.70350  0.61480  0.94440  Biso   1.000  H
  H76      1.0000 0.79650  0.11480  0.55560  Biso   1.000  H
  N33      1.0000 0.24750  0.48720  0.87999  Biso   1.000  N
  N34      1.0000 0.25250  0.98720  0.62001  Biso   1.000  N
  N35      1.0000 0.75250  0.51280  0.12001  Biso   1.000  N
  N36      1.0000 0.74750  0.01280  0.37999  Biso   1.000  N
  O25      1.0000 0.46638  0.45390  0.05430  Biso   1.000  O
  O26      1.0000 0.03362  0.95390  0.44570  Biso   1.000  O
  O27      1.0000 0.53362  0.54610  0.94570  Biso   1.000  O
  O28      1.0000 0.96638  0.04610  0.55430  Biso   1.000  O
  O29      1.0000 0.18020  0.45390  0.86498  Biso   1.000  O
  O30      1.0000 0.31980  0.95390  0.63502  Biso   1.000  O
  O31      1.0000 0.81980  0.54610  0.13502  Biso   1.000  O
  O32      1.0000 0.68020  0.04610  0.36498  Biso   1.000  O
  O33      1.0000 0.29600  0.53960  0.86064  Biso   1.000  O
  O34      1.0000 0.20400  0.03960  0.63936  Biso   1.000  O
  O35      1.0000 0.70400  0.46040  0.13936  Biso   1.000  O
  O36      1.0000 0.79600  0.96040  0.36064  Biso   1.000  O
  C97      1.0000 0.48360  0.41600  0.17499  Biso   1.000  C
  C98      1.0000 0.01640  0.91600  0.32501  Biso   1.000  C
  C99      1.0000 0.51640  0.58400  0.82501  Biso   1.000  C
  C100     1.0000 0.98360  0.08400  0.67499  Biso   1.000  C
  H77      1.0000 0.52740  0.46620  0.19170  Biso   1.000  H
  H78      1.0000 0.97260  0.96620  0.30830  Biso   1.000  H
  H79      1.0000 0.47260  0.53380  0.80830  Biso   1.000  H
  H80      1.0000 0.02740  0.03380  0.69170  Biso   1.000  H
  C101     1.0000 0.47740  0.44530  0.13533  Biso   1.000  C
  C102     1.0000 0.02260  0.94530  0.36467  Biso   1.000  C
  C103     1.0000 0.52260  0.55470  0.86467  Biso   1.000  C
  C104     1.0000 0.97740  0.05470  0.63533  Biso   1.000  C
  H81      1.0000 0.51720  0.50970  0.12560  Biso   1.000  H
  H82      1.0000 0.98280  0.00970  0.37440  Biso   1.000  H
  H83      1.0000 0.48280  0.49030  0.87440  Biso   1.000  H
  H84      1.0000 0.01720  0.99030  0.62560  Biso   1.000  H
  C105     1.0000 0.41140  0.37870  0.10984  Biso   1.000  C
  C106     1.0000 0.08860  0.87870  0.39016  Biso   1.000  C
  C107     1.0000 0.58860  0.62130  0.89016  Biso   1.000  C
  C108     1.0000 0.91140  0.12130  0.60984  Biso   1.000  C
  C109     1.0000 0.35660  0.27420  0.12579  Biso   1.000  C
  C110     1.0000 0.14340  0.77420  0.37421  Biso   1.000  C
  C111     1.0000 0.64340  0.72580  0.87421  Biso   1.000  C
  C112     1.0000 0.85660  0.22580  0.62579  Biso   1.000  C
  H85      1.0000 0.31220  0.22340  0.10960  Biso   1.000  H
  H86      1.0000 0.18780  0.72340  0.39040  Biso   1.000  H
  H87      1.0000 0.68780  0.77660  0.89040  Biso   1.000  H
  H88      1.0000 0.81220  0.27660  0.60960  Biso   1.000  H
  C113     1.0000 0.36780  0.24530  0.16565  Biso   1.000  C
  C114     1.0000 0.13220  0.74530  0.33435  Biso   1.000  C
  C115     1.0000 0.63220  0.75470  0.83435  Biso   1.000  C
  C116     1.0000 0.86780  0.25470  0.66565  Biso   1.000  C
  H89      1.0000 0.33070  0.17150  0.17580  Biso   1.000  H
  H90      1.0000 0.16930  0.67150  0.32420  Biso   1.000  H
  H91      1.0000 0.66930  0.82850  0.82420  Biso   1.000  H
  H92      1.0000 0.83070  0.32850  0.67580  Biso   1.000  H
  C117     1.0000 0.40700  0.41820  0.06654  Biso   1.000  C
  C118     1.0000 0.09300  0.91820  0.43346  Biso   1.000  C
  C119     1.0000 0.59300  0.58180  0.93346  Biso   1.000  C
  C120     1.0000 0.90700  0.08180  0.56654  Biso   1.000  C
  C121     1.0000 0.31600  0.42790  0.00258  Biso   1.000  C
  C122     1.0000 0.18400  0.92790  0.49742  Biso   1.000  C
  C123     1.0000 0.68400  0.57210  0.99742  Biso   1.000  C
  C124     1.0000 0.81600  0.07210  0.50258  Biso   1.000  C
  C125     1.0000 0.37010  0.48490  0.97952  Biso   1.000  C
  C126     1.0000 0.12990  0.98490  0.52048  Biso   1.000  C
  C127     1.0000 0.62990  0.51510  0.02048  Biso   1.000  C
  C128     1.0000 0.87010  0.01510  0.47952  Biso   1.000  C
  H93      1.0000 0.42190  0.51000  0.99120  Biso   1.000  H
  H94      1.0000 0.07810  0.01000  0.50880  Biso   1.000  H
  H95      1.0000 0.57810  0.49000  0.00880  Biso   1.000  H
  H96      1.0000 0.92190  0.99000  0.49120  Biso   1.000  H
  C129     1.0000 0.34720  0.50410  0.93963  Biso   1.000  C
  C130     1.0000 0.15280  0.00410  0.56037  Biso   1.000  C
  C131     1.0000 0.65280  0.49590  0.06037  Biso   1.000  C
  C132     1.0000 0.84720  0.99590  0.43963  Biso   1.000  C
  H97      1.0000 0.38300  0.54430  0.92420  Biso   1.000  H
  H98      1.0000 0.11700  0.04430  0.57580  Biso   1.000  H
  H99      1.0000 0.61700  0.45570  0.07580  Biso   1.000  H
  H100     1.0000 0.88300  0.95570  0.42420  Biso   1.000  H
  C133     1.0000 0.27120  0.46380  0.92253  Biso   1.000  C
  C134     1.0000 0.22880  0.96380  0.57747  Biso   1.000  C
  C135     1.0000 0.72880  0.53620  0.07747  Biso   1.000  C
  C136     1.0000 0.77120  0.03620  0.42253  Biso   1.000  C
  C137     1.0000 0.21670  0.40550  0.94468  Biso   1.000  C
  C138     1.0000 0.28330  0.90550  0.55532  Biso   1.000  C
  C139     1.0000 0.78330  0.59450  0.05532  Biso   1.000  C
  C140     1.0000 0.71670  0.09450  0.44468  Biso   1.000  C
  H101     1.0000 0.16540  0.37790  0.93270  Biso   1.000  H
  H102     1.0000 0.33460  0.87790  0.56730  Biso   1.000  H
  H103     1.0000 0.83460  0.62210  0.06730  Biso   1.000  H
  H104     1.0000 0.66540  0.12210  0.43270  Biso   1.000  H
  C141     1.0000 0.23920  0.38880  0.98460  Biso   1.000  C
  C142     1.0000 0.26080  0.88880  0.51540  Biso   1.000  C
  C143     1.0000 0.76080  0.61120  0.01540  Biso   1.000  C
  C144     1.0000 0.73920  0.11120  0.48460  Biso   1.000  C
  H105     1.0000 0.20270  0.35090  0.99980  Biso   1.000  H
  H106     1.0000 0.29730  0.85090  0.50020  Biso   1.000  H
  H107     1.0000 0.79730  0.64910  0.00020  Biso   1.000  H
  H108     1.0000 0.70270  0.14910  0.49980  Biso   1.000  H
  N37      1.0000 0.40999  0.79260  0.23158  Biso   1.000  N
  N38      1.0000 0.09001  0.29260  0.26842  Biso   1.000  N
  N39      1.0000 0.59001  0.20740  0.76842  Biso   1.000  N
  N40      1.0000 0.90999  0.70740  0.73158  Biso   1.000  N
  O37      1.0000 0.45850  0.92610  0.24200  Biso   1.000  O
  O38      1.0000 0.04150  0.42610  0.25800  Biso   1.000  O
  O39      1.0000 0.54150  0.07390  0.75800  Biso   1.000  O
  O40      1.0000 0.95850  0.57390  0.74200  Biso   1.000  O
  O41      1.0000 0.40587  0.64900  0.25358  Biso   1.000  O
  O42      1.0000 0.09413  0.14900  0.24642  Biso   1.000  O
  O43      1.0000 0.59413  0.35100  0.74642  Biso   1.000  O
  O44      1.0000 0.90587  0.85100  0.75358  Biso   1.000  O
  O45      1.0000 0.36610  0.80010  0.19922  Biso   1.000  O
  O46      1.0000 0.13390  0.30010  0.30078  Biso   1.000  O
  O47      1.0000 0.63390  0.19990  0.80078  Biso   1.000  O
  O48      1.0000 0.86610  0.69990  0.69922  Biso   1.000  O
  O49      1.0000 0.32303  0.24270  0.24266  Biso   1.000  O
  O50      1.0000 0.17697  0.74270  0.25734  Biso   1.000  O
  O51      1.0000 0.67697  0.75730  0.75734  Biso   1.000  O
  O52      1.0000 0.82303  0.25730  0.74266  Biso   1.000  O
  H109     1.0000 0.30600  0.18920  0.26160  Biso   1.000  H
  H110     1.0000 0.19400  0.68920  0.23840  Biso   1.000  H
  H111     1.0000 0.69400  0.81080  0.73840  Biso   1.000  H
  H112     1.0000 0.80600  0.31080  0.76160  Biso   1.000  H
  H113     1.0000 0.29460  0.33630  0.23160  Biso   1.000  H
  H114     1.0000 0.20540  0.83630  0.26840  Biso   1.000  H
  H115     1.0000 0.70540  0.66370  0.76840  Biso   1.000  H
  H116     1.0000 0.79460  0.16370  0.73160  Biso   1.000  H
  N41      1.0000 0.18120  0.39600  0.10357  Biso   1.000  N
  N42      1.0000 0.31880  0.89600  0.39643  Biso   1.000  N
  N43      1.0000 0.81880  0.60400  0.89643  Biso   1.000  N
  N44      1.0000 0.68120  0.10400  0.60357  Biso   1.000  N
  O53      1.0000 0.16030  0.34970  0.13441  Biso   1.000  O
  O54      1.0000 0.33970  0.84970  0.36559  Biso   1.000  O
  O55      1.0000 0.83970  0.65030  0.86559  Biso   1.000  O
  O56      1.0000 0.66030  0.15030  0.63441  Biso   1.000  O
  O57      1.0000 0.21520  0.55560  0.10160  Biso   1.000  O
  O58      1.0000 0.28480  0.05560  0.39840  Biso   1.000  O
  O59      1.0000 0.78480  0.44440  0.89840  Biso   1.000  O
  O60      1.0000 0.71520  0.94440  0.60160  Biso   1.000  O
  O61      1.0000 0.17160  0.28170  0.07554  Biso   1.000  O
  O62      1.0000 0.32840  0.78170  0.42446  Biso   1.000  O
  O63      1.0000 0.82840  0.71830  0.92446  Biso   1.000  O
  O64      1.0000 0.67160  0.21830  0.57554  Biso   1.000  O
  O65      1.0000 0.23916  0.54150  0.20212  Biso   1.000  O
  O66      1.0000 0.26084  0.04150  0.29788  Biso   1.000  O
  O67      1.0000 0.76084  0.45850  0.79788  Biso   1.000  O
  O68      1.0000 0.73916  0.95850  0.70212  Biso   1.000  O
  H117     1.0000 0.27790  0.61170  0.19810  Biso   1.000  H
  H118     1.0000 0.22210  0.11170  0.30190  Biso   1.000  H
  H119     1.0000 0.72210  0.38830  0.80190  Biso   1.000  H
  H120     1.0000 0.77790  0.88830  0.69810  Biso   1.000  H
  H121     1.0000 0.21090  0.50110  0.18080  Biso   1.000  H
  H122     1.0000 0.28910  0.00110  0.31920  Biso   1.000  H
  H123     1.0000 0.78910  0.49890  0.81920  Biso   1.000  H
  H124     1.0000 0.71090  0.99890  0.68080  Biso   1.000  H
