data_image0
_cell_length_a       8.075
_cell_length_b       8.188
_cell_length_c       12.486
_cell_angle_alpha    94.988
_cell_angle_beta     107.158
_cell_angle_gamma    104.866

_symmetry_space_group_name_H-M    "P 1"
_symmetry_int_tables_number       1

loop_
  _symmetry_equiv_pos_as_xyz
  'x, y, z'

loop_
  _atom_site_label
  _atom_site_occupancy
  _atom_site_fract_x
  _atom_site_fract_y
  _atom_site_fract_z
  _atom_site_thermal_displace_type
  _atom_site_B_iso_or_equiv
  _atom_site_type_symbol
  Mo1      1.0000 0.51105  0.20578  0.02291  Biso   1.000  Mo
  Mo2      1.0000 0.48895  0.79422  0.97709  Biso   1.000  Mo
  Cu1      1.0000 0.26024  0.49609  0.10287  Biso   1.000  Cu
  Cu2      1.0000 0.73976  0.50391  0.89713  Biso   1.000  Cu
  O1       1.0000 0.31610  0.60050  0.55980  Biso   1.000  O
  O2       1.0000 0.68390  0.39950  0.44020  Biso   1.000  O
  N1       1.0000 0.18680  0.33740  0.20290  Biso   1.000  N
  N2       1.0000 0.81320  0.66260  0.79710  Biso   1.000  N
  O3       1.0000 0.84300  0.60620  0.23680  Biso   1.000  O
  O4       1.0000 0.15700  0.39380  0.76320  Biso   1.000  O
  C1       1.0000 0.17380  0.92350  0.41120  Biso   1.000  C
  C2       1.0000 0.82620  0.07650  0.58880  Biso   1.000  C
  H1       1.0000 0.11040  0.85960  0.33850  Biso   1.000  H
  H2       1.0000 0.88960  0.14040  0.66150  Biso   1.000  H
  Mo3      1.0000 0.87046  0.16057  0.96307  Biso   1.000  Mo
  Mo4      1.0000 0.12954  0.83943  0.03693  Biso   1.000  Mo
  O5       1.0000 0.54490  0.36640  0.76246  Biso   1.000  O
  O6       1.0000 0.45510  0.63360  0.23754  Biso   1.000  O
  N3       1.0000 0.01060  0.23030  0.16810  Biso   1.000  N
  N4       1.0000 0.98940  0.76970  0.83190  Biso   1.000  N
  C3       1.0000 0.29960  0.20060  0.53800  Biso   1.000  C
  C4       1.0000 0.70040  0.79940  0.46200  Biso   1.000  C
  H3       1.0000 0.32290  0.31920  0.54890  Biso   1.000  H
  H4       1.0000 0.67710  0.68080  0.45110  Biso   1.000  H
  O7       1.0000 0.33670  0.98320  0.99457  Biso   1.000  O
  O8       1.0000 0.66330  0.01680  0.00543  Biso   1.000  O
  N5       1.0000 0.16150  0.18340  0.33320  Biso   1.000  N
  N6       1.0000 0.83850  0.81660  0.66680  Biso   1.000  N
  C5       1.0000 0.21060  0.10150  0.43050  Biso   1.000  C
  C6       1.0000 0.78940  0.89850  0.56950  Biso   1.000  C
  O9       1.0000 0.09860  0.54990  0.39710  Biso   1.000  O
  O10      1.0000 0.90140  0.45010  0.60290  Biso   1.000  O
  C7       1.0000 0.32180  0.94000  0.61140  Biso   1.000  C
  C8       1.0000 0.67820  0.06000  0.38860  Biso   1.000  C
  H5       1.0000 0.36020  0.88600  0.67260  Biso   1.000  H
  H6       1.0000 0.63980  0.11400  0.32740  Biso   1.000  H
  O11      1.0000 0.04880  0.34540  0.97595  Biso   1.000  O
  O12      1.0000 0.95120  0.65460  0.02405  Biso   1.000  O
  C9       1.0000 0.21850  0.65490  0.48820  Biso   1.000  C
  C10      1.0000 0.78150  0.34510  0.51180  Biso   1.000  C
  O13      1.0000 0.00000  0.00000  0.00000  Biso   1.000  O
  C11      1.0000 0.44430  0.21450  0.74970  Biso   1.000  C
  C12      1.0000 0.55570  0.78550  0.25030  Biso   1.000  C
  O14      1.0000 0.59970  0.24560  0.16670  Biso   1.000  O
  O15      1.0000 0.40030  0.75440  0.83330  Biso   1.000  O
  C13      1.0000 0.27400  0.30880  0.30180  Biso   1.000  C
  C14      1.0000 0.72600  0.69120  0.69820  Biso   1.000  C
  H7       1.0000 0.39460  0.36550  0.34420  Biso   1.000  H
  H8       1.0000 0.60540  0.63450  0.65580  Biso   1.000  H
  O16      1.0000 0.72550  0.32190  0.98752  Biso   1.000  O
  O17      1.0000 0.27450  0.67810  0.01248  Biso   1.000  O
  C15      1.0000 0.35320  0.11790  0.62940  Biso   1.000  C
  C16      1.0000 0.64680  0.88210  0.37060  Biso   1.000  C
  O18      1.0000 0.38360  0.34500  0.00000  Biso   1.000  O
  O19      1.0000 0.61640  0.65500  0.00000  Biso   1.000  O
  C17      1.0000 0.99890  0.13890  0.24710  Biso   1.000  C
  C18      1.0000 0.00110  0.86110  0.75290  Biso   1.000  C
  H9       1.0000 0.89490  0.05530  0.24530  Biso   1.000  H
  H10      1.0000 0.10510  0.94470  0.75470  Biso   1.000  H
  O20      1.0000 0.41170  0.13540  0.82559  Biso   1.000  O
  O21      1.0000 0.58830  0.86460  0.17441  Biso   1.000  O
  C19      1.0000 0.23350  0.84350  0.50250  Biso   1.000  C
  C20      1.0000 0.76650  0.15650  0.49750  Biso   1.000  C
  O22      1.0000 0.77880  0.09740  0.82050  Biso   1.000  O
  O23      1.0000 0.22120  0.90260  0.17950  Biso   1.000  O
