data_image0
_cell_length_a       8.53
_cell_length_b       18.5
_cell_length_c       8.74
_cell_angle_alpha    90
_cell_angle_beta     90
_cell_angle_gamma    90

_symmetry_space_group_name_H-M    "P 1"
_symmetry_int_tables_number       1

loop_
  _symmetry_equiv_pos_as_xyz
  'x, y, z'

loop_
  _atom_site_label
  _atom_site_occupancy
  _atom_site_fract_x
  _atom_site_fract_y
  _atom_site_fract_z
  _atom_site_thermal_displace_type
  _atom_site_B_iso_or_equiv
  _atom_site_type_symbol
  C1       1.0000 0.34090  0.17010  0.30700  Biso   1.000  C
  C2       1.0000 0.15910  0.67010  0.80700  Biso   1.000  C
  C3       1.0000 0.84090  0.32990  0.30700  Biso   1.000  C
  C4       1.0000 0.65910  0.82990  0.80700  Biso   1.000  C
  C5       1.0000 0.37510  0.09270  0.26500  Biso   1.000  C
  C6       1.0000 0.12490  0.59270  0.76500  Biso   1.000  C
  C7       1.0000 0.87510  0.40730  0.26500  Biso   1.000  C
  C8       1.0000 0.62490  0.90730  0.76500  Biso   1.000  C
  C9       1.0000 0.24010  0.06620  0.18020  Biso   1.000  C
  C10      1.0000 0.25990  0.56620  0.68020  Biso   1.000  C
  C11      1.0000 0.74010  0.43380  0.18020  Biso   1.000  C
  C12      1.0000 0.75990  0.93380  0.68020  Biso   1.000  C
  C13      1.0000 0.37750  0.07210  0.91320  Biso   1.000  C
  C14      1.0000 0.12250  0.57210  0.41320  Biso   1.000  C
  C15      1.0000 0.87750  0.42790  0.91320  Biso   1.000  C
  C16      1.0000 0.62250  0.92790  0.41320  Biso   1.000  C
  C17      1.0000 0.33350  0.08970  0.74050  Biso   1.000  C
  C18      1.0000 0.16650  0.58970  0.24050  Biso   1.000  C
  C19      1.0000 0.83350  0.41030  0.74050  Biso   1.000  C
  C20      1.0000 0.66650  0.91030  0.24050  Biso   1.000  C
  C21      1.0000 0.36600  0.16800  0.72800  Biso   1.000  C
  C22      1.0000 0.13400  0.66800  0.22800  Biso   1.000  C
  C23      1.0000 0.86600  0.33200  0.72800  Biso   1.000  C
  C24      1.0000 0.63400  0.83200  0.22800  Biso   1.000  C
  C25      1.0000 0.82330  0.15640  0.01540  Biso   1.000  C
  C26      1.0000 0.67670  0.65640  0.51540  Biso   1.000  C
  C27      1.0000 0.32330  0.34360  0.01540  Biso   1.000  C
  C28      1.0000 0.17670  0.84360  0.51540  Biso   1.000  C
  C29      1.0000 0.82590  0.07580  0.99230  Biso   1.000  C
  C30      1.0000 0.67410  0.57580  0.49230  Biso   1.000  C
  C31      1.0000 0.32590  0.42420  0.99230  Biso   1.000  C
  C32      1.0000 0.17410  0.92420  0.49230  Biso   1.000  C
  H1       1.0000 0.12100  0.17400  0.27000  Biso   1.000  H
  H2       1.0000 0.37900  0.67400  0.77000  Biso   1.000  H
  H3       1.0000 0.62100  0.32600  0.27000  Biso   1.000  H
  H4       1.0000 0.87900  0.82600  0.77000  Biso   1.000  H
  H5       1.0000 0.39100  0.01400  0.93000  Biso   1.000  H
  H6       1.0000 0.10900  0.51400  0.43000  Biso   1.000  H
  H7       1.0000 0.89100  0.48600  0.93000  Biso   1.000  H
  H8       1.0000 0.60900  0.98600  0.43000  Biso   1.000  H
  H9       1.0000 0.48600  0.09900  0.94600  Biso   1.000  H
  H10      1.0000 0.01400  0.59900  0.44600  Biso   1.000  H
  H11      1.0000 0.98600  0.40100  0.94600  Biso   1.000  H
  H12      1.0000 0.51400  0.90100  0.44600  Biso   1.000  H
  H13      1.0000 0.21000  0.07900  0.71500  Biso   1.000  H
  H14      1.0000 0.29000  0.57900  0.21500  Biso   1.000  H
  H15      1.0000 0.71000  0.42100  0.71500  Biso   1.000  H
  H16      1.0000 0.79000  0.92100  0.21500  Biso   1.000  H
  H17      1.0000 0.40600  0.06000  0.65900  Biso   1.000  H
  H18      1.0000 0.09400  0.56000  0.15900  Biso   1.000  H
  H19      1.0000 0.90600  0.44000  0.65900  Biso   1.000  H
  H20      1.0000 0.59400  0.94000  0.15900  Biso   1.000  H
  H21      1.0000 0.40000  0.17900  0.61000  Biso   1.000  H
  H22      1.0000 0.10000  0.67900  0.11000  Biso   1.000  H
  H23      1.0000 0.90000  0.32100  0.61000  Biso   1.000  H
  H24      1.0000 0.60000  0.82100  0.11000  Biso   1.000  H
  H25      1.0000 0.46400  0.18000  0.80300  Biso   1.000  H
  H26      1.0000 0.03600  0.68000  0.30300  Biso   1.000  H
  H27      1.0000 0.96400  0.32000  0.80300  Biso   1.000  H
  H28      1.0000 0.53600  0.82000  0.30300  Biso   1.000  H
  H29      1.0000 0.12700  0.19500  0.70600  Biso   1.000  H
  H30      1.0000 0.37300  0.69500  0.20600  Biso   1.000  H
  H31      1.0000 0.62700  0.30500  0.70600  Biso   1.000  H
  H32      1.0000 0.87300  0.80500  0.20600  Biso   1.000  H
  H33      1.0000 0.25600  0.27000  0.72900  Biso   1.000  H
  H34      1.0000 0.24400  0.77000  0.22900  Biso   1.000  H
  H35      1.0000 0.75600  0.23000  0.72900  Biso   1.000  H
  H36      1.0000 0.74400  0.73000  0.22900  Biso   1.000  H
  H37      1.0000 0.82700  0.04600  0.09100  Biso   1.000  H
  H38      1.0000 0.67300  0.54600  0.59100  Biso   1.000  H
  H39      1.0000 0.32700  0.45400  0.09100  Biso   1.000  H
  H40      1.0000 0.17300  0.95400  0.59100  Biso   1.000  H
  H41      1.0000 0.93000  0.06200  0.92100  Biso   1.000  H
  H42      1.0000 0.57000  0.56200  0.42100  Biso   1.000  H
  H43      1.0000 0.43000  0.43800  0.92100  Biso   1.000  H
  H44      1.0000 0.07000  0.93800  0.42100  Biso   1.000  H
  H45      1.0000 0.22600  0.25700  0.27100  Biso   1.000  H
  H46      1.0000 0.27400  0.75700  0.77100  Biso   1.000  H
  H47      1.0000 0.72600  0.24300  0.27100  Biso   1.000  H
  H48      1.0000 0.77400  0.74300  0.77100  Biso   1.000  H
  H49      1.0000 0.72500  0.06100  0.92000  Biso   1.000  H
  H50      1.0000 0.77500  0.56100  0.42000  Biso   1.000  H
  H51      1.0000 0.22500  0.43900  0.92000  Biso   1.000  H
  H52      1.0000 0.27500  0.93900  0.42000  Biso   1.000  H
  H53      1.0000 0.30600  0.17300  0.42700  Biso   1.000  H
  H54      1.0000 0.19400  0.67300  0.92700  Biso   1.000  H
  H55      1.0000 0.80600  0.32700  0.42700  Biso   1.000  H
  H56      1.0000 0.69400  0.82700  0.92700  Biso   1.000  H
  H57      1.0000 0.44600  0.20300  0.29100  Biso   1.000  H
  H58      1.0000 0.05400  0.70300  0.79100  Biso   1.000  H
  H59      1.0000 0.94600  0.29700  0.29100  Biso   1.000  H
  H60      1.0000 0.55400  0.79700  0.79100  Biso   1.000  H
  H61      1.0000 0.39200  0.06000  0.36700  Biso   1.000  H
  H62      1.0000 0.10800  0.56000  0.86700  Biso   1.000  H
  H63      1.0000 0.89200  0.44000  0.36700  Biso   1.000  H
  H64      1.0000 0.60800  0.94000  0.86700  Biso   1.000  H
  H65      1.0000 0.48000  0.08900  0.19400  Biso   1.000  H
  H66      1.0000 0.02000  0.58900  0.69400  Biso   1.000  H
  H67      1.0000 0.98000  0.41100  0.19400  Biso   1.000  H
  H68      1.0000 0.52000  0.91100  0.69400  Biso   1.000  H
  H69      1.0000 0.24200  0.00700  0.17900  Biso   1.000  H
  H70      1.0000 0.25800  0.50700  0.67900  Biso   1.000  H
  H71      1.0000 0.74200  0.49300  0.17900  Biso   1.000  H
  H72      1.0000 0.75800  0.99300  0.67900  Biso   1.000  H
  H73      1.0000 0.17300  0.06300  0.95500  Biso   1.000  H
  H74      1.0000 0.32700  0.56300  0.45500  Biso   1.000  H
  H75      1.0000 0.67300  0.43700  0.95500  Biso   1.000  H
  H76      1.0000 0.82700  0.93700  0.45500  Biso   1.000  H
  N1       1.0000 0.21850  0.20340  0.21920  Biso   1.000  N
  N2       1.0000 0.28150  0.70340  0.71920  Biso   1.000  N
  N3       1.0000 0.71850  0.29660  0.21920  Biso   1.000  N
  N4       1.0000 0.78150  0.79660  0.71920  Biso   1.000  N
  N5       1.0000 0.25490  0.09710  0.01810  Biso   1.000  N
  N6       1.0000 0.24510  0.59710  0.51810  Biso   1.000  N
  N7       1.0000 0.75490  0.40290  0.01810  Biso   1.000  N
  N8       1.0000 0.74510  0.90290  0.51810  Biso   1.000  N
  N9       1.0000 0.22680  0.21900  0.77060  Biso   1.000  N
  N10      1.0000 0.27320  0.71900  0.27060  Biso   1.000  N
  N11      1.0000 0.72680  0.28100  0.77060  Biso   1.000  N
  N12      1.0000 0.77320  0.78100  0.27060  Biso   1.000  N
  O1       1.0000 0.94400  0.19250  0.98010  Biso   1.000  O
  O2       1.0000 0.55600  0.69250  0.48010  Biso   1.000  O
  O3       1.0000 0.44400  0.30750  0.98010  Biso   1.000  O
  O4       1.0000 0.05600  0.80750  0.48010  Biso   1.000  O
  O5       1.0000 0.18830  0.31430  0.01290  Biso   1.000  O
  O6       1.0000 0.31170  0.81430  0.51290  Biso   1.000  O
  O7       1.0000 0.68830  0.18570  0.01290  Biso   1.000  O
  O8       1.0000 0.81170  0.68570  0.51290  Biso   1.000  O
  O9       1.0000 0.21390  0.36510  0.43500  Biso   1.000  O
  O10      1.0000 0.28610  0.86510  0.93500  Biso   1.000  O
  O11      1.0000 0.71390  0.13490  0.43500  Biso   1.000  O
  O12      1.0000 0.78610  0.63490  0.93500  Biso   1.000  O
  O13      1.0000 0.40290  0.44320  0.44730  Biso   1.000  O
  O14      1.0000 0.09710  0.94320  0.94730  Biso   1.000  O
  O15      1.0000 0.90290  0.05680  0.44730  Biso   1.000  O
  O16      1.0000 0.59710  0.55680  0.94730  Biso   1.000  O
  O17      1.0000 0.43320  0.31970  0.42300  Biso   1.000  O
  O18      1.0000 0.06680  0.81970  0.92300  Biso   1.000  O
  O19      1.0000 0.93320  0.18030  0.42300  Biso   1.000  O
  O20      1.0000 0.56680  0.68030  0.92300  Biso   1.000  O
  O21      1.0000 0.37180  0.36430  0.65750  Biso   1.000  O
  O22      1.0000 0.12820  0.86430  0.15750  Biso   1.000  O
  O23      1.0000 0.87180  0.13570  0.65750  Biso   1.000  O
  O24      1.0000 0.62820  0.63570  0.15750  Biso   1.000  O
  Cl1      1.0000 0.35300  0.37340  0.50800  Biso   1.000  Cl
  Cl2      1.0000 0.14700  0.87340  0.00800  Biso   1.000  Cl
  Cl3      1.0000 0.85300  0.12660  0.50800  Biso   1.000  Cl
  Cl4      1.0000 0.64700  0.62660  0.00800  Biso   1.000  Cl
  Cu1      1.0000 0.21070  0.20600  0.00000  Biso   1.000  Cu
  Cu2      1.0000 0.28930  0.70600  0.50000  Biso   1.000  Cu
  Cu3      1.0000 0.71070  0.29400  0.00000  Biso   1.000  Cu
  Cu4      1.0000 0.78930  0.79400  0.50000  Biso   1.000  Cu
