data_image0
_cell_length_a       11.585
_cell_length_b       9.652
_cell_length_c       15.45
_cell_angle_alpha    90
_cell_angle_beta     123.604
_cell_angle_gamma    90

_symmetry_space_group_name_H-M    "P 1"
_symmetry_int_tables_number       1

loop_
  _symmetry_equiv_pos_as_xyz
  'x, y, z'

loop_
  _atom_site_label
  _atom_site_occupancy
  _atom_site_fract_x
  _atom_site_fract_y
  _atom_site_fract_z
  _atom_site_thermal_displace_type
  _atom_site_B_iso_or_equiv
  _atom_site_type_symbol
  Cu1      1.0000 0.00000  0.00000  0.50000  Biso   1.000  Cu
  Cu2      1.0000 0.00000  0.50000  0.00000  Biso   1.000  Cu
  N1       1.0000 0.14440  0.93080  0.64001  Biso   1.000  N
  N2       1.0000 0.85560  0.43080  0.85999  Biso   1.000  N
  N3       1.0000 0.85560  0.06920  0.35999  Biso   1.000  N
  N4       1.0000 0.14440  0.56920  0.14001  Biso   1.000  N
  N5       1.0000 0.26290  0.90080  0.80892  Biso   1.000  N
  N6       1.0000 0.73710  0.40080  0.69108  Biso   1.000  N
  N7       1.0000 0.73710  0.09920  0.19108  Biso   1.000  N
  N8       1.0000 0.26290  0.59920  0.30892  Biso   1.000  N
  N9       1.0000 0.18790  0.11720  0.05555  Biso   1.000  N
  N10      1.0000 0.81210  0.61720  0.44445  Biso   1.000  N
  N11      1.0000 0.81210  0.88280  0.94445  Biso   1.000  N
  N12      1.0000 0.18790  0.38280  0.55555  Biso   1.000  N
  N13      1.0000 0.07290  0.30570  0.04231  Biso   1.000  N
  N14      1.0000 0.92710  0.80570  0.45769  Biso   1.000  N
  N15      1.0000 0.92710  0.69430  0.95769  Biso   1.000  N
  N16      1.0000 0.07290  0.19430  0.54231  Biso   1.000  N
  N17      1.0000 0.18390  0.94790  0.36830  Biso   1.000  N
  N18      1.0000 0.81610  0.44790  0.13170  Biso   1.000  N
  N19      1.0000 0.81610  0.05210  0.63170  Biso   1.000  N
  N20      1.0000 0.18390  0.55210  0.86830  Biso   1.000  N
  O1       1.0000 0.10000  0.88490  0.28647  Biso   1.000  O
  O2       1.0000 0.90000  0.38490  0.21353  Biso   1.000  O
  O3       1.0000 0.90000  0.11510  0.71353  Biso   1.000  O
  O4       1.0000 0.10000  0.61510  0.78647  Biso   1.000  O
  O5       1.0000 0.16630  0.95230  0.44070  Biso   1.000  O
  O6       1.0000 0.83370  0.45230  0.05930  Biso   1.000  O
  O7       1.0000 0.83370  0.04770  0.55930  Biso   1.000  O
  O8       1.0000 0.16630  0.54770  0.94070  Biso   1.000  O
  O9       1.0000 0.28670  0.00020  0.37900  Biso   1.000  O
  O10      1.0000 0.71330  0.50020  0.12100  Biso   1.000  O
  O11      1.0000 0.71330  0.99980  0.62100  Biso   1.000  O
  O12      1.0000 0.28670  0.49980  0.87900  Biso   1.000  O
  C1       1.0000 0.25470  0.84730  0.66870  Biso   1.000  C
  C2       1.0000 0.74530  0.34730  0.83130  Biso   1.000  C
  C3       1.0000 0.74530  0.15270  0.33130  Biso   1.000  C
  C4       1.0000 0.25470  0.65270  0.16870  Biso   1.000  C
  H1       1.0000 0.27560  0.80950  0.62350  Biso   1.000  H
  H2       1.0000 0.72440  0.30950  0.87650  Biso   1.000  H
  H3       1.0000 0.72440  0.19050  0.37650  Biso   1.000  H
  H4       1.0000 0.27560  0.69050  0.12350  Biso   1.000  H
  C5       1.0000 0.32880  0.82740  0.77210  Biso   1.000  C
  C6       1.0000 0.67120  0.32740  0.72790  Biso   1.000  C
  C7       1.0000 0.67120  0.17260  0.22790  Biso   1.000  C
  C8       1.0000 0.32880  0.67260  0.27210  Biso   1.000  C
  H5       1.0000 0.40890  0.77450  0.81100  Biso   1.000  H
  H6       1.0000 0.59110  0.27450  0.68900  Biso   1.000  H
  H7       1.0000 0.59110  0.22550  0.18900  Biso   1.000  H
  H8       1.0000 0.40890  0.72550  0.31100  Biso   1.000  H
  C9       1.0000 0.15220  0.96120  0.72590  Biso   1.000  C
  C10      1.0000 0.84780  0.46120  0.77410  Biso   1.000  C
  C11      1.0000 0.84780  0.03880  0.27410  Biso   1.000  C
  C12      1.0000 0.15220  0.53880  0.22590  Biso   1.000  C
  H9       1.0000 0.08920  0.01720  0.72900  Biso   1.000  H
  H10      1.0000 0.91080  0.51720  0.77100  Biso   1.000  H
  H11      1.0000 0.91080  0.98280  0.27100  Biso   1.000  H
  H12      1.0000 0.08920  0.48280  0.22900  Biso   1.000  H
  C13      1.0000 0.30230  0.91640  0.91399  Biso   1.000  C
  C14      1.0000 0.69770  0.41640  0.58601  Biso   1.000  C
  C15      1.0000 0.69770  0.08360  0.08601  Biso   1.000  C
  C16      1.0000 0.30230  0.58360  0.41399  Biso   1.000  C
  C17      1.0000 0.41420  0.84490  0.99370  Biso   1.000  C
  C18      1.0000 0.58580  0.34490  0.50630  Biso   1.000  C
  C19      1.0000 0.58580  0.15510  0.00630  Biso   1.000  C
  C20      1.0000 0.41420  0.65510  0.49370  Biso   1.000  C
  H13      1.0000 0.46390  0.78470  0.97910  Biso   1.000  H
  H14      1.0000 0.53610  0.28470  0.52090  Biso   1.000  H
  H15      1.0000 0.53610  0.21530  0.02090  Biso   1.000  H
  H16      1.0000 0.46390  0.71530  0.47910  Biso   1.000  H
  C21      1.0000 0.45300  0.86250  0.09610  Biso   1.000  C
  C22      1.0000 0.54700  0.36250  0.40390  Biso   1.000  C
  C23      1.0000 0.54700  0.13750  0.90390  Biso   1.000  C
  C24      1.0000 0.45300  0.63750  0.59610  Biso   1.000  C
  C25      1.0000 0.37820  0.95300  0.11690  Biso   1.000  C
  C26      1.0000 0.62180  0.45300  0.38310  Biso   1.000  C
  C27      1.0000 0.62180  0.04700  0.88310  Biso   1.000  C
  C28      1.0000 0.37820  0.54700  0.61690  Biso   1.000  C
  H17      1.0000 0.40330  0.96670  0.18480  Biso   1.000  H
  H18      1.0000 0.59670  0.46670  0.31520  Biso   1.000  H
  H19      1.0000 0.59670  0.03330  0.81520  Biso   1.000  H
  H20      1.0000 0.40330  0.53330  0.68480  Biso   1.000  H
  C29      1.0000 0.26610  0.02250  0.03580  Biso   1.000  C
  C30      1.0000 0.73390  0.52250  0.46420  Biso   1.000  C
  C31      1.0000 0.73390  0.97750  0.96420  Biso   1.000  C
  C32      1.0000 0.26610  0.47750  0.53580  Biso   1.000  C
  C33      1.0000 0.22650  0.00520  0.93450  Biso   1.000  C
  C34      1.0000 0.77350  0.50520  0.56550  Biso   1.000  C
  C35      1.0000 0.77350  0.99480  0.06550  Biso   1.000  C
  C36      1.0000 0.22650  0.49480  0.43450  Biso   1.000  C
  H21      1.0000 0.15020  0.05230  0.88080  Biso   1.000  H
  H22      1.0000 0.84980  0.55230  0.61920  Biso   1.000  H
  H23      1.0000 0.84980  0.94770  0.11920  Biso   1.000  H
  H24      1.0000 0.15020  0.44770  0.38080  Biso   1.000  H
  C37      1.0000 0.57550  0.78550  0.18340  Biso   1.000  C
  C38      1.0000 0.42450  0.28550  0.31660  Biso   1.000  C
  C39      1.0000 0.42450  0.21450  0.81660  Biso   1.000  C
  C40      1.0000 0.57550  0.71450  0.68340  Biso   1.000  C
  H25      1.0000 0.61860  0.84050  0.24550  Biso   1.000  H
  H26      1.0000 0.38140  0.34050  0.25450  Biso   1.000  H
  H27      1.0000 0.38140  0.15950  0.75450  Biso   1.000  H
  H28      1.0000 0.61860  0.65950  0.74550  Biso   1.000  H
  H29      1.0000 0.64110  0.76760  0.16520  Biso   1.000  H
  H30      1.0000 0.35890  0.26760  0.33480  Biso   1.000  H
  H31      1.0000 0.35890  0.23240  0.83480  Biso   1.000  H
  H32      1.0000 0.64110  0.73240  0.66520  Biso   1.000  H
  H33      1.0000 0.54490  0.69930  0.19510  Biso   1.000  H
  H34      1.0000 0.45510  0.19930  0.30490  Biso   1.000  H
  H35      1.0000 0.45510  0.30070  0.80490  Biso   1.000  H
  H36      1.0000 0.54490  0.80070  0.69510  Biso   1.000  H
  C41      1.0000 0.14730  0.24420  0.01300  Biso   1.000  C
  C42      1.0000 0.85270  0.74420  0.48700  Biso   1.000  C
  C43      1.0000 0.85270  0.75580  0.98700  Biso   1.000  C
  C44      1.0000 0.14730  0.25580  0.51300  Biso   1.000  C
  H37      1.0000 0.16890  0.28320  0.96860  Biso   1.000  H
  H38      1.0000 0.83110  0.78320  0.53140  Biso   1.000  H
  H39      1.0000 0.83110  0.71680  0.03140  Biso   1.000  H
  H40      1.0000 0.16890  0.21680  0.46860  Biso   1.000  H
  C45      1.0000 0.06590  0.21340  0.10690  Biso   1.000  C
  C46      1.0000 0.93410  0.71340  0.39310  Biso   1.000  C
  C47      1.0000 0.93410  0.78660  0.89310  Biso   1.000  C
  C48      1.0000 0.06590  0.28660  0.60690  Biso   1.000  C
  H41      1.0000 0.01940  0.22870  0.13950  Biso   1.000  H
  H42      1.0000 0.98060  0.72870  0.36050  Biso   1.000  H
  H43      1.0000 0.98060  0.77130  0.86050  Biso   1.000  H
  H44      1.0000 0.01940  0.27130  0.63950  Biso   1.000  H
  C49      1.0000 0.13640  0.09750  0.11590  Biso   1.000  C
  C50      1.0000 0.86360  0.59750  0.38410  Biso   1.000  C
  C51      1.0000 0.86360  0.90250  0.88410  Biso   1.000  C
  C52      1.0000 0.13640  0.40250  0.61590  Biso   1.000  C
  H45      1.0000 0.14780  0.01950  0.15530  Biso   1.000  H
  H46      1.0000 0.85220  0.51950  0.34470  Biso   1.000  H
  H47      1.0000 0.85220  0.98050  0.84470  Biso   1.000  H
  H48      1.0000 0.14780  0.48050  0.65530  Biso   1.000  H
  O13      1.0000 0.53990  0.92680  0.39280  Biso   1.000  O
  O14      1.0000 0.46010  0.42680  0.10720  Biso   1.000  O
  O15      1.0000 0.46010  0.07320  0.60720  Biso   1.000  O
  O16      1.0000 0.53990  0.57320  0.89280  Biso   1.000  O
  H49      1.0000 0.46900  0.95800  0.39300  Biso   1.000  H
  H50      1.0000 0.53100  0.45800  0.10700  Biso   1.000  H
  H51      1.0000 0.53100  0.04200  0.60700  Biso   1.000  H
  H52      1.0000 0.46900  0.54200  0.89300  Biso   1.000  H
  H53      1.0000 0.59800  0.96400  0.45200  Biso   1.000  H
  H54      1.0000 0.40200  0.46400  0.04800  Biso   1.000  H
  H55      1.0000 0.40200  0.03600  0.54800  Biso   1.000  H
  H56      1.0000 0.59800  0.53600  0.95200  Biso   1.000  H
