data_image0
_cell_length_a       8.275
_cell_length_b       8.346
_cell_length_c       8.018
_cell_angle_alpha    90
_cell_angle_beta     96.36
_cell_angle_gamma    90

_symmetry_space_group_name_H-M    "P 1"
_symmetry_int_tables_number       1

loop_
  _symmetry_equiv_pos_as_xyz
  'x, y, z'

loop_
  _atom_site_label
  _atom_site_occupancy
  _atom_site_fract_x
  _atom_site_fract_y
  _atom_site_fract_z
  _atom_site_thermal_displace_type
  _atom_site_B_iso_or_equiv
  _atom_site_type_symbol
  Cu1      1.0000 0.00000  0.00000  0.00000  Biso   1.000  Cu
  Cu2      1.0000 0.00000  0.50000  0.50000  Biso   1.000  Cu
  C1       1.0000 0.98390  0.26800  0.23420  Biso   1.000  C
  C2       1.0000 0.01610  0.76800  0.26580  Biso   1.000  C
  C3       1.0000 0.01610  0.73200  0.76580  Biso   1.000  C
  C4       1.0000 0.98390  0.23200  0.73420  Biso   1.000  C
  H1       1.0000 0.34860  0.06920  0.10190  Biso   1.000  H
  H2       1.0000 0.65140  0.56920  0.39810  Biso   1.000  H
  H3       1.0000 0.65140  0.93080  0.89810  Biso   1.000  H
  H4       1.0000 0.34860  0.43080  0.60190  Biso   1.000  H
  H5       1.0000 0.32800  0.07690  0.94660  Biso   1.000  H
  H6       1.0000 0.67200  0.57690  0.55340  Biso   1.000  H
  H7       1.0000 0.67200  0.92310  0.05340  Biso   1.000  H
  H8       1.0000 0.32800  0.42310  0.44660  Biso   1.000  H
  H9       1.0000 0.06350  0.20410  0.31650  Biso   1.000  H
  H10      1.0000 0.93650  0.70410  0.18350  Biso   1.000  H
  H11      1.0000 0.93650  0.79590  0.68350  Biso   1.000  H
  H12      1.0000 0.06350  0.29590  0.81650  Biso   1.000  H
  O1       1.0000 0.93560  0.20500  0.09720  Biso   1.000  O
  O2       1.0000 0.06440  0.70500  0.40280  Biso   1.000  O
  O3       1.0000 0.06440  0.79500  0.90280  Biso   1.000  O
  O4       1.0000 0.93560  0.29500  0.59720  Biso   1.000  O
  O5       1.0000 0.05310  0.90570  0.22420  Biso   1.000  O
  O6       1.0000 0.94690  0.40570  0.27580  Biso   1.000  O
  O7       1.0000 0.94690  0.09430  0.77580  Biso   1.000  O
  O8       1.0000 0.05310  0.59430  0.72420  Biso   1.000  O
  O9       1.0000 0.27950  0.09500  0.02460  Biso   1.000  O
  O10      1.0000 0.72050  0.59500  0.47540  Biso   1.000  O
  O11      1.0000 0.72050  0.90500  0.97540  Biso   1.000  O
  O12      1.0000 0.27950  0.40500  0.52460  Biso   1.000  O
  C5       1.0000 0.63070  0.04680  0.36200  Biso   1.000  C
  C6       1.0000 0.36930  0.54680  0.13800  Biso   1.000  C
  C7       1.0000 0.36930  0.95320  0.63800  Biso   1.000  C
  C8       1.0000 0.63070  0.45320  0.86200  Biso   1.000  C
  H13      1.0000 0.70970  0.24130  0.46050  Biso   1.000  H
  H14      1.0000 0.29030  0.74130  0.03950  Biso   1.000  H
  H15      1.0000 0.29030  0.75870  0.53950  Biso   1.000  H
  H16      1.0000 0.70970  0.25870  0.96050  Biso   1.000  H
  H17      1.0000 0.58690  0.25720  0.32350  Biso   1.000  H
  H18      1.0000 0.41310  0.75720  0.17650  Biso   1.000  H
  H19      1.0000 0.41310  0.74280  0.67650  Biso   1.000  H
  H20      1.0000 0.58690  0.24280  0.82350  Biso   1.000  H
  H21      1.0000 0.78010  0.00820  0.54350  Biso   1.000  H
  H22      1.0000 0.21990  0.50820  0.95650  Biso   1.000  H
  H23      1.0000 0.21990  0.99180  0.45650  Biso   1.000  H
  H24      1.0000 0.78010  0.49180  0.04350  Biso   1.000  H
  H25      1.0000 0.72660  0.86620  0.45980  Biso   1.000  H
  H26      1.0000 0.27340  0.36620  0.04020  Biso   1.000  H
  H27      1.0000 0.27340  0.13380  0.54020  Biso   1.000  H
  H28      1.0000 0.72660  0.63380  0.95980  Biso   1.000  H
  N1       1.0000 0.63030  0.20300  0.38680  Biso   1.000  N
  N2       1.0000 0.36970  0.70300  0.11320  Biso   1.000  N
  N3       1.0000 0.36970  0.79700  0.61320  Biso   1.000  N
  N4       1.0000 0.63030  0.29700  0.88680  Biso   1.000  N
  N5       1.0000 0.73070  0.95890  0.46620  Biso   1.000  N
  N6       1.0000 0.26930  0.45890  0.03380  Biso   1.000  N
  N7       1.0000 0.26930  0.04110  0.53380  Biso   1.000  N
  N8       1.0000 0.73070  0.54110  0.96620  Biso   1.000  N
  O13      1.0000 0.54260  0.98100  0.24300  Biso   1.000  O
  O14      1.0000 0.45740  0.48100  0.25700  Biso   1.000  O
  O15      1.0000 0.45740  0.01900  0.75700  Biso   1.000  O
  O16      1.0000 0.54260  0.51900  0.74300  Biso   1.000  O
