data_image0
_cell_length_a       8.1584
_cell_length_b       8.3683
_cell_length_c       8.088
_cell_angle_alpha    90
_cell_angle_beta     95.813
_cell_angle_gamma    90

_symmetry_space_group_name_H-M    "P 1"
_symmetry_int_tables_number       1

loop_
  _symmetry_equiv_pos_as_xyz
  'x, y, z'

loop_
  _atom_site_label
  _atom_site_occupancy
  _atom_site_fract_x
  _atom_site_fract_y
  _atom_site_fract_z
  _atom_site_thermal_displace_type
  _atom_site_B_iso_or_equiv
  _atom_site_type_symbol
  Cu1      1.0000 0.00000  0.00000  0.00000  Biso   1.000  Cu
  Cu2      1.0000 0.00000  0.50000  0.50000  Biso   1.000  Cu
  C1       1.0000 0.98449  0.26880  0.23341  Biso   1.000  C
  C2       1.0000 0.01551  0.76880  0.26659  Biso   1.000  C
  C3       1.0000 0.01551  0.73120  0.76659  Biso   1.000  C
  C4       1.0000 0.98449  0.23120  0.73341  Biso   1.000  C
  O1       1.0000 0.93285  0.20506  0.09654  Biso   1.000  O
  O2       1.0000 0.06715  0.70506  0.40346  Biso   1.000  O
  O3       1.0000 0.06715  0.79494  0.90346  Biso   1.000  O
  O4       1.0000 0.93285  0.29494  0.59654  Biso   1.000  O
  O5       1.0000 0.05588  0.90702  0.22498  Biso   1.000  O
  O6       1.0000 0.94412  0.40702  0.27502  Biso   1.000  O
  O7       1.0000 0.94412  0.09298  0.77502  Biso   1.000  O
  O8       1.0000 0.05588  0.59298  0.72498  Biso   1.000  O
  O9       1.0000 0.27973  0.09575  0.02338  Biso   1.000  O
  O10      1.0000 0.72027  0.59575  0.47662  Biso   1.000  O
  O11      1.0000 0.72027  0.90425  0.97662  Biso   1.000  O
  O12      1.0000 0.27973  0.40425  0.52338  Biso   1.000  O
  H1       1.0000 0.35200  0.06200  0.09400  Biso   1.000  H
  H2       1.0000 0.64800  0.56200  0.40600  Biso   1.000  H
  H3       1.0000 0.64800  0.93800  0.90600  Biso   1.000  H
  H4       1.0000 0.35200  0.43800  0.59400  Biso   1.000  H
  H5       1.0000 0.32700  0.08100  0.93300  Biso   1.000  H
  H6       1.0000 0.67300  0.58100  0.56700  Biso   1.000  H
  H7       1.0000 0.67300  0.91900  0.06700  Biso   1.000  H
  H8       1.0000 0.32700  0.41900  0.43300  Biso   1.000  H
  H9       1.0000 0.06300  0.21600  0.31400  Biso   1.000  H
  H10      1.0000 0.93700  0.71600  0.18600  Biso   1.000  H
  H11      1.0000 0.93700  0.78400  0.68600  Biso   1.000  H
  H12      1.0000 0.06300  0.28400  0.81400  Biso   1.000  H
  C5       1.0000 0.62949  0.04464  0.36179  Biso   1.000  C
  C6       1.0000 0.37051  0.54464  0.13821  Biso   1.000  C
  C7       1.0000 0.37051  0.95536  0.63821  Biso   1.000  C
  C8       1.0000 0.62949  0.45536  0.86179  Biso   1.000  C
  O13      1.0000 0.53979  0.98027  0.24261  Biso   1.000  O
  O14      1.0000 0.46021  0.48027  0.25739  Biso   1.000  O
  O15      1.0000 0.46021  0.01973  0.75739  Biso   1.000  O
  O16      1.0000 0.53979  0.51973  0.74261  Biso   1.000  O
  N1       1.0000 0.62868  0.20287  0.38729  Biso   1.000  N
  N2       1.0000 0.37132  0.70287  0.11271  Biso   1.000  N
  N3       1.0000 0.37132  0.79713  0.61271  Biso   1.000  N
  N4       1.0000 0.62868  0.29713  0.88729  Biso   1.000  N
  N5       1.0000 0.73149  0.95602  0.46703  Biso   1.000  N
  N6       1.0000 0.26851  0.45602  0.03297  Biso   1.000  N
  N7       1.0000 0.26851  0.04398  0.53297  Biso   1.000  N
  N8       1.0000 0.73149  0.54398  0.96703  Biso   1.000  N
  H13      1.0000 0.70400  0.23800  0.45300  Biso   1.000  H
  H14      1.0000 0.29600  0.73800  0.04700  Biso   1.000  H
  H15      1.0000 0.29600  0.76200  0.54700  Biso   1.000  H
  H16      1.0000 0.70400  0.26200  0.95300  Biso   1.000  H
  H17      1.0000 0.57300  0.26900  0.32400  Biso   1.000  H
  H18      1.0000 0.42700  0.76900  0.17600  Biso   1.000  H
  H19      1.0000 0.42700  0.73100  0.67600  Biso   1.000  H
  H20      1.0000 0.57300  0.23100  0.82400  Biso   1.000  H
  H21      1.0000 0.76100  0.99700  0.53300  Biso   1.000  H
  H22      1.0000 0.23900  0.49700  0.96700  Biso   1.000  H
  H23      1.0000 0.23900  0.00300  0.46700  Biso   1.000  H
  H24      1.0000 0.76100  0.50300  0.03300  Biso   1.000  H
  H25      1.0000 0.72400  0.86700  0.46600  Biso   1.000  H
  H26      1.0000 0.27600  0.36700  0.03400  Biso   1.000  H
  H27      1.0000 0.27600  0.13300  0.53400  Biso   1.000  H
  H28      1.0000 0.72400  0.63300  0.96600  Biso   1.000  H
