data_image0
_cell_length_a       12.788
_cell_length_b       7.523
_cell_length_c       9.691
_cell_angle_alpha    90
_cell_angle_beta     93.76
_cell_angle_gamma    90

_symmetry_space_group_name_H-M    "P 1"
_symmetry_int_tables_number       1

loop_
  _symmetry_equiv_pos_as_xyz
  'x, y, z'

loop_
  _atom_site_label
  _atom_site_occupancy
  _atom_site_fract_x
  _atom_site_fract_y
  _atom_site_fract_z
  _atom_site_thermal_displace_type
  _atom_site_B_iso_or_equiv
  _atom_site_type_symbol
  Cu1      1.0000 0.50000  0.50000  0.50000  Biso   1.000  Cu
  Cu2      1.0000 0.00000  0.00000  0.00000  Biso   1.000  Cu
  Cl1      1.0000 0.49301  0.62044  0.71235  Biso   1.000  Cl
  Cl2      1.0000 0.99301  0.87956  0.21235  Biso   1.000  Cl
  Cl3      1.0000 0.50699  0.37956  0.28765  Biso   1.000  Cl
  Cl4      1.0000 0.00699  0.12044  0.78765  Biso   1.000  Cl
  N1       1.0000 0.60200  0.85150  0.43520  Biso   1.000  N
  N2       1.0000 0.10200  0.64850  0.93520  Biso   1.000  N
  N3       1.0000 0.39800  0.14850  0.56480  Biso   1.000  N
  N4       1.0000 0.89800  0.35150  0.06480  Biso   1.000  N
  N5       1.0000 0.61270  0.67310  0.45580  Biso   1.000  N
  N6       1.0000 0.11270  0.82690  0.95580  Biso   1.000  N
  N7       1.0000 0.38730  0.32690  0.54420  Biso   1.000  N
  N8       1.0000 0.88730  0.17310  0.04420  Biso   1.000  N
  C1       1.0000 0.71420  0.63830  0.44630  Biso   1.000  C
  C2       1.0000 0.21420  0.86170  0.94630  Biso   1.000  C
  C3       1.0000 0.28580  0.36170  0.55370  Biso   1.000  C
  C4       1.0000 0.78580  0.13830  0.05370  Biso   1.000  C
  C5       1.0000 0.76860  0.79350  0.42000  Biso   1.000  C
  C6       1.0000 0.26860  0.70650  0.92000  Biso   1.000  C
  C7       1.0000 0.23140  0.20650  0.58000  Biso   1.000  C
  C8       1.0000 0.73140  0.29350  0.08000  Biso   1.000  C
  C9       1.0000 0.69560  0.92360  0.41500  Biso   1.000  C
  C10      1.0000 0.19560  0.57640  0.91500  Biso   1.000  C
  C11      1.0000 0.30440  0.07640  0.58500  Biso   1.000  C
  C12      1.0000 0.80440  0.42360  0.08500  Biso   1.000  C
  C13      1.0000 0.50200  0.94190  0.43620  Biso   1.000  C
  C14      1.0000 0.00200  0.55810  0.93620  Biso   1.000  C
  C15      1.0000 0.49800  0.05810  0.56380  Biso   1.000  C
  C16      1.0000 0.99800  0.44190  0.06380  Biso   1.000  C
  C17      1.0000 0.75140  0.44790  0.45600  Biso   1.000  C
  C18      1.0000 0.25140  0.05210  0.95600  Biso   1.000  C
  C19      1.0000 0.24860  0.55210  0.54400  Biso   1.000  C
  C20      1.0000 0.74860  0.94790  0.04400  Biso   1.000  C
  O1       1.0000 0.86040  0.45450  0.46720  Biso   1.000  O
  O2       1.0000 0.36040  0.04550  0.96720  Biso   1.000  O
  O3       1.0000 0.13960  0.54550  0.53280  Biso   1.000  O
  O4       1.0000 0.63960  0.95450  0.03280  Biso   1.000  O
  C21      1.0000 0.90960  0.28820  0.44170  Biso   1.000  C
  C22      1.0000 0.40960  0.21180  0.94170  Biso   1.000  C
  C23      1.0000 0.09040  0.71180  0.55830  Biso   1.000  C
  C24      1.0000 0.59040  0.78820  0.05830  Biso   1.000  C
  O5       1.0000 0.70630  0.35450  0.56320  Biso   1.000  O
  O6       1.0000 0.20630  0.14550  0.06320  Biso   1.000  O
  O7       1.0000 0.29370  0.64550  0.43680  Biso   1.000  O
  O8       1.0000 0.79370  0.85450  0.93680  Biso   1.000  O
  C25      1.0000 0.74360  0.41190  0.69910  Biso   1.000  C
  C26      1.0000 0.24360  0.08810  0.19910  Biso   1.000  C
  C27      1.0000 0.25640  0.58810  0.30090  Biso   1.000  C
  C28      1.0000 0.75640  0.91190  0.80090  Biso   1.000  C
  H1       1.0000 0.84100  0.79500  0.40400  Biso   1.000  H
  H2       1.0000 0.34100  0.70500  0.90400  Biso   1.000  H
  H3       1.0000 0.15900  0.20500  0.59600  Biso   1.000  H
  H4       1.0000 0.65900  0.29500  0.09600  Biso   1.000  H
  H5       1.0000 0.69500  0.01900  0.40100  Biso   1.000  H
  H6       1.0000 0.19500  0.48100  0.90100  Biso   1.000  H
  H7       1.0000 0.30500  0.98100  0.59900  Biso   1.000  H
  H8       1.0000 0.80500  0.51900  0.09900  Biso   1.000  H
  H9       1.0000 0.45200  0.86700  0.43600  Biso   1.000  H
  H10      1.0000 0.95200  0.63300  0.93600  Biso   1.000  H
  H11      1.0000 0.54800  0.13300  0.56400  Biso   1.000  H
  H12      1.0000 0.04800  0.36700  0.06400  Biso   1.000  H
  H13      1.0000 0.49200  0.01500  0.35400  Biso   1.000  H
  H14      1.0000 0.99200  0.48500  0.85400  Biso   1.000  H
  H15      1.0000 0.50800  0.98500  0.64600  Biso   1.000  H
  H16      1.0000 0.00800  0.51500  0.14600  Biso   1.000  H
  H17      1.0000 0.72500  0.38300  0.37100  Biso   1.000  H
  H18      1.0000 0.22500  0.11700  0.87100  Biso   1.000  H
  H19      1.0000 0.27500  0.61700  0.62900  Biso   1.000  H
  H20      1.0000 0.77500  0.88300  0.12900  Biso   1.000  H
  H21      1.0000 0.98300  0.24900  0.45300  Biso   1.000  H
  H22      1.0000 0.48300  0.25100  0.95300  Biso   1.000  H
  H23      1.0000 0.01700  0.75100  0.54700  Biso   1.000  H
  H24      1.0000 0.51700  0.74900  0.04700  Biso   1.000  H
  H25      1.0000 0.89200  0.23200  0.35100  Biso   1.000  H
  H26      1.0000 0.39200  0.26800  0.85100  Biso   1.000  H
  H27      1.0000 0.10800  0.76800  0.64900  Biso   1.000  H
  H28      1.0000 0.60800  0.73200  0.14900  Biso   1.000  H
  H29      1.0000 0.87900  0.18100  0.49500  Biso   1.000  H
  H30      1.0000 0.37900  0.31900  0.99500  Biso   1.000  H
  H31      1.0000 0.12100  0.81900  0.50500  Biso   1.000  H
  H32      1.0000 0.62100  0.68100  0.00500  Biso   1.000  H
  H33      1.0000 0.70600  0.36700  0.76500  Biso   1.000  H
  H34      1.0000 0.20600  0.13300  0.26500  Biso   1.000  H
  H35      1.0000 0.29400  0.63300  0.23500  Biso   1.000  H
  H36      1.0000 0.79400  0.86700  0.73500  Biso   1.000  H
  H37      1.0000 0.81600  0.38400  0.72700  Biso   1.000  H
  H38      1.0000 0.31600  0.11600  0.22700  Biso   1.000  H
  H39      1.0000 0.18400  0.61600  0.27300  Biso   1.000  H
  H40      1.0000 0.68400  0.88400  0.77300  Biso   1.000  H
  H41      1.0000 0.72900  0.55400  0.71700  Biso   1.000  H
  H42      1.0000 0.22900  0.94600  0.21700  Biso   1.000  H
  H43      1.0000 0.27100  0.44600  0.28300  Biso   1.000  H
  H44      1.0000 0.77100  0.05400  0.78300  Biso   1.000  H
