data_image0
_cell_length_a       10.448
_cell_length_b       11.215
_cell_length_c       16.851
_cell_angle_alpha    90
_cell_angle_beta     90
_cell_angle_gamma    90

_symmetry_space_group_name_H-M    "P 1"
_symmetry_int_tables_number       1

loop_
  _symmetry_equiv_pos_as_xyz
  'x, y, z'

loop_
  _atom_site_label
  _atom_site_occupancy
  _atom_site_fract_x
  _atom_site_fract_y
  _atom_site_fract_z
  _atom_site_thermal_displace_type
  _atom_site_B_iso_or_equiv
  _atom_site_type_symbol
  Cu1      1.0000 0.90390  0.55470  0.36721  Biso   1.000  Cu
  Cu2      1.0000 0.59610  0.44530  0.86721  Biso   1.000  Cu
  Cu3      1.0000 0.40390  0.94530  0.63279  Biso   1.000  Cu
  Cu4      1.0000 0.09610  0.05470  0.13279  Biso   1.000  Cu
  Br1      1.0000 0.91760  0.68540  0.47874  Biso   1.000  Br
  Br2      1.0000 0.58240  0.31460  0.97874  Biso   1.000  Br
  Br3      1.0000 0.41760  0.81460  0.52126  Biso   1.000  Br
  Br4      1.0000 0.08240  0.18540  0.02126  Biso   1.000  Br
  Br5      1.0000 0.75370  0.41750  0.42618  Biso   1.000  Br
  Br6      1.0000 0.74630  0.58250  0.92618  Biso   1.000  Br
  Br7      1.0000 0.25370  0.08250  0.57382  Biso   1.000  Br
  Br8      1.0000 0.24630  0.91750  0.07382  Biso   1.000  Br
  N1       1.0000 0.92580  0.42470  0.20540  Biso   1.000  N
  N2       1.0000 0.57420  0.57530  0.70540  Biso   1.000  N
  N3       1.0000 0.42580  0.07530  0.79460  Biso   1.000  N
  N4       1.0000 0.07420  0.92470  0.29460  Biso   1.000  N
  N5       1.0000 0.85660  0.49200  0.25750  Biso   1.000  N
  N6       1.0000 0.64340  0.50800  0.75750  Biso   1.000  N
  N7       1.0000 0.35660  0.00800  0.74250  Biso   1.000  N
  N8       1.0000 0.14340  0.99200  0.24250  Biso   1.000  N
  C1       1.0000 0.74400  0.52280  0.22030  Biso   1.000  C
  C2       1.0000 0.75600  0.47720  0.72030  Biso   1.000  C
  C3       1.0000 0.24400  0.97720  0.77970  Biso   1.000  C
  C4       1.0000 0.25600  0.02280  0.27970  Biso   1.000  C
  C5       1.0000 0.74400  0.47590  0.14450  Biso   1.000  C
  C6       1.0000 0.75600  0.52410  0.64450  Biso   1.000  C
  C7       1.0000 0.24400  0.02410  0.85550  Biso   1.000  C
  C8       1.0000 0.25600  0.97590  0.35550  Biso   1.000  C
  C9       1.0000 0.85600  0.41500  0.13750  Biso   1.000  C
  C10      1.0000 0.64400  0.58500  0.63750  Biso   1.000  C
  C11      1.0000 0.35600  0.08500  0.86250  Biso   1.000  C
  C12      1.0000 0.14400  0.91500  0.36250  Biso   1.000  C
  C13      1.0000 0.03400  0.35750  0.23110  Biso   1.000  C
  C14      1.0000 0.46600  0.64250  0.73110  Biso   1.000  C
  C15      1.0000 0.53400  0.14250  0.76890  Biso   1.000  C
  C16      1.0000 0.96600  0.85750  0.26890  Biso   1.000  C
  C17      1.0000 0.64800  0.59300  0.26260  Biso   1.000  C
  C18      1.0000 0.85200  0.40700  0.76260  Biso   1.000  C
  C19      1.0000 0.14800  0.90700  0.73740  Biso   1.000  C
  C20      1.0000 0.35200  0.09300  0.23740  Biso   1.000  C
  O1       1.0000 0.56290  0.64730  0.21250  Biso   1.000  O
  O2       1.0000 0.93710  0.35270  0.71250  Biso   1.000  O
  O3       1.0000 0.06290  0.85270  0.78750  Biso   1.000  O
  O4       1.0000 0.43710  0.14730  0.28750  Biso   1.000  O
  C21      1.0000 0.60900  0.74200  0.16610  Biso   1.000  C
  C22      1.0000 0.89100  0.25800  0.66610  Biso   1.000  C
  C23      1.0000 0.10900  0.75800  0.83390  Biso   1.000  C
  C24      1.0000 0.39100  0.24200  0.33390  Biso   1.000  C
  O5       1.0000 0.71670  0.68040  0.30880  Biso   1.000  O
  O6       1.0000 0.78330  0.31960  0.80880  Biso   1.000  O
  O7       1.0000 0.21670  0.81960  0.69120  Biso   1.000  O
  O8       1.0000 0.28330  0.18040  0.19120  Biso   1.000  O
  C25      1.0000 0.63300  0.73700  0.36590  Biso   1.000  C
  C26      1.0000 0.86700  0.26300  0.86590  Biso   1.000  C
  C27      1.0000 0.13300  0.76300  0.63410  Biso   1.000  C
  C28      1.0000 0.36700  0.23700  0.13410  Biso   1.000  C
  N9       1.0000 0.90100  0.18170  0.24610  Biso   1.000  N
  N10      1.0000 0.59900  0.81830  0.74610  Biso   1.000  N
  N11      1.0000 0.40100  0.31830  0.75390  Biso   1.000  N
  N12      1.0000 0.09900  0.68170  0.25390  Biso   1.000  N
  N13      1.0000 0.92500  0.11710  0.17490  Biso   1.000  N
  N14      1.0000 0.57500  0.88290  0.67490  Biso   1.000  N
  N15      1.0000 0.42500  0.38290  0.82510  Biso   1.000  N
  N16      1.0000 0.07500  0.61710  0.32510  Biso   1.000  N
  C29      1.0000 0.81200  0.08400  0.14930  Biso   1.000  C
  C30      1.0000 0.68800  0.91600  0.64930  Biso   1.000  C
  C31      1.0000 0.31200  0.41600  0.85070  Biso   1.000  C
  C32      1.0000 0.18800  0.58400  0.35070  Biso   1.000  C
  C33      1.0000 0.71400  0.12300  0.19740  Biso   1.000  C
  C34      1.0000 0.78600  0.87700  0.69740  Biso   1.000  C
  C35      1.0000 0.21400  0.37700  0.80260  Biso   1.000  C
  C36      1.0000 0.28600  0.62300  0.30260  Biso   1.000  C
  C37      1.0000 0.77500  0.17900  0.25610  Biso   1.000  C
  C38      1.0000 0.72500  0.82100  0.75610  Biso   1.000  C
  C39      1.0000 0.27500  0.32100  0.74390  Biso   1.000  C
  C40      1.0000 0.22500  0.67900  0.24390  Biso   1.000  C
  C41      1.0000 0.00300  0.25300  0.28310  Biso   1.000  C
  C42      1.0000 0.49700  0.74700  0.78310  Biso   1.000  C
  C43      1.0000 0.50300  0.24700  0.71690  Biso   1.000  C
  C44      1.0000 0.99700  0.75300  0.21690  Biso   1.000  C
  C45      1.0000 0.80300  0.01400  0.07310  Biso   1.000  C
  C46      1.0000 0.69700  0.98600  0.57310  Biso   1.000  C
  C47      1.0000 0.30300  0.48600  0.92690  Biso   1.000  C
  C48      1.0000 0.19700  0.51400  0.42690  Biso   1.000  C
  O9       1.0000 0.89990  0.92580  0.07790  Biso   1.000  O
  O10      1.0000 0.60010  0.07420  0.57790  Biso   1.000  O
  O11      1.0000 0.39990  0.57420  0.92210  Biso   1.000  O
  O12      1.0000 0.10010  0.42580  0.42210  Biso   1.000  O
  C49      1.0000 0.92400  0.86900  0.00370  Biso   1.000  C
  C50      1.0000 0.57600  0.13100  0.50370  Biso   1.000  C
  C51      1.0000 0.42400  0.63100  0.99630  Biso   1.000  C
  C52      1.0000 0.07600  0.36900  0.49630  Biso   1.000  C
  O13      1.0000 0.68220  0.96130  0.07060  Biso   1.000  O
  O14      1.0000 0.81780  0.03870  0.57060  Biso   1.000  O
  O15      1.0000 0.18220  0.53870  0.92940  Biso   1.000  O
  O16      1.0000 0.31780  0.46130  0.42940  Biso   1.000  O
  C53      1.0000 0.61300  0.96400  0.99470  Biso   1.000  C
  C54      1.0000 0.88700  0.03600  0.49470  Biso   1.000  C
  C55      1.0000 0.11300  0.53600  0.00530  Biso   1.000  C
  C56      1.0000 0.38700  0.46400  0.50530  Biso   1.000  C
  H1       1.0000 0.67940  0.48503  0.10526  Biso   1.000  H
  H2       1.0000 0.82060  0.51497  0.60526  Biso   1.000  H
  H3       1.0000 0.17940  0.01497  0.89474  Biso   1.000  H
  H4       1.0000 0.32060  0.98503  0.39474  Biso   1.000  H
  H5       1.0000 0.88164  0.37109  0.09154  Biso   1.000  H
  H6       1.0000 0.61836  0.62891  0.59154  Biso   1.000  H
  H7       1.0000 0.38164  0.12891  0.90846  Biso   1.000  H
  H8       1.0000 0.11836  0.87109  0.40846  Biso   1.000  H
  H9       1.0000 0.62399  0.11251  0.19060  Biso   1.000  H
  H10      1.0000 0.87601  0.88749  0.69060  Biso   1.000  H
  H11      1.0000 0.12399  0.38749  0.80940  Biso   1.000  H
  H12      1.0000 0.37601  0.61251  0.30940  Biso   1.000  H
  H13      1.0000 0.73257  0.21380  0.30070  Biso   1.000  H
  H14      1.0000 0.76743  0.78620  0.80070  Biso   1.000  H
  H15      1.0000 0.23257  0.28620  0.69930  Biso   1.000  H
  H16      1.0000 0.26743  0.71380  0.19930  Biso   1.000  H
  H17      1.0000 0.60116  0.54270  0.29758  Biso   1.000  H
  H18      1.0000 0.89884  0.45730  0.79758  Biso   1.000  H
  H19      1.0000 0.10116  0.95730  0.70242  Biso   1.000  H
  H20      1.0000 0.39884  0.04270  0.20242  Biso   1.000  H
  H21      1.0000 0.81600  0.06456  0.02784  Biso   1.000  H
  H22      1.0000 0.68400  0.93544  0.52784  Biso   1.000  H
  H23      1.0000 0.31600  0.43544  0.97216  Biso   1.000  H
  H24      1.0000 0.18400  0.56456  0.47216  Biso   1.000  H
  H25      1.0000 0.07774  0.32856  0.18562  Biso   1.000  H
  H26      1.0000 0.42226  0.67144  0.68562  Biso   1.000  H
  H27      1.0000 0.57774  0.17144  0.81438  Biso   1.000  H
  H28      1.0000 0.92226  0.82856  0.31438  Biso   1.000  H
  H29      1.0000 0.08914  0.40904  0.26015  Biso   1.000  H
  H30      1.0000 0.41086  0.59096  0.76015  Biso   1.000  H
  H31      1.0000 0.58914  0.09096  0.73985  Biso   1.000  H
  H32      1.0000 0.91086  0.90904  0.23985  Biso   1.000  H
  H33      1.0000 0.97457  0.28090  0.33332  Biso   1.000  H
  H34      1.0000 0.52543  0.71910  0.83332  Biso   1.000  H
  H35      1.0000 0.47457  0.21910  0.66668  Biso   1.000  H
  H36      1.0000 0.02543  0.78090  0.16668  Biso   1.000  H
  H37      1.0000 0.07659  0.20494  0.28954  Biso   1.000  H
  H38      1.0000 0.42341  0.79506  0.78954  Biso   1.000  H
  H39      1.0000 0.57659  0.29506  0.71046  Biso   1.000  H
  H40      1.0000 0.92341  0.70494  0.21046  Biso   1.000  H
  H41      1.0000 0.64038  0.80162  0.20121  Biso   1.000  H
  H42      1.0000 0.85962  0.19838  0.70121  Biso   1.000  H
  H43      1.0000 0.14038  0.69838  0.79879  Biso   1.000  H
  H44      1.0000 0.35962  0.30162  0.29879  Biso   1.000  H
  H45      1.0000 0.67802  0.71245  0.13482  Biso   1.000  H
  H46      1.0000 0.82198  0.28755  0.63482  Biso   1.000  H
  H47      1.0000 0.17802  0.78755  0.86518  Biso   1.000  H
  H48      1.0000 0.32198  0.21245  0.36518  Biso   1.000  H
  H49      1.0000 0.55064  0.77980  0.13081  Biso   1.000  H
  H50      1.0000 0.94936  0.22020  0.63081  Biso   1.000  H
  H51      1.0000 0.05064  0.72020  0.86919  Biso   1.000  H
  H52      1.0000 0.44936  0.27980  0.36919  Biso   1.000  H
  H53      1.0000 0.56472  0.77478  0.33848  Biso   1.000  H
  H54      1.0000 0.93528  0.22522  0.83848  Biso   1.000  H
  H55      1.0000 0.06472  0.72522  0.66152  Biso   1.000  H
  H56      1.0000 0.43528  0.27478  0.16152  Biso   1.000  H
  H57      1.0000 0.59886  0.67718  0.40019  Biso   1.000  H
  H58      1.0000 0.90114  0.32282  0.90019  Biso   1.000  H
  H59      1.0000 0.09886  0.82282  0.59981  Biso   1.000  H
  H60      1.0000 0.40114  0.17718  0.09981  Biso   1.000  H
  H61      1.0000 0.67845  0.79357  0.39613  Biso   1.000  H
  H62      1.0000 0.82155  0.20643  0.89613  Biso   1.000  H
  H63      1.0000 0.17845  0.70643  0.60387  Biso   1.000  H
  H64      1.0000 0.32155  0.29357  0.10387  Biso   1.000  H
  H65      1.0000 0.84822  0.83222  0.98569  Biso   1.000  H
  H66      1.0000 0.65178  0.16778  0.48569  Biso   1.000  H
  H67      1.0000 0.34822  0.66778  0.01431  Biso   1.000  H
  H68      1.0000 0.15178  0.33222  0.51431  Biso   1.000  H
  H69      1.0000 0.95134  0.92751  0.96661  Biso   1.000  H
  H70      1.0000 0.54866  0.07249  0.46661  Biso   1.000  H
  H71      1.0000 0.45134  0.57249  0.03339  Biso   1.000  H
  H72      1.0000 0.04866  0.42751  0.53339  Biso   1.000  H
  H73      1.0000 0.98964  0.80957  0.00735  Biso   1.000  H
  H74      1.0000 0.51036  0.19043  0.50735  Biso   1.000  H
  H75      1.0000 0.48964  0.69043  0.99265  Biso   1.000  H
  H76      1.0000 0.01036  0.30957  0.49265  Biso   1.000  H
  H77      1.0000 0.60365  0.04477  0.98006  Biso   1.000  H
  H78      1.0000 0.89635  0.95523  0.48006  Biso   1.000  H
  H79      1.0000 0.10365  0.45523  0.01994  Biso   1.000  H
  H80      1.0000 0.39635  0.54477  0.51994  Biso   1.000  H
  H81      1.0000 0.66599  0.92425  0.95666  Biso   1.000  H
  H82      1.0000 0.83401  0.07575  0.45666  Biso   1.000  H
  H83      1.0000 0.16599  0.57575  0.04334  Biso   1.000  H
  H84      1.0000 0.33401  0.42425  0.54334  Biso   1.000  H
  H85      1.0000 0.53183  0.92733  0.99332  Biso   1.000  H
  H86      1.0000 0.96817  0.07267  0.49332  Biso   1.000  H
  H87      1.0000 0.03183  0.57267  0.00668  Biso   1.000  H
  H88      1.0000 0.46817  0.42733  0.50668  Biso   1.000  H
