data_image0
_cell_length_a       7.6403
_cell_length_b       21.103
_cell_length_c       9.8015
_cell_angle_alpha    90
_cell_angle_beta     96.066
_cell_angle_gamma    90

_symmetry_space_group_name_H-M    "P 1"
_symmetry_int_tables_number       1

loop_
  _symmetry_equiv_pos_as_xyz
  'x, y, z'

loop_
  _atom_site_label
  _atom_site_occupancy
  _atom_site_fract_x
  _atom_site_fract_y
  _atom_site_fract_z
  _atom_site_thermal_displace_type
  _atom_site_B_iso_or_equiv
  _atom_site_type_symbol
  Cu1      1.0000 0.25572  0.11650  0.38925  Biso   1.000  Cu
  Cu2      1.0000 0.74428  0.61650  0.11075  Biso   1.000  Cu
  Cu3      1.0000 0.74428  0.88349  0.61075  Biso   1.000  Cu
  Cu4      1.0000 0.25572  0.38349  0.88925  Biso   1.000  Cu
  O1       1.0000 0.98430  0.12012  0.32430  Biso   1.000  O
  O2       1.0000 0.01570  0.62012  0.17570  Biso   1.000  O
  O3       1.0000 0.01570  0.87988  0.67570  Biso   1.000  O
  O4       1.0000 0.98430  0.37988  0.82430  Biso   1.000  O
  O5       1.0000 0.17380  0.14667  0.18080  Biso   1.000  O
  O6       1.0000 0.82620  0.64667  0.31920  Biso   1.000  O
  O7       1.0000 0.82620  0.85333  0.81920  Biso   1.000  O
  O8       1.0000 0.17380  0.35333  0.68080  Biso   1.000  O
  O9       1.0000 0.51250  0.35281  0.90660  Biso   1.000  O
  O10      1.0000 0.48750  0.85281  0.59340  Biso   1.000  O
  O11      1.0000 0.48750  0.64719  0.09340  Biso   1.000  O
  O12      1.0000 0.51250  0.14719  0.40660  Biso   1.000  O
  O13      1.0000 0.30460  0.28397  0.93480  Biso   1.000  O
  O14      1.0000 0.69540  0.78397  0.56520  Biso   1.000  O
  O15      1.0000 0.69540  0.71603  0.06520  Biso   1.000  O
  O16      1.0000 0.30460  0.21603  0.43480  Biso   1.000  O
  N1       1.0000 0.29320  0.02495  0.33890  Biso   1.000  N
  N2       1.0000 0.70680  0.52495  0.16110  Biso   1.000  N
  N3       1.0000 0.70680  0.97505  0.66110  Biso   1.000  N
  N4       1.0000 0.29320  0.47505  0.83890  Biso   1.000  N
  N5       1.0000 0.23640  0.09214  0.58930  Biso   1.000  N
  N6       1.0000 0.76360  0.59214  0.91070  Biso   1.000  N
  N7       1.0000 0.76360  0.90786  0.41070  Biso   1.000  N
  N8       1.0000 0.23640  0.40786  0.08930  Biso   1.000  N
  N9       1.0000 0.20630  0.98194  0.54420  Biso   1.000  N
  N10      1.0000 0.79370  0.48194  0.95580  Biso   1.000  N
  N11      1.0000 0.79370  0.01806  0.45580  Biso   1.000  N
  N12      1.0000 0.20630  0.51806  0.04420  Biso   1.000  N
  H1       1.0000 0.17010  0.94750  0.57880  Biso   1.000  H
  H2       1.0000 0.82990  0.44750  0.92120  Biso   1.000  H
  H3       1.0000 0.82990  0.05250  0.42120  Biso   1.000  H
  H4       1.0000 0.17010  0.55250  0.07880  Biso   1.000  H
  C1       1.0000 0.34370  0.01398  0.21280  Biso   1.000  C
  C2       1.0000 0.65630  0.51398  0.28720  Biso   1.000  C
  C3       1.0000 0.65630  0.98602  0.78720  Biso   1.000  C
  C4       1.0000 0.34370  0.48602  0.71280  Biso   1.000  C
  H5       1.0000 0.37670  0.04850  0.16230  Biso   1.000  H
  H6       1.0000 0.62330  0.54850  0.33770  Biso   1.000  H
  H7       1.0000 0.62330  0.95150  0.83770  Biso   1.000  H
  H8       1.0000 0.37670  0.45150  0.66230  Biso   1.000  H
  C5       1.0000 0.34900  0.95523  0.15540  Biso   1.000  C
  C6       1.0000 0.65100  0.45523  0.34460  Biso   1.000  C
  C7       1.0000 0.65100  0.04477  0.84460  Biso   1.000  C
  C8       1.0000 0.34900  0.54477  0.65540  Biso   1.000  C
  H9       1.0000 0.38620  0.94970  0.06880  Biso   1.000  H
  H10      1.0000 0.61380  0.44970  0.43120  Biso   1.000  H
  H11      1.0000 0.61380  0.05030  0.93120  Biso   1.000  H
  H12      1.0000 0.38620  0.55030  0.56880  Biso   1.000  H
  C9       1.0000 0.29700  0.90367  0.23020  Biso   1.000  C
  C10      1.0000 0.70300  0.40367  0.26980  Biso   1.000  C
  C11      1.0000 0.70300  0.09633  0.76980  Biso   1.000  C
  C12      1.0000 0.29700  0.59633  0.73020  Biso   1.000  C
  H13      1.0000 0.29500  0.86310  0.19270  Biso   1.000  H
  H14      1.0000 0.70500  0.36310  0.30730  Biso   1.000  H
  H15      1.0000 0.70500  0.13690  0.80730  Biso   1.000  H
  H16      1.0000 0.29500  0.63690  0.69270  Biso   1.000  H
  C13      1.0000 0.24900  0.91311  0.35880  Biso   1.000  C
  C14      1.0000 0.75100  0.41311  0.14120  Biso   1.000  C
  C15      1.0000 0.75100  0.08689  0.64120  Biso   1.000  C
  C16      1.0000 0.24900  0.58689  0.85880  Biso   1.000  C
  H17      1.0000 0.21520  0.87910  0.41030  Biso   1.000  H
  H18      1.0000 0.78480  0.37910  0.08970  Biso   1.000  H
  H19      1.0000 0.78480  0.12090  0.58970  Biso   1.000  H
  H20      1.0000 0.21520  0.62090  0.91030  Biso   1.000  H
  C17      1.0000 0.25130  0.97468  0.41250  Biso   1.000  C
  C18      1.0000 0.74870  0.47468  0.08750  Biso   1.000  C
  C19      1.0000 0.74870  0.02532  0.58750  Biso   1.000  C
  C20      1.0000 0.25130  0.52532  0.91250  Biso   1.000  C
  C21      1.0000 0.23590  0.13947  0.68360  Biso   1.000  C
  C22      1.0000 0.76410  0.63947  0.81640  Biso   1.000  C
  C23      1.0000 0.76410  0.86053  0.31640  Biso   1.000  C
  C24      1.0000 0.23590  0.36053  0.18360  Biso   1.000  C
  H21      1.0000 0.25710  0.18060  0.65580  Biso   1.000  H
  H22      1.0000 0.74290  0.68060  0.84420  Biso   1.000  H
  H23      1.0000 0.74290  0.81940  0.34420  Biso   1.000  H
  H24      1.0000 0.25710  0.31940  0.15580  Biso   1.000  H
  C25      1.0000 0.20580  0.12964  0.81760  Biso   1.000  C
  C26      1.0000 0.79420  0.62964  0.68240  Biso   1.000  C
  C27      1.0000 0.79420  0.87036  0.18240  Biso   1.000  C
  C28      1.0000 0.20580  0.37036  0.31760  Biso   1.000  C
  H25      1.0000 0.20950  0.16320  0.87920  Biso   1.000  H
  H26      1.0000 0.79050  0.66320  0.62080  Biso   1.000  H
  H27      1.0000 0.79050  0.83680  0.12080  Biso   1.000  H
  H28      1.0000 0.20950  0.33680  0.37920  Biso   1.000  H
  C29      1.0000 0.17020  0.06950  0.85870  Biso   1.000  C
  C30      1.0000 0.82980  0.56950  0.64130  Biso   1.000  C
  C31      1.0000 0.82980  0.93050  0.14130  Biso   1.000  C
  C32      1.0000 0.17020  0.43050  0.35870  Biso   1.000  C
  H29      1.0000 0.14410  0.06200  0.94780  Biso   1.000  H
  H30      1.0000 0.85590  0.56200  0.55220  Biso   1.000  H
  H31      1.0000 0.85590  0.93800  0.05220  Biso   1.000  H
  H32      1.0000 0.14410  0.43800  0.44780  Biso   1.000  H
  C33      1.0000 0.17340  0.02061  0.76770  Biso   1.000  C
  C34      1.0000 0.82660  0.52061  0.73230  Biso   1.000  C
  C35      1.0000 0.82660  0.97939  0.23230  Biso   1.000  C
  C36      1.0000 0.17340  0.47939  0.26770  Biso   1.000  C
  H33      1.0000 0.15320  0.97930  0.79510  Biso   1.000  H
  H34      1.0000 0.84680  0.47930  0.70490  Biso   1.000  H
  H35      1.0000 0.84680  0.02070  0.20490  Biso   1.000  H
  H36      1.0000 0.15320  0.52070  0.29510  Biso   1.000  H
  C37      1.0000 0.20750  0.03332  0.63200  Biso   1.000  C
  C38      1.0000 0.79250  0.53332  0.86800  Biso   1.000  C
  C39      1.0000 0.79250  0.96668  0.36800  Biso   1.000  C
  C40      1.0000 0.20750  0.46668  0.13200  Biso   1.000  C
  C41      1.0000 0.87220  0.17673  0.12220  Biso   1.000  C
  C42      1.0000 0.12780  0.67673  0.37780  Biso   1.000  C
  C43      1.0000 0.12780  0.82327  0.87780  Biso   1.000  C
  C44      1.0000 0.87220  0.32327  0.62220  Biso   1.000  C
  C45      1.0000 0.69800  0.16401  0.13890  Biso   1.000  C
  C46      1.0000 0.30200  0.66401  0.36110  Biso   1.000  C
  C47      1.0000 0.30200  0.83599  0.86110  Biso   1.000  C
  C48      1.0000 0.69800  0.33599  0.63890  Biso   1.000  C
  H37      1.0000 0.67070  0.13070  0.19500  Biso   1.000  H
  H38      1.0000 0.32930  0.63070  0.30500  Biso   1.000  H
  H39      1.0000 0.32930  0.86930  0.80500  Biso   1.000  H
  H40      1.0000 0.67070  0.36930  0.69500  Biso   1.000  H
  C49      1.0000 0.56340  0.20061  0.07270  Biso   1.000  C
  C50      1.0000 0.43660  0.70061  0.42730  Biso   1.000  C
  C51      1.0000 0.43660  0.79939  0.92730  Biso   1.000  C
  C52      1.0000 0.56340  0.29939  0.57270  Biso   1.000  C
  H41      1.0000 0.44650  0.19160  0.08360  Biso   1.000  H
  H42      1.0000 0.55350  0.69160  0.41640  Biso   1.000  H
  H43      1.0000 0.55350  0.80840  0.91640  Biso   1.000  H
  H44      1.0000 0.44650  0.30840  0.58360  Biso   1.000  H
  C53      1.0000 0.91330  0.22430  0.03330  Biso   1.000  C
  C54      1.0000 0.08670  0.72430  0.46670  Biso   1.000  C
  C55      1.0000 0.08670  0.77570  0.96670  Biso   1.000  C
  C56      1.0000 0.91330  0.27570  0.53330  Biso   1.000  C
  H45      1.0000 0.02970  0.23110  0.01730  Biso   1.000  H
  H46      1.0000 0.97030  0.73110  0.48270  Biso   1.000  H
  H47      1.0000 0.97030  0.76890  0.98270  Biso   1.000  H
  H48      1.0000 0.02970  0.26890  0.51730  Biso   1.000  H
  C57      1.0000 0.78020  0.26174  0.96830  Biso   1.000  C
  C58      1.0000 0.21980  0.76174  0.53170  Biso   1.000  C
  C59      1.0000 0.21980  0.73826  0.03170  Biso   1.000  C
  C60      1.0000 0.78020  0.23826  0.46830  Biso   1.000  C
  H49      1.0000 0.80780  0.29420  0.91020  Biso   1.000  H
  H50      1.0000 0.19220  0.79420  0.58980  Biso   1.000  H
  H51      1.0000 0.19220  0.70580  0.08980  Biso   1.000  H
  H52      1.0000 0.80780  0.20580  0.41020  Biso   1.000  H
  C61      1.0000 0.60510  0.25084  0.98980  Biso   1.000  C
  C62      1.0000 0.39490  0.75084  0.51020  Biso   1.000  C
  C63      1.0000 0.39490  0.74916  0.01020  Biso   1.000  C
  C64      1.0000 0.60510  0.24916  0.48980  Biso   1.000  C
  C65      1.0000 0.01830  0.14511  0.21160  Biso   1.000  C
  C66      1.0000 0.98170  0.64511  0.28840  Biso   1.000  C
  C67      1.0000 0.98170  0.85489  0.78840  Biso   1.000  C
  C68      1.0000 0.01830  0.35489  0.71160  Biso   1.000  C
  C69      1.0000 0.46520  0.29766  0.93810  Biso   1.000  C
  C70      1.0000 0.53480  0.79766  0.56190  Biso   1.000  C
  C71      1.0000 0.53480  0.70234  0.06190  Biso   1.000  C
  C72      1.0000 0.46520  0.20234  0.43810  Biso   1.000  C
