data_image0
_cell_length_a       19.253
_cell_length_b       19.253
_cell_length_c       22.38
_cell_angle_alpha    90
_cell_angle_beta     90
_cell_angle_gamma    90

_symmetry_space_group_name_H-M    "P 1"
_symmetry_int_tables_number       1

loop_
  _symmetry_equiv_pos_as_xyz
  'x, y, z'

loop_
  _atom_site_label
  _atom_site_occupancy
  _atom_site_fract_x
  _atom_site_fract_y
  _atom_site_fract_z
  _atom_site_thermal_displace_type
  _atom_site_B_iso_or_equiv
  _atom_site_type_symbol
  Cu1      1.0000 0.16103  0.49044  0.24405  Biso   1.000  Cu
  Cu2      1.0000 0.75956  0.41103  0.49405  Biso   1.000  Cu
  Cu3      1.0000 0.74044  0.08897  0.49405  Biso   1.000  Cu
  Cu4      1.0000 0.66103  0.99044  0.74405  Biso   1.000  Cu
  Cu5      1.0000 0.16103  0.99044  0.75595  Biso   1.000  Cu
  Cu6      1.0000 0.66103  0.49044  0.25595  Biso   1.000  Cu
  Cu7      1.0000 0.75956  0.41103  0.00595  Biso   1.000  Cu
  Cu8      1.0000 0.83897  0.50956  0.75595  Biso   1.000  Cu
  Cu9      1.0000 0.74044  0.08897  0.00595  Biso   1.000  Cu
  Cu10     1.0000 0.33897  0.00956  0.25595  Biso   1.000  Cu
  Cu11     1.0000 0.83897  0.00956  0.24405  Biso   1.000  Cu
  Cu12     1.0000 0.33897  0.50956  0.74405  Biso   1.000  Cu
  O1       1.0000 0.16593  0.39407  0.27043  Biso   1.000  O
  O2       1.0000 0.85593  0.41593  0.52043  Biso   1.000  O
  O3       1.0000 0.64407  0.08407  0.52043  Biso   1.000  O
  O4       1.0000 0.66593  0.89407  0.77043  Biso   1.000  O
  O5       1.0000 0.16593  0.89407  0.72957  Biso   1.000  O
  O6       1.0000 0.66593  0.39407  0.22957  Biso   1.000  O
  O7       1.0000 0.85593  0.41593  0.97957  Biso   1.000  O
  O8       1.0000 0.83407  0.60593  0.72957  Biso   1.000  O
  O9       1.0000 0.64407  0.08407  0.97957  Biso   1.000  O
  O10      1.0000 0.33407  0.10593  0.22957  Biso   1.000  O
  O11      1.0000 0.83407  0.10593  0.27043  Biso   1.000  O
  O12      1.0000 0.33407  0.60593  0.77043  Biso   1.000  O
  O13      1.0000 0.06535  0.46005  0.19108  Biso   1.000  O
  O14      1.0000 0.78995  0.31535  0.44108  Biso   1.000  O
  O15      1.0000 0.71005  0.18465  0.44108  Biso   1.000  O
  O16      1.0000 0.56535  0.96005  0.69108  Biso   1.000  O
  O17      1.0000 0.06535  0.96005  0.80892  Biso   1.000  O
  O18      1.0000 0.56535  0.46005  0.30892  Biso   1.000  O
  O19      1.0000 0.78995  0.31535  0.05892  Biso   1.000  O
  O20      1.0000 0.93465  0.53995  0.80892  Biso   1.000  O
  O21      1.0000 0.71005  0.18465  0.05892  Biso   1.000  O
  O22      1.0000 0.43465  0.03995  0.30892  Biso   1.000  O
  O23      1.0000 0.93465  0.03995  0.19108  Biso   1.000  O
  O24      1.0000 0.43465  0.53995  0.69108  Biso   1.000  O
  O25      1.0000 0.09356  0.51207  0.30904  Biso   1.000  O
  O26      1.0000 0.73793  0.34356  0.55904  Biso   1.000  O
  O27      1.0000 0.76207  0.15644  0.55904  Biso   1.000  O
  O28      1.0000 0.59356  0.01207  0.80904  Biso   1.000  O
  O29      1.0000 0.09356  0.01207  0.69096  Biso   1.000  O
  O30      1.0000 0.59356  0.51207  0.19096  Biso   1.000  O
  O31      1.0000 0.73793  0.34356  0.94096  Biso   1.000  O
  O32      1.0000 0.90644  0.48793  0.69096  Biso   1.000  O
  O33      1.0000 0.76207  0.15644  0.94096  Biso   1.000  O
  O34      1.0000 0.40644  0.98793  0.19096  Biso   1.000  O
  O35      1.0000 0.90644  0.98793  0.30904  Biso   1.000  O
  O36      1.0000 0.40644  0.48793  0.80904  Biso   1.000  O
  O37      1.0000 0.15940  0.58746  0.21899  Biso   1.000  O
  O38      1.0000 0.66254  0.40940  0.46899  Biso   1.000  O
  O39      1.0000 0.83746  0.09060  0.46899  Biso   1.000  O
  O40      1.0000 0.65940  0.08746  0.71899  Biso   1.000  O
  O41      1.0000 0.15940  0.08746  0.78101  Biso   1.000  O
  O42      1.0000 0.65940  0.58746  0.28101  Biso   1.000  O
  O43      1.0000 0.66254  0.40940  0.03101  Biso   1.000  O
  O44      1.0000 0.84060  0.41254  0.78101  Biso   1.000  O
  O45      1.0000 0.83746  0.09060  0.03101  Biso   1.000  O
  O46      1.0000 0.34060  0.91254  0.28101  Biso   1.000  O
  O47      1.0000 0.84060  0.91254  0.21899  Biso   1.000  O
  O48      1.0000 0.34060  0.41254  0.71899  Biso   1.000  O
  N1       1.0000 0.22735  0.47177  0.17575  Biso   1.000  N
  N2       1.0000 0.77823  0.47735  0.42575  Biso   1.000  N
  N3       1.0000 0.72177  0.02265  0.42575  Biso   1.000  N
  N4       1.0000 0.72735  0.97177  0.67575  Biso   1.000  N
  N5       1.0000 0.22735  0.97177  0.82425  Biso   1.000  N
  N6       1.0000 0.72735  0.47177  0.32425  Biso   1.000  N
  N7       1.0000 0.77823  0.47735  0.07425  Biso   1.000  N
  N8       1.0000 0.77265  0.52823  0.82425  Biso   1.000  N
  N9       1.0000 0.72177  0.02265  0.07425  Biso   1.000  N
  N10      1.0000 0.27265  0.02823  0.32425  Biso   1.000  N
  N11      1.0000 0.77265  0.02823  0.17575  Biso   1.000  N
  N12      1.0000 0.27265  0.52823  0.67575  Biso   1.000  N
  N13      1.0000 0.25679  0.49160  0.07441  Biso   1.000  N
  N14      1.0000 0.75840  0.50679  0.32441  Biso   1.000  N
  N15      1.0000 0.74160  0.99321  0.32441  Biso   1.000  N
  N16      1.0000 0.75679  0.99160  0.57441  Biso   1.000  N
  N17      1.0000 0.25679  0.99160  0.92559  Biso   1.000  N
  N18      1.0000 0.75679  0.49160  0.42559  Biso   1.000  N
  N19      1.0000 0.75840  0.50679  0.17559  Biso   1.000  N
  N20      1.0000 0.74321  0.50840  0.92559  Biso   1.000  N
  N21      1.0000 0.74160  0.99321  0.17559  Biso   1.000  N
  N22      1.0000 0.24321  0.00840  0.42559  Biso   1.000  N
  N23      1.0000 0.74321  0.00840  0.07441  Biso   1.000  N
  N24      1.0000 0.24321  0.50840  0.57441  Biso   1.000  N
  C1       1.0000 0.11850  0.34870  0.26718  Biso   1.000  C
  C2       1.0000 0.90130  0.36850  0.51718  Biso   1.000  C
  C3       1.0000 0.59870  0.13150  0.51718  Biso   1.000  C
  C4       1.0000 0.61850  0.84870  0.76718  Biso   1.000  C
  C5       1.0000 0.11850  0.84870  0.73282  Biso   1.000  C
  C6       1.0000 0.61850  0.34870  0.23282  Biso   1.000  C
  C7       1.0000 0.90130  0.36850  0.98282  Biso   1.000  C
  C8       1.0000 0.88150  0.65130  0.73282  Biso   1.000  C
  C9       1.0000 0.59870  0.13150  0.98282  Biso   1.000  C
  C10      1.0000 0.38150  0.15130  0.23282  Biso   1.000  C
  C11      1.0000 0.88150  0.15130  0.26718  Biso   1.000  C
  C12      1.0000 0.38150  0.65130  0.76718  Biso   1.000  C
  C13      1.0000 0.05570  0.35090  0.23850  Biso   1.000  C
  C14      1.0000 0.89910  0.30570  0.48850  Biso   1.000  C
  C15      1.0000 0.60090  0.19430  0.48850  Biso   1.000  C
  C16      1.0000 0.55570  0.85090  0.73850  Biso   1.000  C
  C17      1.0000 0.05570  0.85090  0.76150  Biso   1.000  C
  C18      1.0000 0.55570  0.35090  0.26150  Biso   1.000  C
  C19      1.0000 0.89910  0.30570  0.01150  Biso   1.000  C
  C20      1.0000 0.94430  0.64910  0.76150  Biso   1.000  C
  C21      1.0000 0.60090  0.19430  0.01150  Biso   1.000  C
  C22      1.0000 0.44430  0.14910  0.26150  Biso   1.000  C
  C23      1.0000 0.94430  0.14910  0.23850  Biso   1.000  C
  C24      1.0000 0.44430  0.64910  0.73850  Biso   1.000  C
  C25      1.0000 0.03410  0.40690  0.20260  Biso   1.000  C
  C26      1.0000 0.84310  0.28410  0.45260  Biso   1.000  C
  C27      1.0000 0.65690  0.21590  0.45260  Biso   1.000  C
  C28      1.0000 0.53410  0.90690  0.70260  Biso   1.000  C
  C29      1.0000 0.03410  0.90690  0.79740  Biso   1.000  C
  C30      1.0000 0.53410  0.40690  0.29740  Biso   1.000  C
  C31      1.0000 0.84310  0.28410  0.04740  Biso   1.000  C
  C32      1.0000 0.96590  0.59310  0.79740  Biso   1.000  C
  C33      1.0000 0.65690  0.21590  0.04740  Biso   1.000  C
  C34      1.0000 0.46590  0.09310  0.29740  Biso   1.000  C
  C35      1.0000 0.96590  0.09310  0.20260  Biso   1.000  C
  C36      1.0000 0.46590  0.59310  0.70260  Biso   1.000  C
  C37      1.0000 0.13770  0.28120  0.29950  Biso   1.000  C
  C38      1.0000 0.96880  0.38770  0.54950  Biso   1.000  C
  C39      1.0000 0.53120  0.11230  0.54950  Biso   1.000  C
  C40      1.0000 0.63770  0.78120  0.79950  Biso   1.000  C
  C41      1.0000 0.13770  0.78120  0.70050  Biso   1.000  C
  C42      1.0000 0.63770  0.28120  0.20050  Biso   1.000  C
  C43      1.0000 0.96880  0.38770  0.95050  Biso   1.000  C
  C44      1.0000 0.86230  0.71880  0.70050  Biso   1.000  C
  C45      1.0000 0.53120  0.11230  0.95050  Biso   1.000  C
  C46      1.0000 0.36230  0.21880  0.20050  Biso   1.000  C
  C47      1.0000 0.86230  0.21880  0.29950  Biso   1.000  C
  C48      1.0000 0.36230  0.71880  0.79950  Biso   1.000  C
  C49      1.0000 0.96060  0.40040  0.17600  Biso   1.000  C
  C50      1.0000 0.84960  0.21060  0.42600  Biso   1.000  C
  C51      1.0000 0.65040  0.28940  0.42600  Biso   1.000  C
  C52      1.0000 0.46060  0.90040  0.67600  Biso   1.000  C
  C53      1.0000 0.96060  0.90040  0.82400  Biso   1.000  C
  C54      1.0000 0.46060  0.40040  0.32400  Biso   1.000  C
  C55      1.0000 0.84960  0.21060  0.07400  Biso   1.000  C
  C56      1.0000 0.03940  0.59960  0.82400  Biso   1.000  C
  C57      1.0000 0.65040  0.28940  0.07400  Biso   1.000  C
  C58      1.0000 0.53940  0.09960  0.32400  Biso   1.000  C
  C59      1.0000 0.03940  0.09960  0.17600  Biso   1.000  C
  C60      1.0000 0.53940  0.59960  0.67600  Biso   1.000  C
  C61      1.0000 0.05520  0.56390  0.30930  Biso   1.000  C
  C62      1.0000 0.68610  0.30520  0.55930  Biso   1.000  C
  C63      1.0000 0.81390  0.19480  0.55930  Biso   1.000  C
  C64      1.0000 0.55520  0.06390  0.80930  Biso   1.000  C
  C65      1.0000 0.05520  0.06390  0.69070  Biso   1.000  C
  C66      1.0000 0.55520  0.56390  0.19070  Biso   1.000  C
  C67      1.0000 0.68610  0.30520  0.94070  Biso   1.000  C
  C68      1.0000 0.94480  0.43610  0.69070  Biso   1.000  C
  C69      1.0000 0.81390  0.19480  0.94070  Biso   1.000  C
  C70      1.0000 0.44480  0.93610  0.19070  Biso   1.000  C
  C71      1.0000 0.94480  0.93610  0.30930  Biso   1.000  C
  C72      1.0000 0.44480  0.43610  0.80930  Biso   1.000  C
  C73      1.0000 0.06030  0.62270  0.27280  Biso   1.000  C
  C74      1.0000 0.62730  0.31030  0.52280  Biso   1.000  C
  C75      1.0000 0.87270  0.18970  0.52280  Biso   1.000  C
  C76      1.0000 0.56030  0.12270  0.77280  Biso   1.000  C
  C77      1.0000 0.06030  0.12270  0.72720  Biso   1.000  C
  C78      1.0000 0.56030  0.62270  0.22720  Biso   1.000  C
  C79      1.0000 0.62730  0.31030  0.97720  Biso   1.000  C
  C80      1.0000 0.93970  0.37730  0.72720  Biso   1.000  C
  C81      1.0000 0.87270  0.18970  0.97720  Biso   1.000  C
  C82      1.0000 0.43970  0.87730  0.22720  Biso   1.000  C
  C83      1.0000 0.93970  0.87730  0.27280  Biso   1.000  C
  C84      1.0000 0.43970  0.37730  0.77280  Biso   1.000  C
  C85      1.0000 0.11320  0.63070  0.23250  Biso   1.000  C
  C86      1.0000 0.61930  0.36320  0.48250  Biso   1.000  C
  C87      1.0000 0.88070  0.13680  0.48250  Biso   1.000  C
  C88      1.0000 0.61320  0.13070  0.73250  Biso   1.000  C
  C89      1.0000 0.11320  0.13070  0.76750  Biso   1.000  C
  C90      1.0000 0.61320  0.63070  0.26750  Biso   1.000  C
  C91      1.0000 0.61930  0.36320  0.01750  Biso   1.000  C
  C92      1.0000 0.88680  0.36930  0.76750  Biso   1.000  C
  C93      1.0000 0.88070  0.13680  0.01750  Biso   1.000  C
  C94      1.0000 0.38680  0.86930  0.26750  Biso   1.000  C
  C95      1.0000 0.88680  0.86930  0.23250  Biso   1.000  C
  C96      1.0000 0.38680  0.36930  0.73250  Biso   1.000  C
  C97      1.0000 0.99800  0.56210  0.35590  Biso   1.000  C
  C98      1.0000 0.68790  0.24800  0.60590  Biso   1.000  C
  C99      1.0000 0.81210  0.25200  0.60590  Biso   1.000  C
  C100     1.0000 0.49800  0.06210  0.85590  Biso   1.000  C
  C101     1.0000 0.99800  0.06210  0.64410  Biso   1.000  C
  C102     1.0000 0.49800  0.56210  0.14410  Biso   1.000  C
  C103     1.0000 0.68790  0.24800  0.89410  Biso   1.000  C
  C104     1.0000 0.00200  0.43790  0.64410  Biso   1.000  C
  C105     1.0000 0.81210  0.25200  0.89410  Biso   1.000  C
  C106     1.0000 0.50200  0.93790  0.14410  Biso   1.000  C
  C107     1.0000 0.00200  0.93790  0.35590  Biso   1.000  C
  C108     1.0000 0.50200  0.43790  0.85590  Biso   1.000  C
  C109     1.0000 0.12170  0.70040  0.20130  Biso   1.000  C
  C110     1.0000 0.54960  0.37170  0.45130  Biso   1.000  C
  C111     1.0000 0.95040  0.12830  0.45130  Biso   1.000  C
  C112     1.0000 0.62170  0.20040  0.70130  Biso   1.000  C
  C113     1.0000 0.12170  0.20040  0.79870  Biso   1.000  C
  C114     1.0000 0.62170  0.70040  0.29870  Biso   1.000  C
  C115     1.0000 0.54960  0.37170  0.04870  Biso   1.000  C
  C116     1.0000 0.87830  0.29960  0.79870  Biso   1.000  C
  C117     1.0000 0.95040  0.12830  0.04870  Biso   1.000  C
  C118     1.0000 0.37830  0.79960  0.29870  Biso   1.000  C
  C119     1.0000 0.87830  0.79960  0.20130  Biso   1.000  C
  C120     1.0000 0.37830  0.29960  0.70130  Biso   1.000  C
  C121     1.0000 0.22000  0.50350  0.12341  Biso   1.000  C
  C122     1.0000 0.74650  0.47000  0.37341  Biso   1.000  C
  C123     1.0000 0.75350  0.03000  0.37341  Biso   1.000  C
  C124     1.0000 0.72000  0.00350  0.62341  Biso   1.000  C
  C125     1.0000 0.22000  0.00350  0.87659  Biso   1.000  C
  C126     1.0000 0.72000  0.50350  0.37659  Biso   1.000  C
  C127     1.0000 0.74650  0.47000  0.12659  Biso   1.000  C
  C128     1.0000 0.78000  0.49650  0.87659  Biso   1.000  C
  C129     1.0000 0.75350  0.03000  0.12659  Biso   1.000  C
  C130     1.0000 0.28000  0.99650  0.37659  Biso   1.000  C
  C131     1.0000 0.78000  0.99650  0.12341  Biso   1.000  C
  C132     1.0000 0.28000  0.49650  0.62341  Biso   1.000  C
  C133     1.0000 0.27800  0.42420  0.17890  Biso   1.000  C
  C134     1.0000 0.82580  0.52800  0.42890  Biso   1.000  C
  C135     1.0000 0.67420  0.97200  0.42890  Biso   1.000  C
  C136     1.0000 0.77800  0.92420  0.67890  Biso   1.000  C
  C137     1.0000 0.27800  0.92420  0.82110  Biso   1.000  C
  C138     1.0000 0.77800  0.42420  0.32110  Biso   1.000  C
  C139     1.0000 0.82580  0.52800  0.07110  Biso   1.000  C
  C140     1.0000 0.72200  0.57580  0.82110  Biso   1.000  C
  C141     1.0000 0.67420  0.97200  0.07110  Biso   1.000  C
  C142     1.0000 0.22200  0.07580  0.32110  Biso   1.000  C
  C143     1.0000 0.72200  0.07580  0.17890  Biso   1.000  C
  C144     1.0000 0.22200  0.57580  0.67890  Biso   1.000  C
  C145     1.0000 0.31890  0.40910  0.13130  Biso   1.000  C
  C146     1.0000 0.84090  0.56890  0.38130  Biso   1.000  C
  C147     1.0000 0.65910  0.93110  0.38130  Biso   1.000  C
  C148     1.0000 0.81890  0.90910  0.63130  Biso   1.000  C
  C149     1.0000 0.31890  0.90910  0.86870  Biso   1.000  C
  C150     1.0000 0.81890  0.40910  0.36870  Biso   1.000  C
  C151     1.0000 0.84090  0.56890  0.11870  Biso   1.000  C
  C152     1.0000 0.68110  0.59090  0.86870  Biso   1.000  C
  C153     1.0000 0.65910  0.93110  0.11870  Biso   1.000  C
  C154     1.0000 0.18110  0.09090  0.36870  Biso   1.000  C
  C155     1.0000 0.68110  0.09090  0.13130  Biso   1.000  C
  C156     1.0000 0.18110  0.59090  0.63130  Biso   1.000  C
  C157     1.0000 0.30670  0.44270  0.07770  Biso   1.000  C
  C158     1.0000 0.80730  0.55670  0.32770  Biso   1.000  C
  C159     1.0000 0.69270  0.94330  0.32770  Biso   1.000  C
  C160     1.0000 0.80670  0.94270  0.57770  Biso   1.000  C
  C161     1.0000 0.30670  0.94270  0.92230  Biso   1.000  C
  C162     1.0000 0.80670  0.44270  0.42230  Biso   1.000  C
  C163     1.0000 0.80730  0.55670  0.17230  Biso   1.000  C
  C164     1.0000 0.69330  0.55730  0.92230  Biso   1.000  C
  C165     1.0000 0.69270  0.94330  0.17230  Biso   1.000  C
  C166     1.0000 0.19330  0.05730  0.42230  Biso   1.000  C
  C167     1.0000 0.69330  0.05730  0.07770  Biso   1.000  C
  C168     1.0000 0.19330  0.55730  0.57770  Biso   1.000  C
  C169     1.0000 0.34530  0.42730  0.02240  Biso   1.000  C
  C170     1.0000 0.82270  0.59530  0.27240  Biso   1.000  C
  C171     1.0000 0.67730  0.90470  0.27240  Biso   1.000  C
  C172     1.0000 0.84530  0.92730  0.52240  Biso   1.000  C
  C173     1.0000 0.34530  0.92730  0.97760  Biso   1.000  C
  C174     1.0000 0.84530  0.42730  0.47760  Biso   1.000  C
  C175     1.0000 0.82270  0.59530  0.22760  Biso   1.000  C
  C176     1.0000 0.65470  0.57270  0.97760  Biso   1.000  C
  C177     1.0000 0.67730  0.90470  0.22760  Biso   1.000  C
  C178     1.0000 0.15470  0.07270  0.47760  Biso   1.000  C
  C179     1.0000 0.65470  0.07270  0.02240  Biso   1.000  C
  C180     1.0000 0.15470  0.57270  0.52240  Biso   1.000  C
  F1       1.0000 0.17200  0.29227  0.34908  Biso   1.000  F
  F2       1.0000 0.95773  0.42200  0.59908  Biso   1.000  F
  F3       1.0000 0.54227  0.07800  0.59908  Biso   1.000  F
  F4       1.0000 0.67200  0.79227  0.84908  Biso   1.000  F
  F5       1.0000 0.17200  0.79227  0.65092  Biso   1.000  F
  F6       1.0000 0.67200  0.29227  0.15092  Biso   1.000  F
  F7       1.0000 0.95773  0.42200  0.90092  Biso   1.000  F
  F8       1.0000 0.82800  0.70773  0.65092  Biso   1.000  F
  F9       1.0000 0.54227  0.07800  0.90092  Biso   1.000  F
  F10      1.0000 0.32800  0.20773  0.15092  Biso   1.000  F
  F11      1.0000 0.82800  0.20773  0.34908  Biso   1.000  F
  F12      1.0000 0.32800  0.70773  0.84908  Biso   1.000  F
  F13      1.0000 0.17690  0.24270  0.26560  Biso   1.000  F
  F14      1.0000 0.00730  0.42690  0.51560  Biso   1.000  F
  F15      1.0000 0.49270  0.07310  0.51560  Biso   1.000  F
  F16      1.0000 0.67690  0.74270  0.76560  Biso   1.000  F
  F17      1.0000 0.17690  0.74270  0.73440  Biso   1.000  F
  F18      1.0000 0.67690  0.24270  0.23440  Biso   1.000  F
  F19      1.0000 0.00730  0.42690  0.98440  Biso   1.000  F
  F20      1.0000 0.82310  0.75730  0.73440  Biso   1.000  F
  F21      1.0000 0.49270  0.07310  0.98440  Biso   1.000  F
  F22      1.0000 0.32310  0.25730  0.23440  Biso   1.000  F
  F23      1.0000 0.82310  0.25730  0.26560  Biso   1.000  F
  F24      1.0000 0.32310  0.75730  0.76560  Biso   1.000  F
  F25      1.0000 0.08430  0.24209  0.31370  Biso   1.000  F
  F26      1.0000 0.00791  0.33430  0.56370  Biso   1.000  F
  F27      1.0000 0.49209  0.16570  0.56370  Biso   1.000  F
  F28      1.0000 0.58430  0.74209  0.81370  Biso   1.000  F
  F29      1.0000 0.08430  0.74209  0.68630  Biso   1.000  F
  F30      1.0000 0.58430  0.24209  0.18630  Biso   1.000  F
  F31      1.0000 0.00791  0.33430  0.93630  Biso   1.000  F
  F32      1.0000 0.91570  0.75791  0.68630  Biso   1.000  F
  F33      1.0000 0.49209  0.16570  0.93630  Biso   1.000  F
  F34      1.0000 0.41570  0.25791  0.18630  Biso   1.000  F
  F35      1.0000 0.91570  0.25791  0.31370  Biso   1.000  F
  F36      1.0000 0.41570  0.75791  0.81370  Biso   1.000  F
  F37      1.0000 0.94020  0.33620  0.16680  Biso   1.000  F
  F38      1.0000 0.91380  0.19020  0.41680  Biso   1.000  F
  F39      1.0000 0.58620  0.30980  0.41680  Biso   1.000  F
  F40      1.0000 0.44020  0.83620  0.66680  Biso   1.000  F
  F41      1.0000 0.94020  0.83620  0.83320  Biso   1.000  F
  F42      1.0000 0.44020  0.33620  0.33320  Biso   1.000  F
  F43      1.0000 0.91380  0.19020  0.08320  Biso   1.000  F
  F44      1.0000 0.05980  0.66380  0.83320  Biso   1.000  F
  F45      1.0000 0.58620  0.30980  0.08320  Biso   1.000  F
  F46      1.0000 0.55980  0.16380  0.33320  Biso   1.000  F
  F47      1.0000 0.05980  0.16380  0.16680  Biso   1.000  F
  F48      1.0000 0.55980  0.66380  0.66680  Biso   1.000  F
  F49      1.0000 0.91550  0.42840  0.21090  Biso   1.000  F
  F50      1.0000 0.82160  0.16550  0.46090  Biso   1.000  F
  F51      1.0000 0.67840  0.33450  0.46090  Biso   1.000  F
  F52      1.0000 0.41550  0.92840  0.71090  Biso   1.000  F
  F53      1.0000 0.91550  0.92840  0.78910  Biso   1.000  F
  F54      1.0000 0.41550  0.42840  0.28910  Biso   1.000  F
  F55      1.0000 0.82160  0.16550  0.03910  Biso   1.000  F
  F56      1.0000 0.08450  0.57160  0.78910  Biso   1.000  F
  F57      1.0000 0.67840  0.33450  0.03910  Biso   1.000  F
  F58      1.0000 0.58450  0.07160  0.28910  Biso   1.000  F
  F59      1.0000 0.08450  0.07160  0.21090  Biso   1.000  F
  F60      1.0000 0.58450  0.57160  0.71090  Biso   1.000  F
  F61      1.0000 0.95550  0.43050  0.12430  Biso   1.000  F
  F62      1.0000 0.81950  0.20550  0.37430  Biso   1.000  F
  F63      1.0000 0.68050  0.29450  0.37430  Biso   1.000  F
  F64      1.0000 0.45550  0.93050  0.62430  Biso   1.000  F
  F65      1.0000 0.95550  0.93050  0.87570  Biso   1.000  F
  F66      1.0000 0.45550  0.43050  0.37570  Biso   1.000  F
  F67      1.0000 0.81950  0.20550  0.12570  Biso   1.000  F
  F68      1.0000 0.04450  0.56950  0.87570  Biso   1.000  F
  F69      1.0000 0.68050  0.29450  0.12570  Biso   1.000  F
  F70      1.0000 0.54450  0.06950  0.37570  Biso   1.000  F
  F71      1.0000 0.04450  0.06950  0.12430  Biso   1.000  F
  F72      1.0000 0.54450  0.56950  0.62430  Biso   1.000  F
  F73      1.0000 0.96200  0.50560  0.35360  Biso   1.000  F
  F74      1.0000 0.74440  0.21200  0.60360  Biso   1.000  F
  F75      1.0000 0.75560  0.28800  0.60360  Biso   1.000  F
  F76      1.0000 0.46200  0.00560  0.85360  Biso   1.000  F
  F77      1.0000 0.96200  0.00560  0.64640  Biso   1.000  F
  F78      1.0000 0.46200  0.50560  0.14640  Biso   1.000  F
  F79      1.0000 0.74440  0.21200  0.89640  Biso   1.000  F
  F80      1.0000 0.03800  0.49440  0.64640  Biso   1.000  F
  F81      1.0000 0.75560  0.28800  0.89640  Biso   1.000  F
  F82      1.0000 0.53800  0.99440  0.14640  Biso   1.000  F
  F83      1.0000 0.03800  0.99440  0.35360  Biso   1.000  F
  F84      1.0000 0.53800  0.49440  0.85360  Biso   1.000  F
  F85      1.0000 0.95470  0.61330  0.35300  Biso   1.000  F
  F86      1.0000 0.63670  0.20470  0.60300  Biso   1.000  F
  F87      1.0000 0.86330  0.29530  0.60300  Biso   1.000  F
  F88      1.0000 0.45470  0.11330  0.85300  Biso   1.000  F
  F89      1.0000 0.95470  0.11330  0.64700  Biso   1.000  F
  F90      1.0000 0.45470  0.61330  0.14700  Biso   1.000  F
  F91      1.0000 0.63670  0.20470  0.89700  Biso   1.000  F
  F92      1.0000 0.04530  0.38670  0.64700  Biso   1.000  F
  F93      1.0000 0.86330  0.29530  0.89700  Biso   1.000  F
  F94      1.0000 0.54530  0.88670  0.14700  Biso   1.000  F
  F95      1.0000 0.04530  0.88670  0.35300  Biso   1.000  F
  F96      1.0000 0.54530  0.38670  0.85300  Biso   1.000  F
  F97      1.0000 0.02430  0.56370  0.40901  Biso   1.000  F
  F98      1.0000 0.68630  0.27430  0.65901  Biso   1.000  F
  F99      1.0000 0.81370  0.22570  0.65901  Biso   1.000  F
  F100     1.0000 0.52430  0.06370  0.90901  Biso   1.000  F
  F101     1.0000 0.02430  0.06370  0.59099  Biso   1.000  F
  F102     1.0000 0.52430  0.56370  0.09099  Biso   1.000  F
  F103     1.0000 0.68630  0.27430  0.84099  Biso   1.000  F
  F104     1.0000 0.97570  0.43630  0.59099  Biso   1.000  F
  F105     1.0000 0.81370  0.22570  0.84099  Biso   1.000  F
  F106     1.0000 0.47570  0.93630  0.09099  Biso   1.000  F
  F107     1.0000 0.97570  0.93630  0.40901  Biso   1.000  F
  F108     1.0000 0.47570  0.43630  0.90901  Biso   1.000  F
  F109     1.0000 0.07450  0.74370  0.21130  Biso   1.000  F
  F110     1.0000 0.50630  0.32450  0.46130  Biso   1.000  F
  F111     1.0000 0.99370  0.17550  0.46130  Biso   1.000  F
  F112     1.0000 0.57450  0.24370  0.71130  Biso   1.000  F
  F113     1.0000 0.07450  0.24370  0.78870  Biso   1.000  F
  F114     1.0000 0.57450  0.74370  0.28870  Biso   1.000  F
  F115     1.0000 0.50630  0.32450  0.03870  Biso   1.000  F
  F116     1.0000 0.92550  0.25630  0.78870  Biso   1.000  F
  F117     1.0000 0.99370  0.17550  0.03870  Biso   1.000  F
  F118     1.0000 0.42550  0.75630  0.28870  Biso   1.000  F
  F119     1.0000 0.92550  0.75630  0.21130  Biso   1.000  F
  F120     1.0000 0.42550  0.25630  0.71130  Biso   1.000  F
  F121     1.0000 0.18070  0.73060  0.22150  Biso   1.000  F
  F122     1.0000 0.51940  0.43070  0.47150  Biso   1.000  F
  F123     1.0000 0.98060  0.06930  0.47150  Biso   1.000  F
  F124     1.0000 0.68070  0.23060  0.72150  Biso   1.000  F
  F125     1.0000 0.18070  0.23060  0.77850  Biso   1.000  F
  F126     1.0000 0.68070  0.73060  0.27850  Biso   1.000  F
  F127     1.0000 0.51940  0.43070  0.02850  Biso   1.000  F
  F128     1.0000 0.81930  0.26940  0.77850  Biso   1.000  F
  F129     1.0000 0.98060  0.06930  0.02850  Biso   1.000  F
  F130     1.0000 0.31930  0.76940  0.27850  Biso   1.000  F
  F131     1.0000 0.81930  0.76940  0.22150  Biso   1.000  F
  F132     1.0000 0.31930  0.26940  0.72150  Biso   1.000  F
  F133     1.0000 0.13310  0.69390  0.14370  Biso   1.000  F
  F134     1.0000 0.55610  0.38310  0.39370  Biso   1.000  F
  F135     1.0000 0.94390  0.11690  0.39370  Biso   1.000  F
  F136     1.0000 0.63310  0.19390  0.64370  Biso   1.000  F
  F137     1.0000 0.13310  0.19390  0.85630  Biso   1.000  F
  F138     1.0000 0.63310  0.69390  0.35630  Biso   1.000  F
  F139     1.0000 0.55610  0.38310  0.10630  Biso   1.000  F
  F140     1.0000 0.86690  0.30610  0.85630  Biso   1.000  F
  F141     1.0000 0.94390  0.11690  0.10630  Biso   1.000  F
  F142     1.0000 0.36690  0.80610  0.35630  Biso   1.000  F
  F143     1.0000 0.86690  0.80610  0.14370  Biso   1.000  F
  F144     1.0000 0.36690  0.30610  0.64370  Biso   1.000  F
  H1       1.0000 0.03300  0.31300  0.24100  Biso   1.000  H
  H2       1.0000 0.93700  0.28300  0.49100  Biso   1.000  H
  H3       1.0000 0.56300  0.21700  0.49100  Biso   1.000  H
  H4       1.0000 0.53300  0.81300  0.74100  Biso   1.000  H
  H5       1.0000 0.03300  0.81300  0.75900  Biso   1.000  H
  H6       1.0000 0.53300  0.31300  0.25900  Biso   1.000  H
  H7       1.0000 0.93700  0.28300  0.00900  Biso   1.000  H
  H8       1.0000 0.96700  0.68700  0.75900  Biso   1.000  H
  H9       1.0000 0.56300  0.21700  0.00900  Biso   1.000  H
  H10      1.0000 0.46700  0.18700  0.25900  Biso   1.000  H
  H11      1.0000 0.96700  0.18700  0.24100  Biso   1.000  H
  H12      1.0000 0.46700  0.68700  0.74100  Biso   1.000  H
  H13      1.0000 0.03100  0.65500  0.27700  Biso   1.000  H
  H14      1.0000 0.59500  0.28100  0.52700  Biso   1.000  H
  H15      1.0000 0.90500  0.21900  0.52700  Biso   1.000  H
  H16      1.0000 0.53100  0.15500  0.77700  Biso   1.000  H
  H17      1.0000 0.03100  0.15500  0.72300  Biso   1.000  H
  H18      1.0000 0.53100  0.65500  0.22300  Biso   1.000  H
  H19      1.0000 0.59500  0.28100  0.97300  Biso   1.000  H
  H20      1.0000 0.96900  0.34500  0.72300  Biso   1.000  H
  H21      1.0000 0.90500  0.21900  0.97300  Biso   1.000  H
  H22      1.0000 0.46900  0.84500  0.22300  Biso   1.000  H
  H23      1.0000 0.96900  0.84500  0.27700  Biso   1.000  H
  H24      1.0000 0.46900  0.34500  0.77700  Biso   1.000  H
  H25      1.0000 0.18570  0.53730  0.12090  Biso   1.000  H
  H26      1.0000 0.71270  0.43570  0.37090  Biso   1.000  H
  H27      1.0000 0.78730  0.06430  0.37090  Biso   1.000  H
  H28      1.0000 0.68570  0.03730  0.62090  Biso   1.000  H
  H29      1.0000 0.18570  0.03730  0.87910  Biso   1.000  H
  H30      1.0000 0.68570  0.53730  0.37910  Biso   1.000  H
  H31      1.0000 0.71270  0.43570  0.12910  Biso   1.000  H
  H32      1.0000 0.81430  0.46270  0.87910  Biso   1.000  H
  H33      1.0000 0.78730  0.06430  0.12910  Biso   1.000  H
  H34      1.0000 0.31430  0.96270  0.37910  Biso   1.000  H
  H35      1.0000 0.81430  0.96270  0.12090  Biso   1.000  H
  H36      1.0000 0.31430  0.46270  0.62090  Biso   1.000  H
  H37      1.0000 0.28530  0.40090  0.21480  Biso   1.000  H
  H38      1.0000 0.84910  0.53530  0.46480  Biso   1.000  H
  H39      1.0000 0.65090  0.96470  0.46480  Biso   1.000  H
  H40      1.0000 0.78530  0.90090  0.71480  Biso   1.000  H
  H41      1.0000 0.28530  0.90090  0.78520  Biso   1.000  H
  H42      1.0000 0.78530  0.40090  0.28520  Biso   1.000  H
  H43      1.0000 0.84910  0.53530  0.03520  Biso   1.000  H
  H44      1.0000 0.71470  0.59910  0.78520  Biso   1.000  H
  H45      1.0000 0.65090  0.96470  0.03520  Biso   1.000  H
  H46      1.0000 0.21470  0.09910  0.28520  Biso   1.000  H
  H47      1.0000 0.71470  0.09910  0.21480  Biso   1.000  H
  H48      1.0000 0.21470  0.59910  0.71480  Biso   1.000  H
  H49      1.0000 0.35450  0.37660  0.13460  Biso   1.000  H
  H50      1.0000 0.87340  0.60450  0.38460  Biso   1.000  H
  H51      1.0000 0.62660  0.89550  0.38460  Biso   1.000  H
  H52      1.0000 0.85450  0.87660  0.63460  Biso   1.000  H
  H53      1.0000 0.35450  0.87660  0.86540  Biso   1.000  H
  H54      1.0000 0.85450  0.37660  0.36540  Biso   1.000  H
  H55      1.0000 0.87340  0.60450  0.11540  Biso   1.000  H
  H56      1.0000 0.64550  0.62340  0.86540  Biso   1.000  H
  H57      1.0000 0.62660  0.89550  0.11540  Biso   1.000  H
  H58      1.0000 0.14550  0.12340  0.36540  Biso   1.000  H
  H59      1.0000 0.64550  0.12340  0.13460  Biso   1.000  H
  H60      1.0000 0.14550  0.62340  0.63460  Biso   1.000  H
  H61      1.0000 0.32870  0.45650  0.99070  Biso   1.000  H
  H62      1.0000 0.79350  0.57870  0.24070  Biso   1.000  H
  H63      1.0000 0.70650  0.92130  0.24070  Biso   1.000  H
  H64      1.0000 0.82870  0.95650  0.49070  Biso   1.000  H
  H65      1.0000 0.32870  0.95650  0.00930  Biso   1.000  H
  H66      1.0000 0.82870  0.45650  0.50930  Biso   1.000  H
  H67      1.0000 0.79350  0.57870  0.25930  Biso   1.000  H
  H68      1.0000 0.67130  0.54350  0.00930  Biso   1.000  H
  H69      1.0000 0.70650  0.92130  0.25930  Biso   1.000  H
  H70      1.0000 0.17130  0.04350  0.50930  Biso   1.000  H
  H71      1.0000 0.67130  0.04350  0.99070  Biso   1.000  H
  H72      1.0000 0.17130  0.54350  0.49070  Biso   1.000  H
  H73      1.0000 0.33860  0.37940  0.01170  Biso   1.000  H
  H74      1.0000 0.87060  0.58860  0.26170  Biso   1.000  H
  H75      1.0000 0.62940  0.91140  0.26170  Biso   1.000  H
  H76      1.0000 0.83860  0.87940  0.51170  Biso   1.000  H
  H77      1.0000 0.33860  0.87940  0.98830  Biso   1.000  H
  H78      1.0000 0.83860  0.37940  0.48830  Biso   1.000  H
  H79      1.0000 0.87060  0.58860  0.23830  Biso   1.000  H
  H80      1.0000 0.66140  0.62060  0.98830  Biso   1.000  H
  H81      1.0000 0.62940  0.91140  0.23830  Biso   1.000  H
  H82      1.0000 0.16140  0.12060  0.48830  Biso   1.000  H
  H83      1.0000 0.66140  0.12060  0.01170  Biso   1.000  H
  H84      1.0000 0.16140  0.62060  0.51170  Biso   1.000  H
  H85      1.0000 0.39390  0.43580  0.02870  Biso   1.000  H
  H86      1.0000 0.81420  0.64390  0.27870  Biso   1.000  H
  H87      1.0000 0.68580  0.85610  0.27870  Biso   1.000  H
  H88      1.0000 0.89390  0.93580  0.52870  Biso   1.000  H
  H89      1.0000 0.39390  0.93580  0.97130  Biso   1.000  H
  H90      1.0000 0.89390  0.43580  0.47130  Biso   1.000  H
  H91      1.0000 0.81420  0.64390  0.22130  Biso   1.000  H
  H92      1.0000 0.60610  0.56420  0.97130  Biso   1.000  H
  H93      1.0000 0.68580  0.85610  0.22130  Biso   1.000  H
  H94      1.0000 0.10610  0.06420  0.47130  Biso   1.000  H
  H95      1.0000 0.60610  0.06420  0.02870  Biso   1.000  H
  H96      1.0000 0.10610  0.56420  0.52870  Biso   1.000  H
  N25      1.0000 0.25840  0.50679  0.32441  Biso   1.000  N
  N26      1.0000 0.74321  0.50840  0.57441  Biso   1.000  N
  N27      1.0000 0.75840  0.00679  0.82441  Biso   1.000  N
  N28      1.0000 0.25840  0.00679  0.67559  Biso   1.000  N
  N29      1.0000 0.74160  0.49321  0.67559  Biso   1.000  N
  N30      1.0000 0.75679  0.99160  0.92559  Biso   1.000  N
  N31      1.0000 0.24160  0.99321  0.17559  Biso   1.000  N
  N32      1.0000 0.24160  0.49321  0.82441  Biso   1.000  N
  Cu13     1.0000 0.24044  0.58897  0.99405  Biso   1.000  Cu
  Cu14     1.0000 0.66103  0.49044  0.24405  Biso   1.000  Cu
  Cu15     1.0000 0.24044  0.08897  0.00595  Biso   1.000  Cu
  Cu16     1.0000 0.74044  0.58897  0.50595  Biso   1.000  Cu
  Cu17     1.0000 0.83897  0.00956  0.25595  Biso   1.000  Cu
  Cu18     1.0000 0.25956  0.91103  0.50595  Biso   1.000  Cu
  Cu19     1.0000 0.75956  0.91103  0.99405  Biso   1.000  Cu
  Cu20     1.0000 0.25956  0.41103  0.49405  Biso   1.000  Cu
