data_image0
_cell_length_a       18.808
_cell_length_b       18.808
_cell_length_c       22.182
_cell_angle_alpha    90
_cell_angle_beta     90
_cell_angle_gamma    90

_symmetry_space_group_name_H-M    "P 1"
_symmetry_int_tables_number       1

loop_
  _symmetry_equiv_pos_as_xyz
  'x, y, z'

loop_
  _atom_site_label
  _atom_site_occupancy
  _atom_site_fract_x
  _atom_site_fract_y
  _atom_site_fract_z
  _atom_site_thermal_displace_type
  _atom_site_B_iso_or_equiv
  _atom_site_type_symbol
  Cu1      1.0000 0.16514  0.49134  0.23990  Biso   1.000  Cu
  Cu2      1.0000 0.75866  0.41514  0.48990  Biso   1.000  Cu
  Cu3      1.0000 0.74134  0.08486  0.48990  Biso   1.000  Cu
  Cu4      1.0000 0.66514  0.99134  0.73990  Biso   1.000  Cu
  Cu5      1.0000 0.16514  0.99134  0.76010  Biso   1.000  Cu
  Cu6      1.0000 0.66514  0.49134  0.26010  Biso   1.000  Cu
  Cu7      1.0000 0.75866  0.41514  0.01010  Biso   1.000  Cu
  Cu8      1.0000 0.83486  0.50866  0.76010  Biso   1.000  Cu
  Cu9      1.0000 0.74134  0.08486  0.01010  Biso   1.000  Cu
  Cu10     1.0000 0.33486  0.00866  0.26010  Biso   1.000  Cu
  Cu11     1.0000 0.83486  0.00866  0.23990  Biso   1.000  Cu
  Cu12     1.0000 0.33486  0.50866  0.73990  Biso   1.000  Cu
  O1       1.0000 0.16899  0.39261  0.26740  Biso   1.000  O
  O2       1.0000 0.85739  0.41899  0.51740  Biso   1.000  O
  O3       1.0000 0.64261  0.08101  0.51740  Biso   1.000  O
  O4       1.0000 0.66899  0.89261  0.76740  Biso   1.000  O
  O5       1.0000 0.16899  0.89261  0.73260  Biso   1.000  O
  O6       1.0000 0.66899  0.39261  0.23260  Biso   1.000  O
  O7       1.0000 0.85739  0.41899  0.98260  Biso   1.000  O
  O8       1.0000 0.83101  0.60739  0.73260  Biso   1.000  O
  O9       1.0000 0.64261  0.08101  0.98260  Biso   1.000  O
  O10      1.0000 0.33101  0.10739  0.23260  Biso   1.000  O
  O11      1.0000 0.83101  0.10739  0.26740  Biso   1.000  O
  O12      1.0000 0.33101  0.60739  0.76740  Biso   1.000  O
  O13      1.0000 0.06603  0.46044  0.18630  Biso   1.000  O
  O14      1.0000 0.78956  0.31603  0.43630  Biso   1.000  O
  O15      1.0000 0.71044  0.18397  0.43630  Biso   1.000  O
  O16      1.0000 0.56603  0.96044  0.68630  Biso   1.000  O
  O17      1.0000 0.06603  0.96044  0.81370  Biso   1.000  O
  O18      1.0000 0.56603  0.46044  0.31370  Biso   1.000  O
  O19      1.0000 0.78956  0.31603  0.06370  Biso   1.000  O
  O20      1.0000 0.93397  0.53956  0.81370  Biso   1.000  O
  O21      1.0000 0.71044  0.18397  0.06370  Biso   1.000  O
  O22      1.0000 0.43397  0.03956  0.31370  Biso   1.000  O
  O23      1.0000 0.93397  0.03956  0.18630  Biso   1.000  O
  O24      1.0000 0.43397  0.53956  0.68630  Biso   1.000  O
  O25      1.0000 0.09565  0.51518  0.30489  Biso   1.000  O
  O26      1.0000 0.73482  0.34565  0.55489  Biso   1.000  O
  O27      1.0000 0.76518  0.15435  0.55489  Biso   1.000  O
  O28      1.0000 0.59565  0.01518  0.80489  Biso   1.000  O
  O29      1.0000 0.09565  0.01518  0.69511  Biso   1.000  O
  O30      1.0000 0.59565  0.51518  0.19511  Biso   1.000  O
  O31      1.0000 0.73482  0.34565  0.94511  Biso   1.000  O
  O32      1.0000 0.90435  0.48482  0.69511  Biso   1.000  O
  O33      1.0000 0.76518  0.15435  0.94511  Biso   1.000  O
  O34      1.0000 0.40435  0.98482  0.19511  Biso   1.000  O
  O35      1.0000 0.90435  0.98482  0.30489  Biso   1.000  O
  O36      1.0000 0.40435  0.48482  0.80489  Biso   1.000  O
  O37      1.0000 0.16434  0.59044  0.21318  Biso   1.000  O
  O38      1.0000 0.65956  0.41434  0.46318  Biso   1.000  O
  O39      1.0000 0.84044  0.08566  0.46318  Biso   1.000  O
  O40      1.0000 0.66434  0.09044  0.71318  Biso   1.000  O
  O41      1.0000 0.16434  0.09044  0.78682  Biso   1.000  O
  O42      1.0000 0.66434  0.59044  0.28682  Biso   1.000  O
  O43      1.0000 0.65956  0.41434  0.03682  Biso   1.000  O
  O44      1.0000 0.83566  0.40956  0.78682  Biso   1.000  O
  O45      1.0000 0.84044  0.08566  0.03682  Biso   1.000  O
  O46      1.0000 0.33566  0.90956  0.28682  Biso   1.000  O
  O47      1.0000 0.83566  0.90956  0.21318  Biso   1.000  O
  O48      1.0000 0.33566  0.40956  0.71318  Biso   1.000  O
  N1       1.0000 0.23110  0.47014  0.17024  Biso   1.000  N
  N2       1.0000 0.77986  0.48110  0.42024  Biso   1.000  N
  N3       1.0000 0.72014  0.01890  0.42024  Biso   1.000  N
  N4       1.0000 0.73110  0.97014  0.67024  Biso   1.000  N
  N5       1.0000 0.23110  0.97014  0.82976  Biso   1.000  N
  N6       1.0000 0.73110  0.47014  0.32976  Biso   1.000  N
  N7       1.0000 0.77986  0.48110  0.07976  Biso   1.000  N
  N8       1.0000 0.76890  0.52986  0.82976  Biso   1.000  N
  N9       1.0000 0.72014  0.01890  0.07976  Biso   1.000  N
  N10      1.0000 0.26890  0.02986  0.32976  Biso   1.000  N
  N11      1.0000 0.76890  0.02986  0.17024  Biso   1.000  N
  N12      1.0000 0.26890  0.52986  0.67024  Biso   1.000  N
  N13      1.0000 0.25769  0.48931  0.06674  Biso   1.000  N
  N14      1.0000 0.76069  0.50769  0.31674  Biso   1.000  N
  N15      1.0000 0.73931  0.99231  0.31674  Biso   1.000  N
  N16      1.0000 0.75769  0.98931  0.56674  Biso   1.000  N
  N17      1.0000 0.25769  0.98931  0.93326  Biso   1.000  N
  N18      1.0000 0.75769  0.48931  0.43326  Biso   1.000  N
  N19      1.0000 0.76069  0.50769  0.18326  Biso   1.000  N
  N20      1.0000 0.74231  0.51069  0.93326  Biso   1.000  N
  N21      1.0000 0.73931  0.99231  0.18326  Biso   1.000  N
  N22      1.0000 0.24231  0.01069  0.43326  Biso   1.000  N
  N23      1.0000 0.74231  0.01069  0.06674  Biso   1.000  N
  N24      1.0000 0.24231  0.51069  0.56674  Biso   1.000  N
  C1       1.0000 0.11901  0.34710  0.26592  Biso   1.000  C
  C2       1.0000 0.90290  0.36901  0.51592  Biso   1.000  C
  C3       1.0000 0.59710  0.13099  0.51592  Biso   1.000  C
  C4       1.0000 0.61901  0.84710  0.76592  Biso   1.000  C
  C5       1.0000 0.11901  0.84710  0.73408  Biso   1.000  C
  C6       1.0000 0.61901  0.34710  0.23408  Biso   1.000  C
  C7       1.0000 0.90290  0.36901  0.98408  Biso   1.000  C
  C8       1.0000 0.88099  0.65290  0.73408  Biso   1.000  C
  C9       1.0000 0.59710  0.13099  0.98408  Biso   1.000  C
  C10      1.0000 0.38099  0.15290  0.23408  Biso   1.000  C
  C11      1.0000 0.88099  0.15290  0.26592  Biso   1.000  C
  C12      1.0000 0.38099  0.65290  0.76592  Biso   1.000  C
  C13      1.0000 0.05432  0.34902  0.23709  Biso   1.000  C
  C14      1.0000 0.90098  0.30432  0.48709  Biso   1.000  C
  C15      1.0000 0.59902  0.19568  0.48709  Biso   1.000  C
  C16      1.0000 0.55432  0.84902  0.73709  Biso   1.000  C
  C17      1.0000 0.05432  0.84902  0.76291  Biso   1.000  C
  C18      1.0000 0.55432  0.34902  0.26291  Biso   1.000  C
  C19      1.0000 0.90098  0.30432  0.01291  Biso   1.000  C
  C20      1.0000 0.94568  0.65098  0.76291  Biso   1.000  C
  C21      1.0000 0.59902  0.19568  0.01291  Biso   1.000  C
  C22      1.0000 0.44568  0.15098  0.26291  Biso   1.000  C
  C23      1.0000 0.94568  0.15098  0.23709  Biso   1.000  C
  C24      1.0000 0.44568  0.65098  0.73709  Biso   1.000  C
  C25      1.0000 0.03331  0.40569  0.19909  Biso   1.000  C
  C26      1.0000 0.84431  0.28331  0.44909  Biso   1.000  C
  C27      1.0000 0.65569  0.21669  0.44909  Biso   1.000  C
  C28      1.0000 0.53331  0.90569  0.69909  Biso   1.000  C
  C29      1.0000 0.03331  0.90569  0.80091  Biso   1.000  C
  C30      1.0000 0.53331  0.40569  0.30091  Biso   1.000  C
  C31      1.0000 0.84431  0.28331  0.05091  Biso   1.000  C
  C32      1.0000 0.96669  0.59431  0.80091  Biso   1.000  C
  C33      1.0000 0.65569  0.21669  0.05091  Biso   1.000  C
  C34      1.0000 0.46669  0.09431  0.30091  Biso   1.000  C
  C35      1.0000 0.96669  0.09431  0.19909  Biso   1.000  C
  C36      1.0000 0.46669  0.59431  0.69909  Biso   1.000  C
  C37      1.0000 0.13755  0.27896  0.30065  Biso   1.000  C
  C38      1.0000 0.97104  0.38755  0.55065  Biso   1.000  C
  C39      1.0000 0.52896  0.11245  0.55065  Biso   1.000  C
  C40      1.0000 0.63755  0.77896  0.80065  Biso   1.000  C
  C41      1.0000 0.13755  0.77896  0.69935  Biso   1.000  C
  C42      1.0000 0.63755  0.27896  0.19935  Biso   1.000  C
  C43      1.0000 0.97104  0.38755  0.94935  Biso   1.000  C
  C44      1.0000 0.86245  0.72104  0.69935  Biso   1.000  C
  C45      1.0000 0.52896  0.11245  0.94935  Biso   1.000  C
  C46      1.0000 0.36245  0.22104  0.19935  Biso   1.000  C
  C47      1.0000 0.86245  0.22104  0.30065  Biso   1.000  C
  C48      1.0000 0.36245  0.72104  0.80065  Biso   1.000  C
  C49      1.0000 0.95827  0.39911  0.17164  Biso   1.000  C
  C50      1.0000 0.85089  0.20827  0.42164  Biso   1.000  C
  C51      1.0000 0.64911  0.29173  0.42164  Biso   1.000  C
  C52      1.0000 0.45827  0.89911  0.67164  Biso   1.000  C
  C53      1.0000 0.95827  0.89911  0.82836  Biso   1.000  C
  C54      1.0000 0.45827  0.39911  0.32836  Biso   1.000  C
  C55      1.0000 0.85089  0.20827  0.07836  Biso   1.000  C
  C56      1.0000 0.04173  0.60089  0.82836  Biso   1.000  C
  C57      1.0000 0.64911  0.29173  0.07836  Biso   1.000  C
  C58      1.0000 0.54173  0.10089  0.32836  Biso   1.000  C
  C59      1.0000 0.04173  0.10089  0.17164  Biso   1.000  C
  C60      1.0000 0.54173  0.60089  0.67164  Biso   1.000  C
  C61      1.0000 0.05739  0.56976  0.30466  Biso   1.000  C
  C62      1.0000 0.68024  0.30739  0.55466  Biso   1.000  C
  C63      1.0000 0.81976  0.19261  0.55466  Biso   1.000  C
  C64      1.0000 0.55739  0.06976  0.80466  Biso   1.000  C
  C65      1.0000 0.05739  0.06976  0.69534  Biso   1.000  C
  C66      1.0000 0.55739  0.56976  0.19534  Biso   1.000  C
  C67      1.0000 0.68024  0.30739  0.94534  Biso   1.000  C
  C68      1.0000 0.94261  0.43024  0.69534  Biso   1.000  C
  C69      1.0000 0.81976  0.19261  0.94534  Biso   1.000  C
  C70      1.0000 0.44261  0.93024  0.19534  Biso   1.000  C
  C71      1.0000 0.94261  0.93024  0.30466  Biso   1.000  C
  C72      1.0000 0.44261  0.43024  0.80466  Biso   1.000  C
  C73      1.0000 0.06219  0.62949  0.26731  Biso   1.000  C
  C74      1.0000 0.62051  0.31219  0.51731  Biso   1.000  C
  C75      1.0000 0.87949  0.18781  0.51731  Biso   1.000  C
  C76      1.0000 0.56219  0.12949  0.76731  Biso   1.000  C
  C77      1.0000 0.06219  0.12949  0.73269  Biso   1.000  C
  C78      1.0000 0.56219  0.62949  0.23269  Biso   1.000  C
  C79      1.0000 0.62051  0.31219  0.98269  Biso   1.000  C
  C80      1.0000 0.93781  0.37051  0.73269  Biso   1.000  C
  C81      1.0000 0.87949  0.18781  0.98269  Biso   1.000  C
  C82      1.0000 0.43781  0.87051  0.23269  Biso   1.000  C
  C83      1.0000 0.93781  0.87051  0.26731  Biso   1.000  C
  C84      1.0000 0.43781  0.37051  0.76731  Biso   1.000  C
  C85      1.0000 0.11738  0.63540  0.22618  Biso   1.000  C
  C86      1.0000 0.61460  0.36738  0.47618  Biso   1.000  C
  C87      1.0000 0.88540  0.13262  0.47618  Biso   1.000  C
  C88      1.0000 0.61738  0.13540  0.72618  Biso   1.000  C
  C89      1.0000 0.11738  0.13540  0.77382  Biso   1.000  C
  C90      1.0000 0.61738  0.63540  0.27382  Biso   1.000  C
  C91      1.0000 0.61460  0.36738  0.02382  Biso   1.000  C
  C92      1.0000 0.88262  0.36460  0.77382  Biso   1.000  C
  C93      1.0000 0.88540  0.13262  0.02382  Biso   1.000  C
  C94      1.0000 0.38262  0.86460  0.27382  Biso   1.000  C
  C95      1.0000 0.88262  0.86460  0.22618  Biso   1.000  C
  C96      1.0000 0.38262  0.36460  0.72618  Biso   1.000  C
  C97      1.0000 0.99963  0.56981  0.35372  Biso   1.000  C
  C98      1.0000 0.68019  0.24963  0.60372  Biso   1.000  C
  C99      1.0000 0.81981  0.25037  0.60372  Biso   1.000  C
  C100     1.0000 0.49963  0.06981  0.85372  Biso   1.000  C
  C101     1.0000 0.99963  0.06981  0.64628  Biso   1.000  C
  C102     1.0000 0.49963  0.56981  0.14628  Biso   1.000  C
  C103     1.0000 0.68019  0.24963  0.89628  Biso   1.000  C
  C104     1.0000 0.00037  0.43019  0.64628  Biso   1.000  C
  C105     1.0000 0.81981  0.25037  0.89628  Biso   1.000  C
  C106     1.0000 0.50037  0.93019  0.14628  Biso   1.000  C
  C107     1.0000 0.00037  0.93019  0.35372  Biso   1.000  C
  C108     1.0000 0.50037  0.43019  0.85372  Biso   1.000  C
  C109     1.0000 0.12784  0.70653  0.19348  Biso   1.000  C
  C110     1.0000 0.54347  0.37784  0.44348  Biso   1.000  C
  C111     1.0000 0.95653  0.12216  0.44348  Biso   1.000  C
  C112     1.0000 0.62784  0.20653  0.69348  Biso   1.000  C
  C113     1.0000 0.12784  0.20653  0.80652  Biso   1.000  C
  C114     1.0000 0.62784  0.70653  0.30652  Biso   1.000  C
  C115     1.0000 0.54347  0.37784  0.05652  Biso   1.000  C
  C116     1.0000 0.87216  0.29347  0.80652  Biso   1.000  C
  C117     1.0000 0.95653  0.12216  0.05652  Biso   1.000  C
  C118     1.0000 0.37216  0.79347  0.30652  Biso   1.000  C
  C119     1.0000 0.87216  0.79347  0.19348  Biso   1.000  C
  C120     1.0000 0.37216  0.29347  0.69348  Biso   1.000  C
  C121     1.0000 0.22166  0.50274  0.11709  Biso   1.000  C
  C122     1.0000 0.74726  0.47166  0.36709  Biso   1.000  C
  C123     1.0000 0.75274  0.02834  0.36709  Biso   1.000  C
  C124     1.0000 0.72166  0.00274  0.61709  Biso   1.000  C
  C125     1.0000 0.22166  0.00274  0.88291  Biso   1.000  C
  C126     1.0000 0.72166  0.50274  0.38291  Biso   1.000  C
  C127     1.0000 0.74726  0.47166  0.13291  Biso   1.000  C
  C128     1.0000 0.77834  0.49726  0.88291  Biso   1.000  C
  C129     1.0000 0.75274  0.02834  0.13291  Biso   1.000  C
  C130     1.0000 0.27834  0.99726  0.38291  Biso   1.000  C
  C131     1.0000 0.77834  0.99726  0.11709  Biso   1.000  C
  C132     1.0000 0.27834  0.49726  0.61709  Biso   1.000  C
  C133     1.0000 0.28219  0.42024  0.17286  Biso   1.000  C
  C134     1.0000 0.82976  0.53219  0.42286  Biso   1.000  C
  C135     1.0000 0.67024  0.96781  0.42286  Biso   1.000  C
  C136     1.0000 0.78219  0.92024  0.67286  Biso   1.000  C
  C137     1.0000 0.28219  0.92024  0.82714  Biso   1.000  C
  C138     1.0000 0.78219  0.42024  0.32714  Biso   1.000  C
  C139     1.0000 0.82976  0.53219  0.07714  Biso   1.000  C
  C140     1.0000 0.71781  0.57976  0.82714  Biso   1.000  C
  C141     1.0000 0.67024  0.96781  0.07714  Biso   1.000  C
  C142     1.0000 0.21781  0.07976  0.32714  Biso   1.000  C
  C143     1.0000 0.71781  0.07976  0.17286  Biso   1.000  C
  C144     1.0000 0.21781  0.57976  0.67286  Biso   1.000  C
  C145     1.0000 0.32205  0.40309  0.12276  Biso   1.000  C
  C146     1.0000 0.84691  0.57205  0.37276  Biso   1.000  C
  C147     1.0000 0.65309  0.92795  0.37276  Biso   1.000  C
  C148     1.0000 0.82205  0.90309  0.62276  Biso   1.000  C
  C149     1.0000 0.32205  0.90309  0.87724  Biso   1.000  C
  C150     1.0000 0.82205  0.40309  0.37724  Biso   1.000  C
  C151     1.0000 0.84691  0.57205  0.12724  Biso   1.000  C
  C152     1.0000 0.67795  0.59691  0.87724  Biso   1.000  C
  C153     1.0000 0.65309  0.92795  0.12724  Biso   1.000  C
  C154     1.0000 0.17795  0.09691  0.37724  Biso   1.000  C
  C155     1.0000 0.67795  0.09691  0.12276  Biso   1.000  C
  C156     1.0000 0.17795  0.59691  0.62276  Biso   1.000  C
  C157     1.0000 0.30727  0.43758  0.06870  Biso   1.000  C
  C158     1.0000 0.81242  0.55727  0.31870  Biso   1.000  C
  C159     1.0000 0.68758  0.94273  0.31870  Biso   1.000  C
  C160     1.0000 0.80727  0.93758  0.56870  Biso   1.000  C
  C161     1.0000 0.30727  0.93758  0.93130  Biso   1.000  C
  C162     1.0000 0.80727  0.43758  0.43130  Biso   1.000  C
  C163     1.0000 0.81242  0.55727  0.18130  Biso   1.000  C
  C164     1.0000 0.69273  0.56242  0.93130  Biso   1.000  C
  C165     1.0000 0.68758  0.94273  0.18130  Biso   1.000  C
  C166     1.0000 0.19273  0.06242  0.43130  Biso   1.000  C
  C167     1.0000 0.69273  0.06242  0.06870  Biso   1.000  C
  C168     1.0000 0.19273  0.56242  0.56870  Biso   1.000  C
  C169     1.0000 0.34291  0.41837  0.01086  Biso   1.000  C
  C170     1.0000 0.83163  0.59291  0.26086  Biso   1.000  C
  C171     1.0000 0.66837  0.90709  0.26086  Biso   1.000  C
  C172     1.0000 0.84291  0.91837  0.51086  Biso   1.000  C
  C173     1.0000 0.34291  0.91837  0.98914  Biso   1.000  C
  C174     1.0000 0.84291  0.41837  0.48914  Biso   1.000  C
  C175     1.0000 0.83163  0.59291  0.23914  Biso   1.000  C
  C176     1.0000 0.65709  0.58163  0.98914  Biso   1.000  C
  C177     1.0000 0.66837  0.90709  0.23914  Biso   1.000  C
  C178     1.0000 0.15709  0.08163  0.48914  Biso   1.000  C
  C179     1.0000 0.65709  0.08163  0.01086  Biso   1.000  C
  C180     1.0000 0.15709  0.58163  0.51086  Biso   1.000  C
  F1       1.0000 0.17236  0.29256  0.35145  Biso   1.000  F
  F2       1.0000 0.95744  0.42236  0.60145  Biso   1.000  F
  F3       1.0000 0.54256  0.07764  0.60145  Biso   1.000  F
  F4       1.0000 0.67236  0.79256  0.85145  Biso   1.000  F
  F5       1.0000 0.17236  0.79256  0.64855  Biso   1.000  F
  F6       1.0000 0.67236  0.29256  0.14855  Biso   1.000  F
  F7       1.0000 0.95744  0.42236  0.89855  Biso   1.000  F
  F8       1.0000 0.82764  0.70744  0.64855  Biso   1.000  F
  F9       1.0000 0.54256  0.07764  0.89855  Biso   1.000  F
  F10      1.0000 0.32764  0.20744  0.14855  Biso   1.000  F
  F11      1.0000 0.82764  0.20744  0.35145  Biso   1.000  F
  F12      1.0000 0.32764  0.70744  0.85145  Biso   1.000  F
  F13      1.0000 0.17835  0.23680  0.26762  Biso   1.000  F
  F14      1.0000 0.01320  0.42835  0.51762  Biso   1.000  F
  F15      1.0000 0.48680  0.07165  0.51762  Biso   1.000  F
  F16      1.0000 0.67835  0.73680  0.76762  Biso   1.000  F
  F17      1.0000 0.17835  0.73680  0.73238  Biso   1.000  F
  F18      1.0000 0.67835  0.23680  0.23238  Biso   1.000  F
  F19      1.0000 0.01320  0.42835  0.98238  Biso   1.000  F
  F20      1.0000 0.82165  0.76320  0.73238  Biso   1.000  F
  F21      1.0000 0.48680  0.07165  0.98238  Biso   1.000  F
  F22      1.0000 0.32165  0.26320  0.23238  Biso   1.000  F
  F23      1.0000 0.82165  0.26320  0.26762  Biso   1.000  F
  F24      1.0000 0.32165  0.76320  0.76762  Biso   1.000  F
  F25      1.0000 0.08035  0.24081  0.31609  Biso   1.000  F
  F26      1.0000 0.00919  0.33035  0.56609  Biso   1.000  F
  F27      1.0000 0.49081  0.16965  0.56609  Biso   1.000  F
  F28      1.0000 0.58035  0.74081  0.81609  Biso   1.000  F
  F29      1.0000 0.08035  0.74081  0.68391  Biso   1.000  F
  F30      1.0000 0.58035  0.24081  0.18391  Biso   1.000  F
  F31      1.0000 0.00919  0.33035  0.93391  Biso   1.000  F
  F32      1.0000 0.91965  0.75919  0.68391  Biso   1.000  F
  F33      1.0000 0.49081  0.16965  0.93391  Biso   1.000  F
  F34      1.0000 0.41965  0.25919  0.18391  Biso   1.000  F
  F35      1.0000 0.91965  0.25919  0.31609  Biso   1.000  F
  F36      1.0000 0.41965  0.75919  0.81609  Biso   1.000  F
  F37      1.0000 0.93737  0.33163  0.16416  Biso   1.000  F
  F38      1.0000 0.91837  0.18737  0.41416  Biso   1.000  F
  F39      1.0000 0.58163  0.31263  0.41416  Biso   1.000  F
  F40      1.0000 0.43737  0.83163  0.66416  Biso   1.000  F
  F41      1.0000 0.93737  0.83163  0.83584  Biso   1.000  F
  F42      1.0000 0.43737  0.33163  0.33584  Biso   1.000  F
  F43      1.0000 0.91837  0.18737  0.08584  Biso   1.000  F
  F44      1.0000 0.06263  0.66837  0.83584  Biso   1.000  F
  F45      1.0000 0.58163  0.31263  0.08584  Biso   1.000  F
  F46      1.0000 0.56263  0.16837  0.33584  Biso   1.000  F
  F47      1.0000 0.06263  0.16837  0.16416  Biso   1.000  F
  F48      1.0000 0.56263  0.66837  0.66416  Biso   1.000  F
  F49      1.0000 0.91066  0.43029  0.20800  Biso   1.000  F
  F50      1.0000 0.81971  0.16066  0.45800  Biso   1.000  F
  F51      1.0000 0.68029  0.33934  0.45800  Biso   1.000  F
  F52      1.0000 0.41066  0.93029  0.70800  Biso   1.000  F
  F53      1.0000 0.91066  0.93029  0.79200  Biso   1.000  F
  F54      1.0000 0.41066  0.43029  0.29200  Biso   1.000  F
  F55      1.0000 0.81971  0.16066  0.04200  Biso   1.000  F
  F56      1.0000 0.08934  0.56971  0.79200  Biso   1.000  F
  F57      1.0000 0.68029  0.33934  0.04200  Biso   1.000  F
  F58      1.0000 0.58934  0.06971  0.29200  Biso   1.000  F
  F59      1.0000 0.08934  0.06971  0.20800  Biso   1.000  F
  F60      1.0000 0.58934  0.56971  0.70800  Biso   1.000  F
  F61      1.0000 0.95389  0.43084  0.11814  Biso   1.000  F
  F62      1.0000 0.81916  0.20389  0.36814  Biso   1.000  F
  F63      1.0000 0.68084  0.29611  0.36814  Biso   1.000  F
  F64      1.0000 0.45389  0.93084  0.61814  Biso   1.000  F
  F65      1.0000 0.95389  0.93084  0.88186  Biso   1.000  F
  F66      1.0000 0.45389  0.43084  0.38186  Biso   1.000  F
  F67      1.0000 0.81916  0.20389  0.13186  Biso   1.000  F
  F68      1.0000 0.04611  0.56916  0.88186  Biso   1.000  F
  F69      1.0000 0.68084  0.29611  0.13186  Biso   1.000  F
  F70      1.0000 0.54611  0.06916  0.38186  Biso   1.000  F
  F71      1.0000 0.04611  0.06916  0.11814  Biso   1.000  F
  F72      1.0000 0.54611  0.56916  0.61814  Biso   1.000  F
  F73      1.0000 0.95886  0.51220  0.34990  Biso   1.000  F
  F74      1.0000 0.73780  0.20886  0.59990  Biso   1.000  F
  F75      1.0000 0.76220  0.29114  0.59990  Biso   1.000  F
  F76      1.0000 0.45886  0.01220  0.84990  Biso   1.000  F
  F77      1.0000 0.95886  0.01220  0.65010  Biso   1.000  F
  F78      1.0000 0.45886  0.51220  0.15010  Biso   1.000  F
  F79      1.0000 0.73780  0.20886  0.90010  Biso   1.000  F
  F80      1.0000 0.04114  0.48780  0.65010  Biso   1.000  F
  F81      1.0000 0.76220  0.29114  0.90010  Biso   1.000  F
  F82      1.0000 0.54114  0.98780  0.15010  Biso   1.000  F
  F83      1.0000 0.04114  0.98780  0.34990  Biso   1.000  F
  F84      1.0000 0.54114  0.48780  0.84990  Biso   1.000  F
  F85      1.0000 0.95636  0.62626  0.35022  Biso   1.000  F
  F86      1.0000 0.62374  0.20636  0.60022  Biso   1.000  F
  F87      1.0000 0.87626  0.29364  0.60022  Biso   1.000  F
  F88      1.0000 0.45636  0.12626  0.85022  Biso   1.000  F
  F89      1.0000 0.95636  0.12626  0.64978  Biso   1.000  F
  F90      1.0000 0.45636  0.62626  0.14978  Biso   1.000  F
  F91      1.0000 0.62374  0.20636  0.89978  Biso   1.000  F
  F92      1.0000 0.04364  0.37374  0.64978  Biso   1.000  F
  F93      1.0000 0.87626  0.29364  0.89978  Biso   1.000  F
  F94      1.0000 0.54364  0.87374  0.14978  Biso   1.000  F
  F95      1.0000 0.04364  0.87374  0.35022  Biso   1.000  F
  F96      1.0000 0.54364  0.37374  0.85022  Biso   1.000  F
  F97      1.0000 0.02917  0.57056  0.40828  Biso   1.000  F
  F98      1.0000 0.67944  0.27917  0.65828  Biso   1.000  F
  F99      1.0000 0.82056  0.22083  0.65828  Biso   1.000  F
  F100     1.0000 0.52917  0.07056  0.90828  Biso   1.000  F
  F101     1.0000 0.02917  0.07056  0.59172  Biso   1.000  F
  F102     1.0000 0.52917  0.57056  0.09172  Biso   1.000  F
  F103     1.0000 0.67944  0.27917  0.84172  Biso   1.000  F
  F104     1.0000 0.97083  0.42944  0.59172  Biso   1.000  F
  F105     1.0000 0.82056  0.22083  0.84172  Biso   1.000  F
  F106     1.0000 0.47083  0.92944  0.09172  Biso   1.000  F
  F107     1.0000 0.97083  0.92944  0.40828  Biso   1.000  F
  F108     1.0000 0.47083  0.42944  0.90828  Biso   1.000  F
  F109     1.0000 0.07372  0.75152  0.20103  Biso   1.000  F
  F110     1.0000 0.49848  0.32372  0.45103  Biso   1.000  F
  F111     1.0000 0.00152  0.17628  0.45103  Biso   1.000  F
  F112     1.0000 0.57372  0.25152  0.70103  Biso   1.000  F
  F113     1.0000 0.07372  0.25152  0.79897  Biso   1.000  F
  F114     1.0000 0.57372  0.75152  0.29897  Biso   1.000  F
  F115     1.0000 0.49848  0.32372  0.04897  Biso   1.000  F
  F116     1.0000 0.92628  0.24848  0.79897  Biso   1.000  F
  F117     1.0000 0.00152  0.17628  0.04897  Biso   1.000  F
  F118     1.0000 0.42628  0.74848  0.29897  Biso   1.000  F
  F119     1.0000 0.92628  0.74848  0.20103  Biso   1.000  F
  F120     1.0000 0.42628  0.24848  0.70103  Biso   1.000  F
  F121     1.0000 0.18600  0.73852  0.21433  Biso   1.000  F
  F122     1.0000 0.51148  0.43600  0.46433  Biso   1.000  F
  F123     1.0000 0.98852  0.06400  0.46433  Biso   1.000  F
  F124     1.0000 0.68600  0.23852  0.71433  Biso   1.000  F
  F125     1.0000 0.18600  0.23852  0.78567  Biso   1.000  F
  F126     1.0000 0.68600  0.73852  0.28567  Biso   1.000  F
  F127     1.0000 0.51148  0.43600  0.03567  Biso   1.000  F
  F128     1.0000 0.81400  0.26148  0.78567  Biso   1.000  F
  F129     1.0000 0.98852  0.06400  0.03567  Biso   1.000  F
  F130     1.0000 0.31400  0.76148  0.28567  Biso   1.000  F
  F131     1.0000 0.81400  0.76148  0.21433  Biso   1.000  F
  F132     1.0000 0.31400  0.26148  0.71433  Biso   1.000  F
  F133     1.0000 0.13678  0.69733  0.13448  Biso   1.000  F
  F134     1.0000 0.55267  0.38678  0.38448  Biso   1.000  F
  F135     1.0000 0.94733  0.11322  0.38448  Biso   1.000  F
  F136     1.0000 0.63678  0.19733  0.63448  Biso   1.000  F
  F137     1.0000 0.13678  0.19733  0.86552  Biso   1.000  F
  F138     1.0000 0.63678  0.69733  0.36552  Biso   1.000  F
  F139     1.0000 0.55267  0.38678  0.11552  Biso   1.000  F
  F140     1.0000 0.86322  0.30267  0.86552  Biso   1.000  F
  F141     1.0000 0.94733  0.11322  0.11552  Biso   1.000  F
  F142     1.0000 0.36322  0.80267  0.36552  Biso   1.000  F
  F143     1.0000 0.86322  0.80267  0.13448  Biso   1.000  F
  F144     1.0000 0.36322  0.30267  0.63448  Biso   1.000  F
  H1       1.0000 0.02600  0.31190  0.24310  Biso   1.000  H
  H2       1.0000 0.93810  0.27600  0.49310  Biso   1.000  H
  H3       1.0000 0.56190  0.22400  0.49310  Biso   1.000  H
  H4       1.0000 0.52600  0.81190  0.74310  Biso   1.000  H
  H5       1.0000 0.02600  0.81190  0.75690  Biso   1.000  H
  H6       1.0000 0.52600  0.31190  0.25690  Biso   1.000  H
  H7       1.0000 0.93810  0.27600  0.00690  Biso   1.000  H
  H8       1.0000 0.97400  0.68810  0.75690  Biso   1.000  H
  H9       1.0000 0.56190  0.22400  0.00690  Biso   1.000  H
  H10      1.0000 0.47400  0.18810  0.25690  Biso   1.000  H
  H11      1.0000 0.97400  0.18810  0.24310  Biso   1.000  H
  H12      1.0000 0.47400  0.68810  0.74310  Biso   1.000  H
  H13      1.0000 0.03050  0.66660  0.27160  Biso   1.000  H
  H14      1.0000 0.58340  0.28050  0.52160  Biso   1.000  H
  H15      1.0000 0.91660  0.21950  0.52160  Biso   1.000  H
  H16      1.0000 0.53050  0.16660  0.77160  Biso   1.000  H
  H17      1.0000 0.03050  0.16660  0.72840  Biso   1.000  H
  H18      1.0000 0.53050  0.66660  0.22840  Biso   1.000  H
  H19      1.0000 0.58340  0.28050  0.97840  Biso   1.000  H
  H20      1.0000 0.96950  0.33340  0.72840  Biso   1.000  H
  H21      1.0000 0.91660  0.21950  0.97840  Biso   1.000  H
  H22      1.0000 0.46950  0.83340  0.22840  Biso   1.000  H
  H23      1.0000 0.96950  0.83340  0.27160  Biso   1.000  H
  H24      1.0000 0.46950  0.33340  0.77160  Biso   1.000  H
  H25      1.0000 0.18390  0.53790  0.11570  Biso   1.000  H
  H26      1.0000 0.71210  0.43390  0.36570  Biso   1.000  H
  H27      1.0000 0.78790  0.06610  0.36570  Biso   1.000  H
  H28      1.0000 0.68390  0.03790  0.61570  Biso   1.000  H
  H29      1.0000 0.18390  0.03790  0.88430  Biso   1.000  H
  H30      1.0000 0.68390  0.53790  0.38430  Biso   1.000  H
  H31      1.0000 0.71210  0.43390  0.13430  Biso   1.000  H
  H32      1.0000 0.81610  0.46210  0.88430  Biso   1.000  H
  H33      1.0000 0.78790  0.06610  0.13430  Biso   1.000  H
  H34      1.0000 0.31610  0.96210  0.38430  Biso   1.000  H
  H35      1.0000 0.81610  0.96210  0.11570  Biso   1.000  H
  H36      1.0000 0.31610  0.46210  0.61570  Biso   1.000  H
  H37      1.0000 0.28830  0.39840  0.21030  Biso   1.000  H
  H38      1.0000 0.85160  0.53830  0.46030  Biso   1.000  H
  H39      1.0000 0.64840  0.96170  0.46030  Biso   1.000  H
  H40      1.0000 0.78830  0.89840  0.71030  Biso   1.000  H
  H41      1.0000 0.28830  0.89840  0.78970  Biso   1.000  H
  H42      1.0000 0.78830  0.39840  0.28970  Biso   1.000  H
  H43      1.0000 0.85160  0.53830  0.03970  Biso   1.000  H
  H44      1.0000 0.71170  0.60160  0.78970  Biso   1.000  H
  H45      1.0000 0.64840  0.96170  0.03970  Biso   1.000  H
  H46      1.0000 0.21170  0.10160  0.28970  Biso   1.000  H
  H47      1.0000 0.71170  0.10160  0.21030  Biso   1.000  H
  H48      1.0000 0.21170  0.60160  0.71030  Biso   1.000  H
  H49      1.0000 0.35650  0.36860  0.12460  Biso   1.000  H
  H50      1.0000 0.88140  0.60650  0.37460  Biso   1.000  H
  H51      1.0000 0.61860  0.89350  0.37460  Biso   1.000  H
  H52      1.0000 0.85650  0.86860  0.62460  Biso   1.000  H
  H53      1.0000 0.35650  0.86860  0.87540  Biso   1.000  H
  H54      1.0000 0.85650  0.36860  0.37540  Biso   1.000  H
  H55      1.0000 0.88140  0.60650  0.12540  Biso   1.000  H
  H56      1.0000 0.64350  0.63140  0.87540  Biso   1.000  H
  H57      1.0000 0.61860  0.89350  0.12540  Biso   1.000  H
  H58      1.0000 0.14350  0.13140  0.37540  Biso   1.000  H
  H59      1.0000 0.64350  0.13140  0.12460  Biso   1.000  H
  H60      1.0000 0.14350  0.63140  0.62460  Biso   1.000  H
  H61      1.0000 0.37370  0.37660  0.01580  Biso   1.000  H
  H62      1.0000 0.87340  0.62370  0.26580  Biso   1.000  H
  H63      1.0000 0.62660  0.87630  0.26580  Biso   1.000  H
  H64      1.0000 0.87370  0.87660  0.51580  Biso   1.000  H
  H65      1.0000 0.37370  0.87660  0.98420  Biso   1.000  H
  H66      1.0000 0.87370  0.37660  0.48420  Biso   1.000  H
  H67      1.0000 0.87340  0.62370  0.23420  Biso   1.000  H
  H68      1.0000 0.62630  0.62340  0.98420  Biso   1.000  H
  H69      1.0000 0.62660  0.87630  0.23420  Biso   1.000  H
  H70      1.0000 0.12630  0.12340  0.48420  Biso   1.000  H
  H71      1.0000 0.62630  0.12340  0.01580  Biso   1.000  H
  H72      1.0000 0.12630  0.62340  0.51580  Biso   1.000  H
  H73      1.0000 0.30750  0.40640  0.98240  Biso   1.000  H
  H74      1.0000 0.84360  0.55750  0.23240  Biso   1.000  H
  H75      1.0000 0.65640  0.94250  0.23240  Biso   1.000  H
  H76      1.0000 0.80750  0.90640  0.48240  Biso   1.000  H
  H77      1.0000 0.30750  0.90640  0.01760  Biso   1.000  H
  H78      1.0000 0.80750  0.40640  0.51760  Biso   1.000  H
  H79      1.0000 0.84360  0.55750  0.26760  Biso   1.000  H
  H80      1.0000 0.69250  0.59360  0.01760  Biso   1.000  H
  H81      1.0000 0.65640  0.94250  0.26760  Biso   1.000  H
  H82      1.0000 0.19250  0.09360  0.51760  Biso   1.000  H
  H83      1.0000 0.69250  0.09360  0.98240  Biso   1.000  H
  H84      1.0000 0.19250  0.59360  0.48240  Biso   1.000  H
  H85      1.0000 0.36910  0.45740  0.99430  Biso   1.000  H
  H86      1.0000 0.79260  0.61910  0.24430  Biso   1.000  H
  H87      1.0000 0.70740  0.88090  0.24430  Biso   1.000  H
  H88      1.0000 0.86910  0.95740  0.49430  Biso   1.000  H
  H89      1.0000 0.36910  0.95740  0.00570  Biso   1.000  H
  H90      1.0000 0.86910  0.45740  0.50570  Biso   1.000  H
  H91      1.0000 0.79260  0.61910  0.25570  Biso   1.000  H
  H92      1.0000 0.63090  0.54260  0.00570  Biso   1.000  H
  H93      1.0000 0.70740  0.88090  0.25570  Biso   1.000  H
  H94      1.0000 0.13090  0.04260  0.50570  Biso   1.000  H
  H95      1.0000 0.63090  0.04260  0.99430  Biso   1.000  H
  H96      1.0000 0.13090  0.54260  0.49430  Biso   1.000  H
  N25      1.0000 0.26069  0.50769  0.31674  Biso   1.000  N
  N26      1.0000 0.74231  0.51069  0.56674  Biso   1.000  N
  N27      1.0000 0.76069  0.00769  0.81674  Biso   1.000  N
  N28      1.0000 0.26069  0.00769  0.68326  Biso   1.000  N
  N29      1.0000 0.73931  0.49231  0.68326  Biso   1.000  N
  N30      1.0000 0.75769  0.98931  0.93326  Biso   1.000  N
  N31      1.0000 0.23931  0.99231  0.18326  Biso   1.000  N
  N32      1.0000 0.23931  0.49231  0.81674  Biso   1.000  N
  Cu13     1.0000 0.24134  0.58486  0.98990  Biso   1.000  Cu
  Cu14     1.0000 0.66514  0.49134  0.23990  Biso   1.000  Cu
  Cu15     1.0000 0.24134  0.08486  0.01010  Biso   1.000  Cu
  Cu16     1.0000 0.74134  0.58486  0.51010  Biso   1.000  Cu
  Cu17     1.0000 0.83486  0.00866  0.26010  Biso   1.000  Cu
  Cu18     1.0000 0.25866  0.91514  0.51010  Biso   1.000  Cu
  Cu19     1.0000 0.75866  0.91514  0.98990  Biso   1.000  Cu
  Cu20     1.0000 0.25866  0.41514  0.48990  Biso   1.000  Cu
