data_image0
_cell_length_a       9.421
_cell_length_b       12.668
_cell_length_c       9.392
_cell_angle_alpha    90
_cell_angle_beta     102.53
_cell_angle_gamma    90

_symmetry_space_group_name_H-M    "P 1"
_symmetry_int_tables_number       1

loop_
  _symmetry_equiv_pos_as_xyz
  'x, y, z'

loop_
  _atom_site_label
  _atom_site_occupancy
  _atom_site_fract_x
  _atom_site_fract_y
  _atom_site_fract_z
  _atom_site_thermal_displace_type
  _atom_site_B_iso_or_equiv
  _atom_site_type_symbol
  Cu1      1.0000 0.19173  0.14720  0.67560  Biso   1.000  Cu
  Cu2      1.0000 0.80827  0.64720  0.82440  Biso   1.000  Cu
  Cu3      1.0000 0.80827  0.85280  0.32440  Biso   1.000  Cu
  Cu4      1.0000 0.19173  0.35280  0.17560  Biso   1.000  Cu
  Cu5      1.0000 0.49291  0.10215  0.23795  Biso   1.000  Cu
  Cu6      1.0000 0.50709  0.60215  0.26205  Biso   1.000  Cu
  Cu7      1.0000 0.50709  0.89785  0.76205  Biso   1.000  Cu
  Cu8      1.0000 0.49291  0.39785  0.73795  Biso   1.000  Cu
  O1       1.0000 0.07440  0.14320  0.47650  Biso   1.000  O
  O2       1.0000 0.92560  0.64320  0.02350  Biso   1.000  O
  O3       1.0000 0.92560  0.85680  0.52350  Biso   1.000  O
  O4       1.0000 0.07440  0.35680  0.97650  Biso   1.000  O
  O5       1.0000 0.05880  0.22500  0.26350  Biso   1.000  O
  O6       1.0000 0.94120  0.72500  0.23650  Biso   1.000  O
  O7       1.0000 0.94120  0.77500  0.73650  Biso   1.000  O
  O8       1.0000 0.05880  0.27500  0.76350  Biso   1.000  O
  O9       1.0000 0.30280  0.26150  0.59550  Biso   1.000  O
  O10      1.0000 0.69720  0.76150  0.90450  Biso   1.000  O
  O11      1.0000 0.69720  0.73850  0.40450  Biso   1.000  O
  O12      1.0000 0.30280  0.23850  0.09550  Biso   1.000  O
  O13      1.0000 0.30510  0.33470  0.38090  Biso   1.000  O
  O14      1.0000 0.69490  0.83470  0.11910  Biso   1.000  O
  O15      1.0000 0.69490  0.66530  0.61910  Biso   1.000  O
  O16      1.0000 0.30510  0.16530  0.88090  Biso   1.000  O
  O17      1.0000 0.38110  0.98690  0.11920  Biso   1.000  O
  O18      1.0000 0.61890  0.48690  0.38080  Biso   1.000  O
  O19      1.0000 0.61890  0.01310  0.88080  Biso   1.000  O
  O20      1.0000 0.38110  0.51310  0.61920  Biso   1.000  O
  O21      1.0000 0.38450  0.90200  0.91140  Biso   1.000  O
  O22      1.0000 0.61550  0.40200  0.58860  Biso   1.000  O
  O23      1.0000 0.61550  0.09800  0.08860  Biso   1.000  O
  O24      1.0000 0.38450  0.59800  0.41140  Biso   1.000  O
  O25      1.0000 0.38170  0.09020  0.39190  Biso   1.000  O
  O26      1.0000 0.61830  0.59020  0.10810  Biso   1.000  O
  O27      1.0000 0.61830  0.90980  0.60810  Biso   1.000  O
  O28      1.0000 0.38170  0.40980  0.89190  Biso   1.000  O
  O29      1.0000 0.37390  0.02250  0.60940  Biso   1.000  O
  O30      1.0000 0.62610  0.52250  0.89060  Biso   1.000  O
  O31      1.0000 0.62610  0.97750  0.39060  Biso   1.000  O
  O32      1.0000 0.37390  0.47750  0.10940  Biso   1.000  O
  N1       1.0000 0.09290  0.01990  0.73230  Biso   1.000  N
  N2       1.0000 0.90710  0.51990  0.76770  Biso   1.000  N
  N3       1.0000 0.90710  0.98010  0.26770  Biso   1.000  N
  N4       1.0000 0.09290  0.48010  0.23230  Biso   1.000  N
  H1       1.0000 0.06470  0.97950  0.65230  Biso   1.000  H
  H2       1.0000 0.93530  0.47950  0.84770  Biso   1.000  H
  H3       1.0000 0.93530  0.02050  0.34770  Biso   1.000  H
  H4       1.0000 0.06470  0.52050  0.15230  Biso   1.000  H
  H5       1.0000 0.15900  0.98260  0.79630  Biso   1.000  H
  H6       1.0000 0.84100  0.48260  0.70370  Biso   1.000  H
  H7       1.0000 0.84100  0.01740  0.20370  Biso   1.000  H
  H8       1.0000 0.15900  0.51740  0.29630  Biso   1.000  H
  N5       1.0000 0.59060  0.23270  0.32270  Biso   1.000  N
  N6       1.0000 0.40940  0.73270  0.17730  Biso   1.000  N
  N7       1.0000 0.40940  0.76730  0.67730  Biso   1.000  N
  N8       1.0000 0.59060  0.26730  0.82270  Biso   1.000  N
  H9       1.0000 0.58230  0.28060  0.25060  Biso   1.000  H
  H10      1.0000 0.41770  0.78060  0.24940  Biso   1.000  H
  H11      1.0000 0.41770  0.71940  0.74940  Biso   1.000  H
  H12      1.0000 0.58230  0.21940  0.75060  Biso   1.000  H
  H13      1.0000 0.54120  0.25790  0.38730  Biso   1.000  H
  H14      1.0000 0.45880  0.75790  0.11270  Biso   1.000  H
  H15      1.0000 0.45880  0.74210  0.61270  Biso   1.000  H
  H16      1.0000 0.54120  0.24210  0.88730  Biso   1.000  H
  C1       1.0000 0.11680  0.20840  0.39280  Biso   1.000  C
  C2       1.0000 0.88320  0.70840  0.10720  Biso   1.000  C
  C3       1.0000 0.88320  0.79160  0.60720  Biso   1.000  C
  C4       1.0000 0.11680  0.29160  0.89280  Biso   1.000  C
  C5       1.0000 0.25270  0.27300  0.46200  Biso   1.000  C
  C6       1.0000 0.74730  0.77300  0.03800  Biso   1.000  C
  C7       1.0000 0.74730  0.72700  0.53800  Biso   1.000  C
  C8       1.0000 0.25270  0.22700  0.96200  Biso   1.000  C
  C9       1.0000 0.43270  0.96850  0.00940  Biso   1.000  C
  C10      1.0000 0.56730  0.46850  0.49060  Biso   1.000  C
  C11      1.0000 0.56730  0.03150  0.99060  Biso   1.000  C
  C12      1.0000 0.43270  0.53150  0.50940  Biso   1.000  C
  C13      1.0000 0.42930  0.03200  0.50100  Biso   1.000  C
  C14      1.0000 0.57070  0.53200  0.99900  Biso   1.000  C
  C15      1.0000 0.57070  0.96800  0.49900  Biso   1.000  C
  C16      1.0000 0.42930  0.46800  0.00100  Biso   1.000  C
  C17      1.0000 0.96500  0.03660  0.79740  Biso   1.000  C
  C18      1.0000 0.03500  0.53660  0.70260  Biso   1.000  C
  C19      1.0000 0.03500  0.96340  0.20260  Biso   1.000  C
  C20      1.0000 0.96500  0.46340  0.29740  Biso   1.000  C
  H17      1.0000 0.92780  0.96950  0.81990  Biso   1.000  H
  H18      1.0000 0.07220  0.46950  0.68010  Biso   1.000  H
  H19      1.0000 0.07220  0.03050  0.18010  Biso   1.000  H
  H20      1.0000 0.92780  0.53050  0.31990  Biso   1.000  H
  H21      1.0000 0.89100  0.07370  0.72930  Biso   1.000  H
  H22      1.0000 0.10900  0.57370  0.77070  Biso   1.000  H
  H23      1.0000 0.10900  0.92630  0.27070  Biso   1.000  H
  H24      1.0000 0.89100  0.42630  0.22930  Biso   1.000  H
  H25      1.0000 0.99310  0.07740  0.88510  Biso   1.000  H
  H26      1.0000 0.00690  0.57740  0.61490  Biso   1.000  H
  H27      1.0000 0.00690  0.92260  0.11490  Biso   1.000  H
  H28      1.0000 0.99310  0.42260  0.38510  Biso   1.000  H
  C21      1.0000 0.74260  0.22670  0.39530  Biso   1.000  C
  C22      1.0000 0.25740  0.72670  0.10470  Biso   1.000  C
  C23      1.0000 0.25740  0.77330  0.60470  Biso   1.000  C
  C24      1.0000 0.74260  0.27330  0.89530  Biso   1.000  C
  H29      1.0000 0.77610  0.29540  0.43080  Biso   1.000  H
  H30      1.0000 0.22390  0.79540  0.06920  Biso   1.000  H
  H31      1.0000 0.22390  0.70460  0.56920  Biso   1.000  H
  H32      1.0000 0.77610  0.20460  0.93080  Biso   1.000  H
  H33      1.0000 0.79850  0.20250  0.32750  Biso   1.000  H
  H34      1.0000 0.20150  0.70250  0.17250  Biso   1.000  H
  H35      1.0000 0.20150  0.79750  0.67250  Biso   1.000  H
  H36      1.0000 0.79850  0.29750  0.82750  Biso   1.000  H
  H37      1.0000 0.75400  0.17830  0.47560  Biso   1.000  H
  H38      1.0000 0.24600  0.67830  0.02440  Biso   1.000  H
  H39      1.0000 0.24600  0.82170  0.52440  Biso   1.000  H
  H40      1.0000 0.75400  0.32170  0.97560  Biso   1.000  H
