data_image0
_cell_length_a       6.7986
_cell_length_b       11.1194
_cell_length_c       13.3024
_cell_angle_alpha    87.729
_cell_angle_beta     78.005
_cell_angle_gamma    75.155

_symmetry_space_group_name_H-M    "P 1"
_symmetry_int_tables_number       1

loop_
  _symmetry_equiv_pos_as_xyz
  'x, y, z'

loop_
  _atom_site_label
  _atom_site_occupancy
  _atom_site_fract_x
  _atom_site_fract_y
  _atom_site_fract_z
  _atom_site_thermal_displace_type
  _atom_site_B_iso_or_equiv
  _atom_site_type_symbol
  Cu1      1.0000 0.00000  0.00000  0.00000  Biso   1.000  Cu
  O1       1.0000 0.33650  0.90100  0.46096  Biso   1.000  O
  O2       1.0000 0.66350  0.09900  0.53904  Biso   1.000  O
  O3       1.0000 0.07240  0.81832  0.02472  Biso   1.000  O
  O4       1.0000 0.92760  0.18168  0.97528  Biso   1.000  O
  O5       1.0000 0.73580  0.87677  0.09617  Biso   1.000  O
  O6       1.0000 0.26420  0.12323  0.90383  Biso   1.000  O
  O7       1.0000 0.39150  0.56580  0.26140  Biso   1.000  O
  O8       1.0000 0.60850  0.43420  0.73860  Biso   1.000  O
  O9       1.0000 0.56710  0.38460  0.29370  Biso   1.000  O
  O10      1.0000 0.43290  0.61540  0.70630  Biso   1.000  O
  O11      1.0000 0.45520  0.38470  0.06430  Biso   1.000  O
  O12      1.0000 0.54480  0.61530  0.93570  Biso   1.000  O
  O13      1.0000 0.30300  0.25720  0.15030  Biso   1.000  O
  O14      1.0000 0.69700  0.74280  0.84970  Biso   1.000  O
  N1       1.0000 0.03490  0.03230  0.13973  Biso   1.000  N
  N2       1.0000 0.96510  0.96770  0.86027  Biso   1.000  N
  N3       1.0000 0.43450  0.93690  0.29180  Biso   1.000  N
  N4       1.0000 0.56550  0.06310  0.70820  Biso   1.000  N
  H1       1.0000 0.54010  0.92900  0.24180  Biso   1.000  H
  H2       1.0000 0.45990  0.07100  0.75820  Biso   1.000  H
  N5       1.0000 0.30230  0.35880  0.11380  Biso   1.000  N
  N6       1.0000 0.69770  0.64120  0.88620  Biso   1.000  N
  N7       1.0000 0.55410  0.48630  0.25620  Biso   1.000  N
  N8       1.0000 0.44590  0.51370  0.74380  Biso   1.000  N
  C1       1.0000 0.21360  0.98050  0.17010  Biso   1.000  C
  C2       1.0000 0.78640  0.01950  0.82990  Biso   1.000  C
  H3       1.0000 0.32520  0.93470  0.12240  Biso   1.000  H
  H4       1.0000 0.67480  0.06530  0.87760  Biso   1.000  H
  C3       1.0000 0.23870  0.99230  0.26940  Biso   1.000  C
  C4       1.0000 0.76130  0.00770  0.73060  Biso   1.000  C
  C5       1.0000 0.06930  0.05970  0.34070  Biso   1.000  C
  C6       1.0000 0.93070  0.94030  0.65930  Biso   1.000  C
  H5       1.0000 0.07930  0.06830  0.40860  Biso   1.000  H
  H6       1.0000 0.92070  0.93170  0.59140  Biso   1.000  H
  C7       1.0000 0.88750  0.11310  0.30860  Biso   1.000  C
  C8       1.0000 0.11250  0.88690  0.69140  Biso   1.000  C
  H7       1.0000 0.77340  0.15900  0.35480  Biso   1.000  H
  H8       1.0000 0.22660  0.84100  0.64520  Biso   1.000  H
  C9       1.0000 0.87340  0.09880  0.20750  Biso   1.000  C
  C10      1.0000 0.12660  0.90120  0.79250  Biso   1.000  C
  H9       1.0000 0.74990  0.13590  0.18650  Biso   1.000  H
  H10      1.0000 0.25010  0.86410  0.81350  Biso   1.000  H
  C11      1.0000 0.47370  0.89380  0.38510  Biso   1.000  C
  C12      1.0000 0.52630  0.10620  0.61490  Biso   1.000  C
  C13      1.0000 0.69930  0.83900  0.38690  Biso   1.000  C
  C14      1.0000 0.30070  0.16100  0.61310  Biso   1.000  C
  H11      1.0000 0.75470  0.90260  0.41030  Biso   1.000  H
  H12      1.0000 0.24530  0.09740  0.58970  Biso   1.000  H
  H13      1.0000 0.77430  0.81530  0.31720  Biso   1.000  H
  H14      1.0000 0.22570  0.18470  0.68280  Biso   1.000  H
  C15      1.0000 0.73980  0.72710  0.45450  Biso   1.000  C
  C16      1.0000 0.26020  0.27290  0.54550  Biso   1.000  C
  H15      1.0000 0.67240  0.75150  0.52500  Biso   1.000  H
  H16      1.0000 0.32760  0.24850  0.47500  Biso   1.000  H
  H17      1.0000 0.67850  0.66480  0.43370  Biso   1.000  H
  H18      1.0000 0.32150  0.33520  0.56630  Biso   1.000  H
  C17      1.0000 0.96380  0.67180  0.44950  Biso   1.000  C
  C18      1.0000 0.03620  0.32820  0.55050  Biso   1.000  C
  H19      1.0000 0.02340  0.73570  0.46900  Biso   1.000  H
  H20      1.0000 0.97660  0.26430  0.53100  Biso   1.000  H
  H21      1.0000 0.02910  0.64850  0.37860  Biso   1.000  H
  H22      1.0000 0.97090  0.35150  0.62140  Biso   1.000  H
  C19      1.0000 0.02260  0.55610  0.51740  Biso   1.000  C
  C20      1.0000 0.97740  0.44390  0.48260  Biso   1.000  C
  H23      1.0000 0.16980  0.53840  0.51760  Biso   1.000  H
  H24      1.0000 0.83020  0.46160  0.48240  Biso   1.000  H
  H25      1.0000 0.94710  0.57580  0.58750  Biso   1.000  H
  H26      1.0000 0.05290  0.42420  0.41250  Biso   1.000  H
  C21      1.0000 0.91440  0.66440  0.10990  Biso   1.000  C
  C22      1.0000 0.08560  0.33560  0.89010  Biso   1.000  C
  C23      1.0000 0.10140  0.57420  0.09400  Biso   1.000  C
  C24      1.0000 0.89860  0.42580  0.90600  Biso   1.000  C
  H27      1.0000 0.22320  0.59280  0.05920  Biso   1.000  H
  H28      1.0000 0.77680  0.40720  0.94080  Biso   1.000  H
  C25      1.0000 0.10400  0.45600  0.13090  Biso   1.000  C
  C26      1.0000 0.89600  0.54400  0.86910  Biso   1.000  C
  C27      1.0000 0.92930  0.42340  0.18500  Biso   1.000  C
  C28      1.0000 0.07070  0.57660  0.81500  Biso   1.000  C
  H29      1.0000 0.93460  0.34390  0.21090  Biso   1.000  H
  H30      1.0000 0.06540  0.65610  0.78910  Biso   1.000  H
  C29      1.0000 0.74620  0.51600  0.19840  Biso   1.000  C
  C30      1.0000 0.25380  0.48400  0.80160  Biso   1.000  C
  C31      1.0000 0.73470  0.63480  0.16120  Biso   1.000  C
  C32      1.0000 0.26530  0.36520  0.83880  Biso   1.000  C
  H31      1.0000 0.60780  0.69410  0.17050  Biso   1.000  H
  H32      1.0000 0.39220  0.30590  0.82950  Biso   1.000  H
  C33      1.0000 0.90410  0.79660  0.07440  Biso   1.000  C
  C34      1.0000 0.09590  0.20340  0.92560  Biso   1.000  C
