data_image0
_cell_length_a       12.0337
_cell_length_b       12.2725
_cell_length_c       12.7401
_cell_angle_alpha    107.546
_cell_angle_beta     110.906
_cell_angle_gamma    103.401

_symmetry_space_group_name_H-M    "P 1"
_symmetry_int_tables_number       1

loop_
  _symmetry_equiv_pos_as_xyz
  'x, y, z'

loop_
  _atom_site_label
  _atom_site_occupancy
  _atom_site_fract_x
  _atom_site_fract_y
  _atom_site_fract_z
  _atom_site_thermal_displace_type
  _atom_site_B_iso_or_equiv
  _atom_site_type_symbol
  Cu1      1.0000 0.63404  0.30561  0.34787  Biso   1.000  Cu
  Cu2      1.0000 0.36596  0.69439  0.65213  Biso   1.000  Cu
  C1       1.0000 0.36420  0.14120  0.08930  Biso   1.000  C
  C2       1.0000 0.63580  0.85880  0.91070  Biso   1.000  C
  H1       1.0000 0.27410  0.10470  0.02100  Biso   1.000  H
  H2       1.0000 0.72590  0.89530  0.97900  Biso   1.000  H
  C3       1.0000 0.43810  0.06860  0.04530  Biso   1.000  C
  C4       1.0000 0.56190  0.93140  0.95470  Biso   1.000  C
  C5       1.0000 0.45200  0.97170  0.07600  Biso   1.000  C
  C6       1.0000 0.54800  0.02830  0.92400  Biso   1.000  C
  H3       1.0000 0.41880  0.95240  0.12840  Biso   1.000  H
  H4       1.0000 0.58120  0.04760  0.87160  Biso   1.000  H
  C7       1.0000 0.48630  0.09660  0.96940  Biso   1.000  C
  C8       1.0000 0.51370  0.90340  0.03060  Biso   1.000  C
  H5       1.0000 0.47690  0.16310  0.94840  Biso   1.000  H
  H6       1.0000 0.52310  0.83690  0.05160  Biso   1.000  H
  C9       1.0000 0.76590  0.52050  0.61100  Biso   1.000  C
  C10      1.0000 0.23410  0.47950  0.38900  Biso   1.000  C
  H7       1.0000 0.81240  0.58860  0.69660  Biso   1.000  H
  H8       1.0000 0.18760  0.41140  0.30340  Biso   1.000  H
  C11      1.0000 0.62700  0.50960  0.55300  Biso   1.000  C
  C12      1.0000 0.37300  0.49040  0.44700  Biso   1.000  C
  C13      1.0000 0.59200  0.57690  0.48590  Biso   1.000  C
  C14      1.0000 0.40800  0.42310  0.51410  Biso   1.000  C
  H9       1.0000 0.65520  0.63030  0.47660  Biso   1.000  H
  H10      1.0000 0.34480  0.36970  0.52340  Biso   1.000  H
  C15      1.0000 0.53550  0.43300  0.56800  Biso   1.000  C
  C16      1.0000 0.46450  0.56700  0.43200  Biso   1.000  C
  H11      1.0000 0.55920  0.38740  0.61470  Biso   1.000  H
  H12      1.0000 0.44080  0.61260  0.38530  Biso   1.000  H
  C17      1.0000 0.25430  0.06920  0.20390  Biso   1.000  C
  C18      1.0000 0.74570  0.93080  0.79610  Biso   1.000  C
  H13      1.0000 0.16820  0.02940  0.13940  Biso   1.000  H
  H14      1.0000 0.83180  0.97060  0.86060  Biso   1.000  H
  C19      1.0000 0.29640  0.07310  0.31920  Biso   1.000  C
  C20      1.0000 0.70360  0.92690  0.68080  Biso   1.000  C
  H15      1.0000 0.24570  0.03720  0.35180  Biso   1.000  H
  H16      1.0000 0.75430  0.96280  0.64820  Biso   1.000  H
  C21      1.0000 0.42950  0.14050  0.38110  Biso   1.000  C
  C22      1.0000 0.57050  0.85950  0.61890  Biso   1.000  C
  H17      1.0000 0.48450  0.15840  0.46440  Biso   1.000  H
  H18      1.0000 0.51550  0.84160  0.53560  Biso   1.000  H
  C23      1.0000 0.36650  0.32990  0.04890  Biso   1.000  C
  C24      1.0000 0.63350  0.67010  0.95110  Biso   1.000  C
  H19      1.0000 0.28480  0.29530  0.97800  Biso   1.000  H
  H20      1.0000 0.71520  0.70470  0.02200  Biso   1.000  H
  C25      1.0000 0.45350  0.44830  0.10260  Biso   1.000  C
  C26      1.0000 0.54650  0.55170  0.89740  Biso   1.000  C
  H21      1.0000 0.44450  0.51270  0.07780  Biso   1.000  H
  H22      1.0000 0.55550  0.48730  0.92220  Biso   1.000  H
  C27      1.0000 0.55730  0.45510  0.20070  Biso   1.000  C
  C28      1.0000 0.44270  0.54490  0.79930  Biso   1.000  C
  H23      1.0000 0.63290  0.52740  0.25550  Biso   1.000  H
  H24      1.0000 0.36710  0.47260  0.74450  Biso   1.000  H
  C29      1.0000 0.93500  0.64700  0.57430  Biso   1.000  C
  C30      1.0000 0.06500  0.35300  0.42570  Biso   1.000  C
  H25      1.0000 0.98290  0.71580  0.65300  Biso   1.000  H
  H26      1.0000 0.01710  0.28420  0.34700  Biso   1.000  H
  C31      1.0000 0.95920  0.62920  0.47510  Biso   1.000  C
  C32      1.0000 0.04080  0.37080  0.52490  Biso   1.000  C
  H27      1.0000 0.02640  0.68280  0.47020  Biso   1.000  H
  H28      1.0000 0.97360  0.31720  0.52980  Biso   1.000  H
  C33      1.0000 0.86520  0.51670  0.38290  Biso   1.000  C
  C34      1.0000 0.13480  0.48330  0.61710  Biso   1.000  C
  H29      1.0000 0.85860  0.47950  0.30270  Biso   1.000  H
  H30      1.0000 0.14140  0.52050  0.69730  Biso   1.000  H
  C35      1.0000 0.83260  0.38800  0.72030  Biso   1.000  C
  C36      1.0000 0.16740  0.61200  0.27970  Biso   1.000  C
  H31      1.0000 0.87680  0.44810  0.80390  Biso   1.000  H
  H32      1.0000 0.12320  0.55190  0.19610  Biso   1.000  H
  C37      1.0000 0.81570  0.26540  0.67940  Biso   1.000  C
  C38      1.0000 0.18430  0.73460  0.32060  Biso   1.000  C
  H33      1.0000 0.84580  0.22370  0.72860  Biso   1.000  H
  H34      1.0000 0.15420  0.77630  0.27140  Biso   1.000  H
  C39      1.0000 0.74530  0.21480  0.55060  Biso   1.000  C
  C40      1.0000 0.25470  0.78520  0.44940  Biso   1.000  C
  H35      1.0000 0.71930  0.13090  0.49660  Biso   1.000  H
  H36      1.0000 0.28070  0.86910  0.50340  Biso   1.000  H
  N1       1.0000 0.46780  0.17560  0.30700  Biso   1.000  N
  N2       1.0000 0.53220  0.82440  0.69300  Biso   1.000  N
  N3       1.0000 0.35780  0.13270  0.19820  Biso   1.000  N
  N4       1.0000 0.64220  0.86730  0.80180  Biso   1.000  N
  N5       1.0000 0.53780  0.34640  0.20870  Biso   1.000  N
  N6       1.0000 0.46220  0.65360  0.79130  Biso   1.000  N
  N7       1.0000 0.41790  0.27130  0.11500  Biso   1.000  N
  N8       1.0000 0.58210  0.72870  0.88500  Biso   1.000  N
  N9       1.0000 0.78550  0.46760  0.42120  Biso   1.000  N
  N10      1.0000 0.21450  0.53240  0.57880  Biso   1.000  N
  N11      1.0000 0.83090  0.54920  0.54030  Biso   1.000  N
  N12      1.0000 0.16910  0.45080  0.45970  Biso   1.000  N
  N13      1.0000 0.71960  0.30060  0.51380  Biso   1.000  N
  N14      1.0000 0.28040  0.69940  0.48620  Biso   1.000  N
  N15      1.0000 0.77460  0.40690  0.61910  Biso   1.000  N
  N16      1.0000 0.22540  0.59310  0.38090  Biso   1.000  N
  O1       1.0000 0.73300  0.21150  0.26100  Biso   1.000  O
  O2       1.0000 0.26700  0.78850  0.73900  Biso   1.000  O
  H37      1.0000 0.73700  0.22200  0.20100  Biso   1.000  H
  H38      1.0000 0.26300  0.77800  0.79900  Biso   1.000  H
  H39      1.0000 0.74900  0.15100  0.26100  Biso   1.000  H
  H40      1.0000 0.25100  0.84900  0.73900  Biso   1.000  H
  C41      1.0000 0.73640  0.34900  0.01420  Biso   1.000  C
  C42      1.0000 0.26360  0.65100  0.98580  Biso   1.000  C
  H41      1.0000 0.66130  0.36300  0.02170  Biso   1.000  H
  H42      1.0000 0.33870  0.63700  0.97830  Biso   1.000  H
  H43      1.0000 0.70460  0.28240  0.93110  Biso   1.000  H
  H44      1.0000 0.29540  0.71760  0.06890  Biso   1.000  H
  C43      1.0000 0.82310  0.46260  0.02550  Biso   1.000  C
  C44      1.0000 0.17690  0.53740  0.97450  Biso   1.000  C
  H45      1.0000 0.85030  0.53020  0.10550  Biso   1.000  H
  H46      1.0000 0.14970  0.46980  0.89450  Biso   1.000  H
  H47      1.0000 0.77810  0.48350  0.95820  Biso   1.000  H
  H48      1.0000 0.22190  0.51650  0.04180  Biso   1.000  H
  H49      1.0000 0.89880  0.44990  0.02040  Biso   1.000  H
  H50      1.0000 0.10120  0.55010  0.97960  Biso   1.000  H
  O3       1.0000 0.79960  0.30920  0.10880  Biso   1.000  O
  O4       1.0000 0.20040  0.69080  0.89120  Biso   1.000  O
  H51      1.0000 0.84700  0.27600  0.09600  Biso   1.000  H
  H52      1.0000 0.15300  0.72400  0.90400  Biso   1.000  H
  C45      1.0000 0.93140  0.02180  0.31130  Biso   1.000  C
  C46      1.0000 0.06860  0.97820  0.68870  Biso   1.000  C
  H53      1.0000 0.98940  0.06430  0.28480  Biso   1.000  H
  H54      1.0000 0.01060  0.93570  0.71520  Biso   1.000  H
  H55      1.0000 0.95170  0.07950  0.39520  Biso   1.000  H
  H56      1.0000 0.04830  0.92050  0.60480  Biso   1.000  H
  C47      1.0000 0.95600  0.91380  0.31760  Biso   1.000  C
  C48      1.0000 0.04400  0.08620  0.68240  Biso   1.000  C
  H57      1.0000 0.89200  0.86570  0.33380  Biso   1.000  H
  H58      1.0000 0.10800  0.13430  0.66620  Biso   1.000  H
  H59      1.0000 0.04230  0.93940  0.38460  Biso   1.000  H
  H60      1.0000 0.95770  0.06060  0.61540  Biso   1.000  H
  H61      1.0000 0.95040  0.86290  0.23860  Biso   1.000  H
  H62      1.0000 0.04960  0.13710  0.76140  Biso   1.000  H
  O5       1.0000 0.79870  0.99340  0.22610  Biso   1.000  O
  O6       1.0000 0.20130  0.00660  0.77390  Biso   1.000  O
  B1       1.0000 0.62480  0.80760  0.32390  Biso   1.000  B
  B2       1.0000 0.37520  0.19240  0.67610  Biso   1.000  B
  F1       1.0000 0.62390  0.76330  0.20930  Biso   1.000  F
  F2       1.0000 0.37610  0.23670  0.79070  Biso   1.000  F
  F3       1.0000 0.70350  0.75940  0.38700  Biso   1.000  F
  F4       1.0000 0.29650  0.24060  0.61300  Biso   1.000  F
  F5       1.0000 0.64500  0.93220  0.33960  Biso   1.000  F
  F6       1.0000 0.35500  0.06780  0.66040  Biso   1.000  F
  F7       1.0000 0.50090  0.75470  0.30970  Biso   1.000  F
  F8       1.0000 0.49910  0.24530  0.69030  Biso   1.000  F
  B3       1.0000 0.95860  0.77330  0.95650  Biso   1.000  B
  B4       1.0000 0.04140  0.22670  0.04350  Biso   1.000  B
  F9       1.0000 0.94210  0.88140  0.01240  Biso   1.000  F
  F10      1.0000 0.05790  0.11860  0.98760  Biso   1.000  F
  F11      1.0000 0.98830  0.78930  0.86360  Biso   1.000  F
  F12      1.0000 0.01170  0.21070  0.13640  Biso   1.000  F
  F13      1.0000 0.84010  0.67530  0.88290  Biso   1.000  F
  F14      1.0000 0.15990  0.32470  0.11710  Biso   1.000  F
  F15      1.0000 0.04060  0.74600  0.04500  Biso   1.000  F
  F16      1.0000 0.95940  0.25400  0.95500  Biso   1.000  F
  B5       1.0000 0.96500  0.77540  0.96270  Biso   1.000  B
  B6       1.0000 0.03500  0.22460  0.03730  Biso   1.000  B
  F17      1.0000 0.91690  0.85870  0.01110  Biso   1.000  F
  F18      1.0000 0.08310  0.14130  0.98890  Biso   1.000  F
  F19      1.0000 0.01630  0.80960  0.88970  Biso   1.000  F
  F20      1.0000 0.98370  0.19040  0.11030  Biso   1.000  F
  F21      1.0000 0.87400  0.65710  0.90320  Biso   1.000  F
  F22      1.0000 0.12600  0.34290  0.09680  Biso   1.000  F
  F23      1.0000 0.08030  0.78510  0.04890  Biso   1.000  F
  F24      1.0000 0.91970  0.21490  0.95110  Biso   1.000  F
  B7       1.0000 0.96370  0.79210  0.94060  Biso   1.000  B
  B8       1.0000 0.03630  0.20790  0.05940  Biso   1.000  B
  F25      1.0000 0.94280  0.86040  0.03550  Biso   1.000  F
  F26      1.0000 0.05720  0.13960  0.96450  Biso   1.000  F
  F27      1.0000 0.89000  0.78550  0.82520  Biso   1.000  F
  F28      1.0000 0.11000  0.21450  0.17480  Biso   1.000  F
  F29      1.0000 0.08880  0.84760  0.96200  Biso   1.000  F
  F30      1.0000 0.91120  0.15240  0.03800  Biso   1.000  F
  F31      1.0000 0.94370  0.67260  0.93150  Biso   1.000  F
  F32      1.0000 0.05630  0.32740  0.06850  Biso   1.000  F
  B9       1.0000 0.60480  0.81100  0.31920  Biso   1.000  B
  B10      1.0000 0.39520  0.18900  0.68080  Biso   1.000  B
  C49      1.0000 0.90140  0.99120  0.26210  Biso   1.000  C
  C50      1.0000 0.09860  0.00880  0.73790  Biso   1.000  C
  F33      1.0000 0.58850  0.74790  0.20180  Biso   1.000  F
  F34      1.0000 0.41150  0.25210  0.79820  Biso   1.000  F
  F35      1.0000 0.48990  0.78620  0.32260  Biso   1.000  F
  F36      1.0000 0.51010  0.21380  0.67740  Biso   1.000  F
  F37      1.0000 0.68870  0.78980  0.41050  Biso   1.000  F
  F38      1.0000 0.31130  0.21020  0.58950  Biso   1.000  F
  F39      1.0000 0.68610  0.93600  0.38490  Biso   1.000  F
  F40      1.0000 0.31390  0.06400  0.61510  Biso   1.000  F
  H63      1.0000 0.97110  0.04980  0.25920  Biso   1.000  H
  H64      1.0000 0.02890  0.95020  0.74080  Biso   1.000  H
  H65      1.0000 0.83570  0.93650  0.17530  Biso   1.000  H
  H66      1.0000 0.16430  0.06350  0.82470  Biso   1.000  H
  H67      1.0000 0.03630  0.96700  0.39390  Biso   1.000  H
  H68      1.0000 0.96370  0.03300  0.60610  Biso   1.000  H
  H69      1.0000 0.97330  0.85660  0.25870  Biso   1.000  H
  H70      1.0000 0.02670  0.14340  0.74130  Biso   1.000  H
  H71      1.0000 0.89440  0.86670  0.33680  Biso   1.000  H
  H72      1.0000 0.10560  0.13330  0.66320  Biso   1.000  H
  O7       1.0000 0.84240  0.06250  0.32310  Biso   1.000  O
  O8       1.0000 0.15760  0.93750  0.67690  Biso   1.000  O
