data_image0
_cell_length_a       7.3647
_cell_length_b       19.05
_cell_length_c       21.0189
_cell_angle_alpha    90
_cell_angle_beta     90
_cell_angle_gamma    90

_symmetry_space_group_name_H-M    "P 1"
_symmetry_int_tables_number       1

loop_
  _symmetry_equiv_pos_as_xyz
  'x, y, z'

loop_
  _atom_site_label
  _atom_site_occupancy
  _atom_site_fract_x
  _atom_site_fract_y
  _atom_site_fract_z
  _atom_site_thermal_displace_type
  _atom_site_B_iso_or_equiv
  _atom_site_type_symbol
  Cu1      1.0000 0.25500  0.06220  0.23338  Biso   1.000  Cu
  Cu2      1.0000 0.24500  0.93780  0.73338  Biso   1.000  Cu
  Cu3      1.0000 0.74500  0.56220  0.26662  Biso   1.000  Cu
  Cu4      1.0000 0.75500  0.43780  0.76662  Biso   1.000  Cu
  Cu5      1.0000 0.07210  0.78946  0.94509  Biso   1.000  Cu
  Cu6      1.0000 0.42790  0.21054  0.44509  Biso   1.000  Cu
  Cu7      1.0000 0.92790  0.28946  0.55491  Biso   1.000  Cu
  Cu8      1.0000 0.57210  0.71054  0.05491  Biso   1.000  Cu
  N1       1.0000 0.22910  0.01819  0.04177  Biso   1.000  N
  N2       1.0000 0.27090  0.98181  0.54177  Biso   1.000  N
  N3       1.0000 0.77090  0.51819  0.45823  Biso   1.000  N
  N4       1.0000 0.72910  0.48181  0.95823  Biso   1.000  N
  H1       1.0000 0.22850  0.02600  0.00150  Biso   1.000  H
  H2       1.0000 0.27150  0.97400  0.50150  Biso   1.000  H
  H3       1.0000 0.77150  0.52600  0.49850  Biso   1.000  H
  H4       1.0000 0.72850  0.47400  0.99850  Biso   1.000  H
  C1       1.0000 0.23380  0.06760  0.08730  Biso   1.000  C
  C2       1.0000 0.26620  0.93240  0.58730  Biso   1.000  C
  C3       1.0000 0.76620  0.56760  0.41270  Biso   1.000  C
  C4       1.0000 0.73380  0.43240  0.91270  Biso   1.000  C
  N5       1.0000 0.23810  0.03720  0.14368  Biso   1.000  N
  N6       1.0000 0.26190  0.96280  0.64368  Biso   1.000  N
  N7       1.0000 0.76190  0.53720  0.35632  Biso   1.000  N
  N8       1.0000 0.73810  0.46280  0.85632  Biso   1.000  N
  C5       1.0000 0.23340  0.96510  0.13330  Biso   1.000  C
  C6       1.0000 0.26660  0.03490  0.63330  Biso   1.000  C
  C7       1.0000 0.76660  0.46510  0.36670  Biso   1.000  C
  C8       1.0000 0.73340  0.53490  0.86670  Biso   1.000  C
  C9       1.0000 0.22530  0.95260  0.07008  Biso   1.000  C
  C10      1.0000 0.27470  0.04740  0.57008  Biso   1.000  C
  C11      1.0000 0.77470  0.45260  0.42992  Biso   1.000  C
  C12      1.0000 0.72530  0.54740  0.92992  Biso   1.000  C
  C13      1.0000 0.24040  0.14440  0.07480  Biso   1.000  C
  C14      1.0000 0.25960  0.85560  0.57480  Biso   1.000  C
  C15      1.0000 0.75960  0.64440  0.42520  Biso   1.000  C
  C16      1.0000 0.74040  0.35560  0.92520  Biso   1.000  C
  H5       1.0000 0.24360  0.16930  0.11450  Biso   1.000  H
  H6       1.0000 0.25640  0.83070  0.61450  Biso   1.000  H
  H7       1.0000 0.75640  0.66930  0.38550  Biso   1.000  H
  H8       1.0000 0.74360  0.33070  0.88550  Biso   1.000  H
  H9       1.0000 0.13450  0.15820  0.05120  Biso   1.000  H
  H10      1.0000 0.36550  0.84180  0.55120  Biso   1.000  H
  H11      1.0000 0.86550  0.65820  0.44880  Biso   1.000  H
  H12      1.0000 0.63450  0.34180  0.94880  Biso   1.000  H
  H13      1.0000 0.34730  0.15530  0.05060  Biso   1.000  H
  H14      1.0000 0.15270  0.84470  0.55060  Biso   1.000  H
  H15      1.0000 0.65270  0.65530  0.44940  Biso   1.000  H
  H16      1.0000 0.84730  0.34470  0.94940  Biso   1.000  H
  C17      1.0000 0.21330  0.88640  0.03260  Biso   1.000  C
  C18      1.0000 0.28670  0.11360  0.53260  Biso   1.000  C
  C19      1.0000 0.78670  0.38640  0.46740  Biso   1.000  C
  C20      1.0000 0.71330  0.61360  0.96740  Biso   1.000  C
  H17      1.0000 0.20580  0.84710  0.06180  Biso   1.000  H
  H18      1.0000 0.29420  0.15290  0.56180  Biso   1.000  H
  H19      1.0000 0.79420  0.34710  0.43820  Biso   1.000  H
  H20      1.0000 0.70580  0.65290  0.93820  Biso   1.000  H
  H21      1.0000 0.32370  0.88100  0.00790  Biso   1.000  H
  H22      1.0000 0.17630  0.11900  0.50790  Biso   1.000  H
  H23      1.0000 0.67630  0.38100  0.49210  Biso   1.000  H
  H24      1.0000 0.82370  0.61900  0.99210  Biso   1.000  H
  N9       1.0000 0.05370  0.88414  0.98856  Biso   1.000  N
  N10      1.0000 0.44630  0.11586  0.48856  Biso   1.000  N
  N11      1.0000 0.94630  0.38414  0.51144  Biso   1.000  N
  N12      1.0000 0.55370  0.61586  0.01144  Biso   1.000  N
  H25      1.0000 0.06450  0.91880  0.95900  Biso   1.000  H
  H26      1.0000 0.43550  0.08120  0.45900  Biso   1.000  H
  H27      1.0000 0.93550  0.41880  0.54100  Biso   1.000  H
  H28      1.0000 0.56450  0.58120  0.04100  Biso   1.000  H
  C21      1.0000 0.87460  0.89030  0.02100  Biso   1.000  C
  C22      1.0000 0.62540  0.10970  0.52100  Biso   1.000  C
  C23      1.0000 0.12540  0.39030  0.47900  Biso   1.000  C
  C24      1.0000 0.37460  0.60970  0.97900  Biso   1.000  C
  H29      1.0000 0.89240  0.91120  0.06320  Biso   1.000  H
  H30      1.0000 0.60760  0.08880  0.56320  Biso   1.000  H
  H31      1.0000 0.10760  0.41120  0.43680  Biso   1.000  H
  H32      1.0000 0.39240  0.58880  0.93680  Biso   1.000  H
  C25      1.0000 0.79610  0.81730  0.02870  Biso   1.000  C
  C26      1.0000 0.70390  0.18270  0.52870  Biso   1.000  C
  C27      1.0000 0.20390  0.31730  0.47130  Biso   1.000  C
  C28      1.0000 0.29610  0.68270  0.97130  Biso   1.000  C
  O1       1.0000 0.87150  0.76643  0.00076  Biso   1.000  O
  O2       1.0000 0.62850  0.23357  0.50076  Biso   1.000  O
  O3       1.0000 0.12850  0.26643  0.49924  Biso   1.000  O
  O4       1.0000 0.37150  0.73357  0.99924  Biso   1.000  O
  O5       1.0000 0.65510  0.81002  0.06128  Biso   1.000  O
  O6       1.0000 0.84490  0.18998  0.56128  Biso   1.000  O
  O7       1.0000 0.34490  0.31002  0.43872  Biso   1.000  O
  O8       1.0000 0.15510  0.68998  0.93872  Biso   1.000  O
  C29      1.0000 0.74460  0.93620  0.98270  Biso   1.000  C
  C30      1.0000 0.75540  0.06380  0.48270  Biso   1.000  C
  C31      1.0000 0.25540  0.43620  0.51730  Biso   1.000  C
  C32      1.0000 0.24460  0.56380  0.01730  Biso   1.000  C
  H33      1.0000 0.62180  0.92730  0.99730  Biso   1.000  H
  H34      1.0000 0.87820  0.07270  0.49730  Biso   1.000  H
  H35      1.0000 0.37820  0.42730  0.50270  Biso   1.000  H
  H36      1.0000 0.12180  0.57270  0.00270  Biso   1.000  H
  H37      1.0000 0.75100  0.92200  0.93840  Biso   1.000  H
  H38      1.0000 0.74900  0.07800  0.43840  Biso   1.000  H
  H39      1.0000 0.24900  0.42200  0.56160  Biso   1.000  H
  H40      1.0000 0.25100  0.57800  0.06160  Biso   1.000  H
  C33      1.0000 0.78080  0.01580  0.98660  Biso   1.000  C
  C34      1.0000 0.71920  0.98420  0.48660  Biso   1.000  C
  C35      1.0000 0.21920  0.51580  0.51340  Biso   1.000  C
  C36      1.0000 0.28080  0.48420  0.01340  Biso   1.000  C
  H41      1.0000 0.90800  0.02430  0.97520  Biso   1.000  H
  H42      1.0000 0.59200  0.97570  0.47520  Biso   1.000  H
  H43      1.0000 0.09200  0.52430  0.52480  Biso   1.000  H
  H44      1.0000 0.40800  0.47570  0.02480  Biso   1.000  H
  C37      1.0000 0.74800  0.04490  0.05280  Biso   1.000  C
  C38      1.0000 0.75200  0.95510  0.55280  Biso   1.000  C
  C39      1.0000 0.25200  0.54490  0.44720  Biso   1.000  C
  C40      1.0000 0.24800  0.45510  0.94720  Biso   1.000  C
  H45      1.0000 0.82470  0.02090  0.08270  Biso   1.000  H
  H46      1.0000 0.67530  0.97910  0.58270  Biso   1.000  H
  H47      1.0000 0.17530  0.52090  0.41730  Biso   1.000  H
  H48      1.0000 0.32470  0.47910  0.91730  Biso   1.000  H
  H49      1.0000 0.62310  0.03790  0.06430  Biso   1.000  H
  H50      1.0000 0.87690  0.96210  0.56430  Biso   1.000  H
  H51      1.0000 0.37690  0.53790  0.43570  Biso   1.000  H
  H52      1.0000 0.12310  0.46210  0.93570  Biso   1.000  H
  H53      1.0000 0.77540  0.09410  0.05330  Biso   1.000  H
  H54      1.0000 0.72460  0.90590  0.55330  Biso   1.000  H
  H55      1.0000 0.22460  0.59410  0.44670  Biso   1.000  H
  H56      1.0000 0.27540  0.40590  0.94670  Biso   1.000  H
  C41      1.0000 0.65970  0.05290  0.93730  Biso   1.000  C
  C42      1.0000 0.84030  0.94710  0.43730  Biso   1.000  C
  C43      1.0000 0.34030  0.55290  0.56270  Biso   1.000  C
  C44      1.0000 0.15970  0.44710  0.06270  Biso   1.000  C
  H57      1.0000 0.68040  0.10260  0.93910  Biso   1.000  H
  H58      1.0000 0.81960  0.89740  0.43910  Biso   1.000  H
  H59      1.0000 0.31960  0.60260  0.56090  Biso   1.000  H
  H60      1.0000 0.18040  0.39740  0.06090  Biso   1.000  H
  H61      1.0000 0.53450  0.04320  0.94650  Biso   1.000  H
  H62      1.0000 0.96550  0.95680  0.44650  Biso   1.000  H
  H63      1.0000 0.46550  0.54320  0.55350  Biso   1.000  H
  H64      1.0000 0.03450  0.45680  0.05350  Biso   1.000  H
  H65      1.0000 0.68850  0.03590  0.89550  Biso   1.000  H
  H66      1.0000 0.81150  0.96410  0.39550  Biso   1.000  H
  H67      1.0000 0.31150  0.53590  0.60450  Biso   1.000  H
  H68      1.0000 0.18850  0.46410  0.10450  Biso   1.000  H
  C45      1.0000 0.23980  0.91680  0.19040  Biso   1.000  C
  C46      1.0000 0.26020  0.08320  0.69040  Biso   1.000  C
  C47      1.0000 0.76020  0.41680  0.30960  Biso   1.000  C
  C48      1.0000 0.73980  0.58320  0.80960  Biso   1.000  C
  H69      1.0000 0.11920  0.89980  0.20060  Biso   1.000  H
  H70      1.0000 0.38080  0.10020  0.70060  Biso   1.000  H
  H71      1.0000 0.88080  0.39980  0.29940  Biso   1.000  H
  H72      1.0000 0.61920  0.60020  0.79940  Biso   1.000  H
  H73      1.0000 0.31800  0.87690  0.18200  Biso   1.000  H
  H74      1.0000 0.18200  0.12310  0.68200  Biso   1.000  H
  H75      1.0000 0.68200  0.37690  0.31800  Biso   1.000  H
  H76      1.0000 0.81800  0.62310  0.81800  Biso   1.000  H
  N13      1.0000 0.31440  0.96060  0.24408  Biso   1.000  N
  N14      1.0000 0.18560  0.03940  0.74408  Biso   1.000  N
  N15      1.0000 0.68560  0.46060  0.25592  Biso   1.000  N
  N16      1.0000 0.81440  0.53940  0.75592  Biso   1.000  N
  H77      1.0000 0.43750  0.95710  0.24170  Biso   1.000  H
  H78      1.0000 0.06250  0.04290  0.74170  Biso   1.000  H
  H79      1.0000 0.56250  0.45710  0.25830  Biso   1.000  H
  H80      1.0000 0.93750  0.54290  0.75830  Biso   1.000  H
  C49      1.0000 0.26240  0.93670  0.30960  Biso   1.000  C
  C50      1.0000 0.23760  0.06330  0.80960  Biso   1.000  C
  C51      1.0000 0.73760  0.43670  0.19040  Biso   1.000  C
  C52      1.0000 0.76240  0.56330  0.69040  Biso   1.000  C
  H81      1.0000 0.13320  0.92460  0.30850  Biso   1.000  H
  H82      1.0000 0.36680  0.07540  0.80850  Biso   1.000  H
  H83      1.0000 0.86680  0.42460  0.19150  Biso   1.000  H
  H84      1.0000 0.63320  0.57540  0.69150  Biso   1.000  H
  C53      1.0000 0.28290  0.00190  0.35270  Biso   1.000  C
  C54      1.0000 0.21710  0.99810  0.85270  Biso   1.000  C
  C55      1.0000 0.71710  0.50190  0.14730  Biso   1.000  C
  C56      1.0000 0.78290  0.49810  0.64730  Biso   1.000  C
  O9       1.0000 0.27120  0.06182  0.32538  Biso   1.000  O
  O10      1.0000 0.22880  0.93818  0.82538  Biso   1.000  O
  O11      1.0000 0.72880  0.56182  0.17462  Biso   1.000  O
  O12      1.0000 0.77120  0.43818  0.67462  Biso   1.000  O
  O13      1.0000 0.30560  0.99510  0.41024  Biso   1.000  O
  O14      1.0000 0.19440  0.00490  0.91024  Biso   1.000  O
  O15      1.0000 0.69440  0.49510  0.08976  Biso   1.000  O
  O16      1.0000 0.80560  0.50490  0.58976  Biso   1.000  O
  C57      1.0000 0.36490  0.87220  0.33230  Biso   1.000  C
  C58      1.0000 0.13510  0.12780  0.83230  Biso   1.000  C
  C59      1.0000 0.63510  0.37220  0.16770  Biso   1.000  C
  C60      1.0000 0.86490  0.62780  0.66770  Biso   1.000  C
  H85      1.0000 0.38740  0.84220  0.29580  Biso   1.000  H
  H86      1.0000 0.11260  0.15780  0.79580  Biso   1.000  H
  H87      1.0000 0.61260  0.34220  0.20420  Biso   1.000  H
  H88      1.0000 0.88740  0.65780  0.70420  Biso   1.000  H
  H89      1.0000 0.48200  0.88720  0.34850  Biso   1.000  H
  H90      1.0000 0.01800  0.11280  0.84850  Biso   1.000  H
  H91      1.0000 0.51800  0.38720  0.15150  Biso   1.000  H
  H92      1.0000 0.98200  0.61280  0.65150  Biso   1.000  H
  C61      1.0000 0.27250  0.82910  0.38300  Biso   1.000  C
  C62      1.0000 0.22750  0.17090  0.88300  Biso   1.000  C
  C63      1.0000 0.72750  0.32910  0.11700  Biso   1.000  C
  C64      1.0000 0.77250  0.67090  0.61700  Biso   1.000  C
  H93      1.0000 0.23920  0.86110  0.41760  Biso   1.000  H
  H94      1.0000 0.26080  0.13890  0.91760  Biso   1.000  H
  H95      1.0000 0.76080  0.36110  0.08240  Biso   1.000  H
  H96      1.0000 0.73920  0.63890  0.58240  Biso   1.000  H
  C65      1.0000 0.40370  0.77580  0.41000  Biso   1.000  C
  C66      1.0000 0.09630  0.22420  0.91000  Biso   1.000  C
  C67      1.0000 0.59630  0.27580  0.09000  Biso   1.000  C
  C68      1.0000 0.90370  0.72420  0.59000  Biso   1.000  C
  H97      1.0000 0.34400  0.74870  0.44230  Biso   1.000  H
  H98      1.0000 0.15600  0.25130  0.94230  Biso   1.000  H
  H99      1.0000 0.65600  0.24870  0.05770  Biso   1.000  H
  H100     1.0000 0.84400  0.75130  0.55770  Biso   1.000  H
  H101     1.0000 0.50610  0.79970  0.42810  Biso   1.000  H
  H102     1.0000 0.99390  0.20030  0.92810  Biso   1.000  H
  H103     1.0000 0.49390  0.29970  0.07190  Biso   1.000  H
  H104     1.0000 0.00610  0.70030  0.57190  Biso   1.000  H
  H105     1.0000 0.44450  0.74520  0.37660  Biso   1.000  H
  H106     1.0000 0.05550  0.25480  0.87660  Biso   1.000  H
  H107     1.0000 0.55550  0.24520  0.12340  Biso   1.000  H
  H108     1.0000 0.94450  0.75480  0.62340  Biso   1.000  H
  C69      1.0000 0.09900  0.79460  0.35960  Biso   1.000  C
  C70      1.0000 0.40100  0.20540  0.85960  Biso   1.000  C
  C71      1.0000 0.90100  0.29460  0.14040  Biso   1.000  C
  C72      1.0000 0.59900  0.70540  0.64040  Biso   1.000  C
  H109     1.0000 0.01910  0.82990  0.34280  Biso   1.000  H
  H110     1.0000 0.48090  0.17010  0.84280  Biso   1.000  H
  H111     1.0000 0.98090  0.32990  0.15720  Biso   1.000  H
  H112     1.0000 0.51910  0.67010  0.65720  Biso   1.000  H
  H113     1.0000 0.04060  0.77100  0.39440  Biso   1.000  H
  H114     1.0000 0.45940  0.22900  0.89440  Biso   1.000  H
  H115     1.0000 0.95940  0.27100  0.10560  Biso   1.000  H
  H116     1.0000 0.54060  0.72900  0.60560  Biso   1.000  H
  H117     1.0000 0.12760  0.76130  0.32690  Biso   1.000  H
  H118     1.0000 0.37240  0.23870  0.82690  Biso   1.000  H
  H119     1.0000 0.87240  0.26130  0.17310  Biso   1.000  H
  H120     1.0000 0.62760  0.73870  0.67310  Biso   1.000  H
  O17      1.0000 0.53880  0.11400  0.21940  Biso   1.000  O
  O18      1.0000 0.96120  0.88600  0.71940  Biso   1.000  O
  O19      1.0000 0.46120  0.61400  0.28060  Biso   1.000  O
  O20      1.0000 0.03880  0.38600  0.78060  Biso   1.000  O
  H121     1.0000 0.61400  0.08300  0.23300  Biso   1.000  H
  H122     1.0000 0.88600  0.91700  0.73300  Biso   1.000  H
  H123     1.0000 0.38600  0.58300  0.26700  Biso   1.000  H
  H124     1.0000 0.11400  0.41700  0.76700  Biso   1.000  H
  H125     1.0000 0.54400  0.14700  0.24600  Biso   1.000  H
  H126     1.0000 0.95600  0.85300  0.74600  Biso   1.000  H
  H127     1.0000 0.45600  0.64700  0.25400  Biso   1.000  H
  H128     1.0000 0.04400  0.35300  0.75400  Biso   1.000  H
  O21      1.0000 0.13950  0.15670  0.23080  Biso   1.000  O
  O22      1.0000 0.36050  0.84330  0.73080  Biso   1.000  O
  O23      1.0000 0.86050  0.65670  0.26920  Biso   1.000  O
  O24      1.0000 0.63950  0.34330  0.76920  Biso   1.000  O
  H129     1.0000 0.19300  0.19640  0.23500  Biso   1.000  H
  H130     1.0000 0.30700  0.80360  0.73500  Biso   1.000  H
  H131     1.0000 0.80700  0.69640  0.26500  Biso   1.000  H
  H132     1.0000 0.69300  0.30360  0.76500  Biso   1.000  H
  H133     1.0000 0.02600  0.16560  0.23500  Biso   1.000  H
  H134     1.0000 0.47400  0.83440  0.73500  Biso   1.000  H
  H135     1.0000 0.97400  0.66560  0.26500  Biso   1.000  H
  H136     1.0000 0.52600  0.33440  0.76500  Biso   1.000  H
  O25      1.0000 0.26280  0.82001  0.88776  Biso   1.000  O
  O26      1.0000 0.23720  0.17999  0.38776  Biso   1.000  O
  O27      1.0000 0.73720  0.32001  0.61224  Biso   1.000  O
  O28      1.0000 0.76280  0.67999  0.11224  Biso   1.000  O
  H137     1.0000 0.26080  0.86680  0.86850  Biso   1.000  H
  H138     1.0000 0.23920  0.13320  0.36850  Biso   1.000  H
  H139     1.0000 0.73920  0.36680  0.63150  Biso   1.000  H
  H140     1.0000 0.76080  0.63320  0.13150  Biso   1.000  H
  H141     1.0000 0.37630  0.79580  0.87990  Biso   1.000  H
  H142     1.0000 0.12370  0.20420  0.37990  Biso   1.000  H
  H143     1.0000 0.62370  0.29580  0.62010  Biso   1.000  H
  H144     1.0000 0.87630  0.70420  0.12010  Biso   1.000  H
  N17      1.0000 0.72830  0.78890  0.84510  Biso   1.000  N
  N18      1.0000 0.77170  0.21110  0.34510  Biso   1.000  N
  N19      1.0000 0.27170  0.28890  0.65490  Biso   1.000  N
  N20      1.0000 0.22830  0.71110  0.15490  Biso   1.000  N
  O29      1.0000 0.89220  0.78160  0.85400  Biso   1.000  O
  O30      1.0000 0.60780  0.21840  0.35400  Biso   1.000  O
  O31      1.0000 0.10780  0.28160  0.64600  Biso   1.000  O
  O32      1.0000 0.39220  0.71840  0.14600  Biso   1.000  O
  O33      1.0000 0.68240  0.81860  0.79730  Biso   1.000  O
  O34      1.0000 0.81760  0.18140  0.29730  Biso   1.000  O
  O35      1.0000 0.31760  0.31860  0.70270  Biso   1.000  O
  O36      1.0000 0.18240  0.68140  0.20270  Biso   1.000  O
  O37      1.0000 0.61540  0.76870  0.87980  Biso   1.000  O
  O38      1.0000 0.88460  0.23130  0.37980  Biso   1.000  O
  O39      1.0000 0.38460  0.26870  0.62020  Biso   1.000  O
  O40      1.0000 0.11540  0.73130  0.12020  Biso   1.000  O
  N21      1.0000 0.80050  0.96970  0.23670  Biso   1.000  N
  N22      1.0000 0.69950  0.03030  0.73670  Biso   1.000  N
  N23      1.0000 0.19950  0.46970  0.26330  Biso   1.000  N
  N24      1.0000 0.30050  0.53030  0.76330  Biso   1.000  N
  O41      1.0000 0.82580  0.91020  0.26030  Biso   1.000  O
  O42      1.0000 0.67420  0.08980  0.76030  Biso   1.000  O
  O43      1.0000 0.17420  0.41020  0.23970  Biso   1.000  O
  O44      1.0000 0.32580  0.58980  0.73970  Biso   1.000  O
  O45      1.0000 0.67960  0.96830  0.19680  Biso   1.000  O
  O46      1.0000 0.82040  0.03170  0.69680  Biso   1.000  O
  O47      1.0000 0.32040  0.46830  0.30320  Biso   1.000  O
  O48      1.0000 0.17960  0.53170  0.80320  Biso   1.000  O
  O49      1.0000 0.90560  0.01810  0.24600  Biso   1.000  O
  O50      1.0000 0.59440  0.98190  0.74600  Biso   1.000  O
  O51      1.0000 0.09440  0.51810  0.25400  Biso   1.000  O
  O52      1.0000 0.40560  0.48190  0.75400  Biso   1.000  O
  O53      1.0000 0.32580  0.27320  0.26340  Biso   1.000  O
  O54      1.0000 0.17420  0.72680  0.76340  Biso   1.000  O
  O55      1.0000 0.67420  0.77320  0.23660  Biso   1.000  O
  O56      1.0000 0.82580  0.22680  0.73660  Biso   1.000  O
  H145     1.0000 0.33800  0.30100  0.23200  Biso   1.000  H
  H146     1.0000 0.16200  0.69900  0.73200  Biso   1.000  H
  H147     1.0000 0.66200  0.80100  0.26800  Biso   1.000  H
  H148     1.0000 0.83800  0.19900  0.76800  Biso   1.000  H
  H149     1.0000 0.27800  0.29800  0.29300  Biso   1.000  H
  H150     1.0000 0.22200  0.70200  0.79300  Biso   1.000  H
  H151     1.0000 0.72200  0.79800  0.20700  Biso   1.000  H
  H152     1.0000 0.77800  0.20200  0.70700  Biso   1.000  H
