data_image0
_cell_length_a       9.7682
_cell_length_b       27.5129
_cell_length_c       14.0233
_cell_angle_alpha    90
_cell_angle_beta     98.56
_cell_angle_gamma    90

_symmetry_space_group_name_H-M    "P 1"
_symmetry_int_tables_number       1

loop_
  _symmetry_equiv_pos_as_xyz
  'x, y, z'

loop_
  _atom_site_label
  _atom_site_occupancy
  _atom_site_fract_x
  _atom_site_fract_y
  _atom_site_fract_z
  _atom_site_thermal_displace_type
  _atom_site_B_iso_or_equiv
  _atom_site_type_symbol
  Cu1      1.0000 0.45227  0.44199  0.25272  Biso   1.000  Cu
  Cu2      1.0000 0.54773  0.94199  0.74728  Biso   1.000  Cu
  N1       1.0000 0.52640  0.40770  0.37400  Biso   1.000  N
  N2       1.0000 0.47360  0.90770  0.62600  Biso   1.000  N
  N3       1.0000 0.54710  0.39370  0.52990  Biso   1.000  N
  N4       1.0000 0.45290  0.89370  0.47010  Biso   1.000  N
  N5       1.0000 0.36590  0.38000  0.19830  Biso   1.000  N
  N6       1.0000 0.63410  0.88000  0.80170  Biso   1.000  N
  N7       1.0000 0.22390  0.31860  0.18760  Biso   1.000  N
  N8       1.0000 0.77610  0.81860  0.81240  Biso   1.000  N
  N9       1.0000 0.37250  0.47640  0.12980  Biso   1.000  N
  N10      1.0000 0.62750  0.97640  0.87020  Biso   1.000  N
  N11      1.0000 0.20770  0.49660  0.01470  Biso   1.000  N
  N12      1.0000 0.79230  0.99660  0.98530  Biso   1.000  N
  N13      1.0000 0.52700  0.50510  0.31030  Biso   1.000  N
  N14      1.0000 0.47300  0.00510  0.68970  Biso   1.000  N
  N15      1.0000 0.51600  0.58240  0.34700  Biso   1.000  N
  N16      1.0000 0.48400  0.08240  0.65300  Biso   1.000  N
  O1       1.0000 0.23440  0.46020  0.33150  Biso   1.000  O
  O2       1.0000 0.76560  0.96020  0.66850  Biso   1.000  O
  O3       1.0000 0.18300  0.52100  0.51750  Biso   1.000  O
  O4       1.0000 0.81700  0.02100  0.48250  Biso   1.000  O
  H1       1.0000 0.26110  0.51810  0.54770  Biso   1.000  H
  H2       1.0000 0.73890  0.01810  0.45230  Biso   1.000  H
  O5       1.0000 0.30390  0.33780  0.75010  Biso   1.000  O
  O6       1.0000 0.69610  0.83780  0.24990  Biso   1.000  O
  H3       1.0000 0.25690  0.33360  0.69720  Biso   1.000  H
  H4       1.0000 0.74310  0.83360  0.30280  Biso   1.000  H
  O7       1.0000 0.52250  0.41670  0.84750  Biso   1.000  O
  O8       1.0000 0.47750  0.91670  0.15250  Biso   1.000  O
  C1       1.0000 0.57450  0.25850  0.35150  Biso   1.000  C
  C2       1.0000 0.42550  0.75850  0.64850  Biso   1.000  C
  H5       1.0000 0.50290  0.28040  0.36870  Biso   1.000  H
  H6       1.0000 0.49710  0.78040  0.63130  Biso   1.000  H
  C3       1.0000 0.42500  0.50830  0.06830  Biso   1.000  C
  C4       1.0000 0.57500  0.00830  0.93170  Biso   1.000  C
  C5       1.0000 0.70550  0.28760  0.34040  Biso   1.000  C
  C6       1.0000 0.29450  0.78760  0.65960  Biso   1.000  C
  H7       1.0000 0.77540  0.28370  0.39770  Biso   1.000  H
  H8       1.0000 0.22460  0.78370  0.60230  Biso   1.000  H
  O9       1.0000 0.70020  0.18550  0.39240  Biso   1.000  O
  O10      1.0000 0.29980  0.68550  0.60760  Biso   1.000  O
  H9       1.0000 0.66270  0.16390  0.35750  Biso   1.000  H
  H10      1.0000 0.33730  0.66390  0.64250  Biso   1.000  H
  C7       1.0000 0.32090  0.38430  0.89210  Biso   1.000  C
  C8       1.0000 0.67910  0.88430  0.10790  Biso   1.000  C
  H11      1.0000 0.26880  0.39830  0.94000  Biso   1.000  H
  H12      1.0000 0.73120  0.89830  0.06000  Biso   1.000  H
  C9       1.0000 0.03250  0.47130  0.41250  Biso   1.000  C
  C10      1.0000 0.96750  0.97130  0.58750  Biso   1.000  C
  H13      1.0000 0.99510  0.43830  0.40330  Biso   1.000  H
  H14      1.0000 0.00490  0.93830  0.59670  Biso   1.000  H
  C11      1.0000 0.65520  0.51870  0.35800  Biso   1.000  C
  C12      1.0000 0.34480  0.01870  0.64200  Biso   1.000  C
  O11      1.0000 0.33190  0.46050  0.80440  Biso   1.000  O
  O12      1.0000 0.66810  0.96050  0.19560  Biso   1.000  O
  O13      1.0000 0.63010  0.24460  0.19650  Biso   1.000  O
  O14      1.0000 0.36990  0.74460  0.80350  Biso   1.000  O
  C13      1.0000 0.63710  0.23350  0.52640  Biso   1.000  C
  C14      1.0000 0.36290  0.73350  0.47360  Biso   1.000  C
  C15      1.0000 0.57530  0.52030  0.07960  Biso   1.000  C
  C16      1.0000 0.42470  0.02030  0.92040  Biso   1.000  C
  H15      1.0000 0.62420  0.49340  0.05520  Biso   1.000  H
  H16      1.0000 0.37580  0.99340  0.94480  Biso   1.000  H
  H17      1.0000 0.61020  0.52380  0.14760  Biso   1.000  H
  H18      1.0000 0.38980  0.02380  0.85240  Biso   1.000  H
  C17      1.0000 0.44020  0.35500  0.94330  Biso   1.000  C
  C18      1.0000 0.55980  0.85500  0.05670  Biso   1.000  C
  H19      1.0000 0.42010  0.32010  0.93760  Biso   1.000  H
  H20      1.0000 0.57990  0.82010  0.06240  Biso   1.000  H
  O15      1.0000 0.42410  0.21830  0.22070  Biso   1.000  O
  O16      1.0000 0.57590  0.71830  0.77930  Biso   1.000  O
  C19      1.0000 0.37350  0.35530  0.11290  Biso   1.000  C
  C20      1.0000 0.62650  0.85530  0.88710  Biso   1.000  C
  C21      1.0000 0.48960  0.42280  0.45800  Biso   1.000  C
  C22      1.0000 0.51040  0.92280  0.54200  Biso   1.000  C
  H21      1.0000 0.43320  0.44940  0.46510  Biso   1.000  H
  H22      1.0000 0.56680  0.94940  0.53490  Biso   1.000  H
  C23      1.0000 0.67640  0.34190  0.31950  Biso   1.000  C
  C24      1.0000 0.32360  0.84190  0.68050  Biso   1.000  C
  H23      1.0000 0.76300  0.35790  0.31280  Biso   1.000  H
  H24      1.0000 0.23700  0.85790  0.68720  Biso   1.000  H
  H25      1.0000 0.61590  0.34480  0.25830  Biso   1.000  H
  H26      1.0000 0.38410  0.84480  0.74170  Biso   1.000  H
  C25      1.0000 0.56270  0.61230  0.07320  Biso   1.000  C
  C26      1.0000 0.43730  0.11230  0.92680  Biso   1.000  C
  H27      1.0000 0.49130  0.60430  0.11290  Biso   1.000  H
  H28      1.0000 0.50870  0.10430  0.88710  Biso   1.000  H
  C27      1.0000 0.61170  0.36790  0.39460  Biso   1.000  C
  C28      1.0000 0.38830  0.86790  0.60540  Biso   1.000  C
  C29      1.0000 0.32440  0.51970  0.99790  Biso   1.000  C
  C30      1.0000 0.67560  0.01970  0.00210  Biso   1.000  C
  H29      1.0000 0.33240  0.54000  0.94600  Biso   1.000  H
  H30      1.0000 0.66760  0.04000  0.05400  Biso   1.000  H
  C31      1.0000 0.52960  0.24650  0.58110  Biso   1.000  C
  C32      1.0000 0.47040  0.74650  0.41890  Biso   1.000  C
  H31      1.0000 0.43760  0.24430  0.55240  Biso   1.000  H
  H32      1.0000 0.56240  0.74430  0.44760  Biso   1.000  H
  C33      1.0000 0.62380  0.35870  0.49230  Biso   1.000  C
  C34      1.0000 0.37620  0.85870  0.50770  Biso   1.000  C
  H33      1.0000 0.67400  0.33380  0.52590  Biso   1.000  H
  H34      1.0000 0.32600  0.83380  0.47410  Biso   1.000  H
  C35      1.0000 0.13320  0.31970  0.85690  Biso   1.000  C
  C36      1.0000 0.86680  0.81970  0.14310  Biso   1.000  C
  C37      1.0000 0.28540  0.31770  0.10630  Biso   1.000  C
  C38      1.0000 0.71460  0.81770  0.89370  Biso   1.000  C
  H35      1.0000 0.26920  0.29530  0.05620  Biso   1.000  H
  H36      1.0000 0.73080  0.79530  0.94380  Biso   1.000  H
  C39      1.0000 0.53060  0.23830  0.25050  Biso   1.000  C
  C40      1.0000 0.46940  0.73830  0.74950  Biso   1.000  C
  C41      1.0000 0.02520  0.33540  0.90420  Biso   1.000  C
  C42      1.0000 0.97480  0.83540  0.09580  Biso   1.000  C
  H37      1.0000 0.00690  0.36840  0.90850  Biso   1.000  H
  H38      1.0000 0.99310  0.86840  0.09150  Biso   1.000  H
  C43      1.0000 0.91420  0.50770  0.38880  Biso   1.000  C
  C44      1.0000 0.08580  0.00770  0.61120  Biso   1.000  C
  H39      1.0000 0.92210  0.53230  0.43990  Biso   1.000  H
  H40      1.0000 0.07790  0.03230  0.56010  Biso   1.000  H
  C45      1.0000 0.77050  0.23710  0.56910  Biso   1.000  C
  C46      1.0000 0.22950  0.73710  0.43090  Biso   1.000  C
  H41      1.0000 0.84250  0.22940  0.53520  Biso   1.000  H
  H42      1.0000 0.15750  0.72940  0.46480  Biso   1.000  H
  C47      1.0000 0.47790  0.36970  0.04950  Biso   1.000  C
  C48      1.0000 0.52210  0.86970  0.95050  Biso   1.000  C
  H43      1.0000 0.56630  0.35520  0.07490  Biso   1.000  H
  H44      1.0000 0.43370  0.85520  0.92510  Biso   1.000  H
  H45      1.0000 0.48950  0.40480  0.05290  Biso   1.000  H
  H46      1.0000 0.51050  0.90480  0.94710  Biso   1.000  H
  C49      1.0000 0.27260  0.35550  0.24040  Biso   1.000  C
  C50      1.0000 0.72740  0.85550  0.75960  Biso   1.000  C
  H47      1.0000 0.24610  0.36380  0.29930  Biso   1.000  H
  H48      1.0000 0.75390  0.86380  0.70070  Biso   1.000  H
  C51      1.0000 0.69260  0.62840  0.13600  Biso   1.000  C
  C52      1.0000 0.30740  0.12840  0.86400  Biso   1.000  C
  C53      1.0000 0.55980  0.36830  0.88940  Biso   1.000  C
  C54      1.0000 0.44020  0.86830  0.11060  Biso   1.000  C
  H49      1.0000 0.64650  0.36970  0.93320  Biso   1.000  H
  H50      1.0000 0.35350  0.86970  0.06680  Biso   1.000  H
  H51      1.0000 0.56850  0.34470  0.83920  Biso   1.000  H
  H52      1.0000 0.43150  0.84470  0.16080  Biso   1.000  H
  C55      1.0000 0.44580  0.54470  0.30650  Biso   1.000  C
  C56      1.0000 0.55420  0.04470  0.69350  Biso   1.000  C
  H53      1.0000 0.35300  0.54550  0.27910  Biso   1.000  H
  H54      1.0000 0.64700  0.04550  0.72090  Biso   1.000  H
  C57      1.0000 0.12710  0.48080  0.33850  Biso   1.000  C
  C58      1.0000 0.87290  0.98080  0.66150  Biso   1.000  C
  C59      1.0000 0.07300  0.49830  0.95400  Biso   1.000  C
  C60      1.0000 0.92700  0.99830  0.04600  Biso   1.000  C
  H55      1.0000 0.00180  0.49140  0.99240  Biso   1.000  H
  H56      1.0000 0.99820  0.99140  0.00760  Biso   1.000  H
  H57      1.0000 0.07010  0.47460  0.90360  Biso   1.000  H
  H58      1.0000 0.92990  0.97460  0.09640  Biso   1.000  H
  H59      1.0000 0.05840  0.53010  0.92620  Biso   1.000  H
  H60      1.0000 0.94160  0.03010  0.07380  Biso   1.000  H
  C61      1.0000 0.11410  0.47540  0.51360  Biso   1.000  C
  C62      1.0000 0.88590  0.97540  0.48640  Biso   1.000  C
  H61      1.0000 0.18450  0.44980  0.52130  Biso   1.000  H
  H62      1.0000 0.81550  0.94980  0.47870  Biso   1.000  H
  C63      1.0000 0.55890  0.26160  0.67230  Biso   1.000  C
  C64      1.0000 0.44110  0.76160  0.32770  Biso   1.000  C
  H63      1.0000 0.48800  0.27020  0.70660  Biso   1.000  H
  H64      1.0000 0.51200  0.77020  0.29340  Biso   1.000  H
  C65      1.0000 0.64650  0.56750  0.37990  Biso   1.000  C
  C66      1.0000 0.35350  0.06750  0.62010  Biso   1.000  C
  H65      1.0000 0.71750  0.58670  0.41150  Biso   1.000  H
  H66      1.0000 0.28250  0.08670  0.58850  Biso   1.000  H
  O17      1.0000 0.80220  0.60620  0.11430  Biso   1.000  O
  O18      1.0000 0.19780  0.10620  0.88570  Biso   1.000  O
  C67      1.0000 0.36980  0.64310  0.95190  Biso   1.000  C
  C68      1.0000 0.63020  0.14310  0.04810  Biso   1.000  C
  C69      1.0000 0.38800  0.42500  0.84280  Biso   1.000  C
  C70      1.0000 0.61200  0.92500  0.15720  Biso   1.000  C
  C71      1.0000 0.02280  0.46850  0.59070  Biso   1.000  C
  C72      1.0000 0.97720  0.96850  0.40930  Biso   1.000  C
  C73      1.0000 0.97950  0.42240  0.60930  Biso   1.000  C
  C74      1.0000 0.02050  0.92240  0.39070  Biso   1.000  C
  H67      1.0000 0.00790  0.39570  0.57650  Biso   1.000  H
  H68      1.0000 0.99210  0.89570  0.42350  Biso   1.000  H
  C75      1.0000 0.24250  0.47060  0.09430  Biso   1.000  C
  C76      1.0000 0.75750  0.97060  0.90570  Biso   1.000  C
  H69      1.0000 0.18160  0.45070  0.12140  Biso   1.000  H
  H70      1.0000 0.81840  0.95070  0.87860  Biso   1.000  H
  C77      1.0000 0.16140  0.27060  0.85350  Biso   1.000  C
  C78      1.0000 0.83860  0.77060  0.14650  Biso   1.000  C
  H71      1.0000 0.23340  0.25960  0.82250  Biso   1.000  H
  H72      1.0000 0.76660  0.75960  0.17750  Biso   1.000  H
  C79      1.0000 0.59660  0.21590  0.42390  Biso   1.000  C
  C80      1.0000 0.40340  0.71590  0.57610  Biso   1.000  C
  H73      1.0000 0.51030  0.19740  0.41990  Biso   1.000  H
  H74      1.0000 0.48970  0.69740  0.58010  Biso   1.000  H
  C81      1.0000 0.60710  0.56740  0.02630  Biso   1.000  C
  C82      1.0000 0.39290  0.06740  0.97370  Biso   1.000  C
  H75      1.0000 0.56410  0.56600  0.95860  Biso   1.000  H
  H76      1.0000 0.43590  0.06600  0.04140  Biso   1.000  H
  C83      1.0000 0.52190  0.39660  0.62950  Biso   1.000  C
  C84      1.0000 0.47810  0.89660  0.37050  Biso   1.000  C
  H77      1.0000 0.44250  0.41680  0.63290  Biso   1.000  H
  H78      1.0000 0.55750  0.91680  0.36710  Biso   1.000  H
  H79      1.0000 0.60140  0.41040  0.66870  Biso   1.000  H
  H80      1.0000 0.39860  0.91040  0.33130  Biso   1.000  H
  H81      1.0000 0.50510  0.36460  0.65250  Biso   1.000  H
  H82      1.0000 0.49490  0.86460  0.34750  Biso   1.000  H
  C85      1.0000 0.11860  0.28320  0.21090  Biso   1.000  C
  C86      1.0000 0.88140  0.78320  0.78910  Biso   1.000  C
  H83      1.0000 0.16380  0.25370  0.23500  Biso   1.000  H
  H84      1.0000 0.83620  0.75370  0.76500  Biso   1.000  H
  H85      1.0000 0.05460  0.27620  0.15370  Biso   1.000  H
  H86      1.0000 0.94540  0.77620  0.84630  Biso   1.000  H
  H87      1.0000 0.06940  0.29680  0.25900  Biso   1.000  H
  H88      1.0000 0.93060  0.79680  0.74100  Biso   1.000  H
  O19      1.0000 0.61290  0.66060  0.94610  Biso   1.000  O
  O20      1.0000 0.38710  0.16060  0.05390  Biso   1.000  O
  H89      1.0000 0.60580  0.68820  0.92390  Biso   1.000  H
  H90      1.0000 0.39420  0.18820  0.07610  Biso   1.000  H
  C87      1.0000 0.21990  0.35710  0.81500  Biso   1.000  C
  C88      1.0000 0.78010  0.85710  0.18500  Biso   1.000  C
  H91      1.0000 0.15720  0.38110  0.78010  Biso   1.000  H
  H92      1.0000 0.84280  0.88110  0.21990  Biso   1.000  H
  C89      1.0000 0.79810  0.25270  0.66510  Biso   1.000  C
  C90      1.0000 0.20190  0.75270  0.33490  Biso   1.000  C
  H93      1.0000 0.88960  0.25500  0.69460  Biso   1.000  H
  H94      1.0000 0.11040  0.75500  0.30540  Biso   1.000  H
  C91      1.0000 0.89690  0.49980  0.70980  Biso   1.000  C
  C92      1.0000 0.10310  0.99980  0.29020  Biso   1.000  C
  H95      1.0000 0.86970  0.52620  0.74380  Biso   1.000  H
  H96      1.0000 0.13030  0.02620  0.25620  Biso   1.000  H
  C93      1.0000 0.34770  0.63080  0.85540  Biso   1.000  C
  C94      1.0000 0.65230  0.13080  0.14460  Biso   1.000  C
  H97      1.0000 0.42290  0.62890  0.82200  Biso   1.000  H
  H98      1.0000 0.57710  0.12890  0.17800  Biso   1.000  H
  C95      1.0000 0.97580  0.25450  0.94180  Biso   1.000  C
  C96      1.0000 0.02420  0.75450  0.05820  Biso   1.000  C
  H99      1.0000 0.92390  0.23220  0.97120  Biso   1.000  H
  H100     1.0000 0.07610  0.73220  0.02880  Biso   1.000  H
  C97      1.0000 0.75510  0.26470  0.25270  Biso   1.000  C
  C98      1.0000 0.24490  0.76470  0.74730  Biso   1.000  C
  H101     1.0000 0.79680  0.28900  0.21580  Biso   1.000  H
  H102     1.0000 0.20320  0.78900  0.78420  Biso   1.000  H
  H103     1.0000 0.82240  0.23930  0.27210  Biso   1.000  H
  H104     1.0000 0.17760  0.73930  0.72790  Biso   1.000  H
  C99      1.0000 0.51220  0.65300  0.00250  Biso   1.000  C
  C100     1.0000 0.48780  0.15300  0.99750  Biso   1.000  C
  H105     1.0000 0.50690  0.68260  0.04070  Biso   1.000  H
  H106     1.0000 0.49310  0.18260  0.95930  Biso   1.000  H
  C101     1.0000 0.69700  0.26440  0.71600  Biso   1.000  C
  C102     1.0000 0.30300  0.76440  0.28400  Biso   1.000  C
  H107     1.0000 0.71820  0.27430  0.77990  Biso   1.000  H
  H108     1.0000 0.28180  0.77430  0.22010  Biso   1.000  H
  C103     1.0000 0.46060  0.63110  0.35470  Biso   1.000  C
  C104     1.0000 0.53940  0.13110  0.64530  Biso   1.000  C
  H109     1.0000 0.51790  0.65410  0.32750  Biso   1.000  H
  H110     1.0000 0.48210  0.15410  0.67250  Biso   1.000  H
  H111     1.0000 0.45940  0.63880  0.42130  Biso   1.000  H
  H112     1.0000 0.54060  0.13880  0.57870  Biso   1.000  H
  H113     1.0000 0.36810  0.63260  0.32020  Biso   1.000  H
  H114     1.0000 0.63190  0.13260  0.67980  Biso   1.000  H
  C105     1.0000 0.94540  0.30200  0.94470  Biso   1.000  C
  C106     1.0000 0.05460  0.80200  0.05530  Biso   1.000  C
  H115     1.0000 0.87100  0.31240  0.97380  Biso   1.000  H
  H116     1.0000 0.12900  0.81240  0.02620  Biso   1.000  H
  C107     1.0000 0.98290  0.50700  0.64080  Biso   1.000  C
  C108     1.0000 0.01710  0.00700  0.35920  Biso   1.000  C
  H117     1.0000 0.01330  0.53810  0.62880  Biso   1.000  H
  H118     1.0000 0.98670  0.03810  0.37120  Biso   1.000  H
  C109     1.0000 0.85250  0.45510  0.72820  Biso   1.000  C
  C110     1.0000 0.14750  0.95510  0.27180  Biso   1.000  C
  H119     1.0000 0.79490  0.45070  0.77470  Biso   1.000  H
  H120     1.0000 0.20510  0.95070  0.22530  Biso   1.000  H
  C111     1.0000 0.08240  0.23820  0.89610  Biso   1.000  C
  C112     1.0000 0.91760  0.73820  0.10390  Biso   1.000  C
  H121     1.0000 0.10100  0.20510  0.89410  Biso   1.000  H
  H122     1.0000 0.89900  0.70510  0.10590  Biso   1.000  H
  C113     1.0000 0.89130  0.41630  0.67930  Biso   1.000  C
  C114     1.0000 0.10870  0.91630  0.32070  Biso   1.000  C
  H123     1.0000 0.85960  0.38550  0.69190  Biso   1.000  H
  H124     1.0000 0.14040  0.88550  0.30810  Biso   1.000  H
  C115     1.0000 0.77230  0.48440  0.38050  Biso   1.000  C
  C116     1.0000 0.22770  0.98440  0.61950  Biso   1.000  C
  H125     1.0000 0.76490  0.45980  0.33040  Biso   1.000  H
  H126     1.0000 0.23510  0.95980  0.66960  Biso   1.000  H
  H127     1.0000 0.76430  0.46820  0.44080  Biso   1.000  H
  H128     1.0000 0.23570  0.96820  0.55920  Biso   1.000  H
  O21      1.0000 0.08100  0.51730  0.28090  Biso   1.000  O
  O22      1.0000 0.91900  0.01730  0.71910  Biso   1.000  O
  C117     1.0000 0.94330  0.53190  0.29570  Biso   1.000  C
  C118     1.0000 0.05670  0.03190  0.70430  Biso   1.000  C
  H129     1.0000 0.87560  0.52150  0.24180  Biso   1.000  H
  H130     1.0000 0.12440  0.02150  0.75820  Biso   1.000  H
  H131     1.0000 0.93830  0.56700  0.30130  Biso   1.000  H
  H132     1.0000 0.06170  0.06700  0.69870  Biso   1.000  H
  C119     1.0000 0.12100  0.63580  0.95700  Biso   1.000  C
  C120     1.0000 0.87900  0.13580  0.04300  Biso   1.000  C
  H133     1.0000 0.04690  0.63690  0.99140  Biso   1.000  H
  H134     1.0000 0.95310  0.13690  0.00860  Biso   1.000  H
  C121     1.0000 0.21300  0.62120  0.80620  Biso   1.000  C
  C122     1.0000 0.78700  0.12120  0.19380  Biso   1.000  C
  H135     1.0000 0.19800  0.61370  0.74080  Biso   1.000  H
  H136     1.0000 0.80200  0.11370  0.25920  Biso   1.000  H
  C123     1.0000 0.10200  0.62340  0.86200  Biso   1.000  C
  C124     1.0000 0.89800  0.12340  0.13800  Biso   1.000  C
  H137     1.0000 0.01350  0.61600  0.83150  Biso   1.000  H
  H138     1.0000 0.98650  0.11600  0.16850  Biso   1.000  H
  C125     1.0000 0.25400  0.64670  0.99910  Biso   1.000  C
  C126     1.0000 0.74600  0.14670  0.00090  Biso   1.000  C
  H139     1.0000 0.26800  0.65700  0.06290  Biso   1.000  H
  H140     1.0000 0.73200  0.15700  0.93710  Biso   1.000  H
  C127     1.0000 0.76670  0.57420  0.03340  Biso   1.000  C
  C128     1.0000 0.23330  0.07420  0.96660  Biso   1.000  C
  O23      1.0000 0.70060  0.65790  0.20340  Biso   1.000  O
  O24      1.0000 0.29940  0.15790  0.79660  Biso   1.000  O
  Cl1      1.0000 0.85350  0.41065  0.12930  Biso   1.000  Cl
  Cl2      1.0000 0.14650  0.91065  0.87070  Biso   1.000  Cl
  O25      1.0000 0.83000  0.35920  0.11850  Biso   1.000  O
  O26      1.0000 0.17000  0.85920  0.88150  Biso   1.000  O
  O27      1.0000 0.83590  0.42870  0.03450  Biso   1.000  O
  O28      1.0000 0.16410  0.92870  0.96550  Biso   1.000  O
  O29      1.0000 0.73410  0.42770  0.17340  Biso   1.000  O
  O30      1.0000 0.26590  0.92770  0.82660  Biso   1.000  O
  O31      1.0000 0.96600  0.42040  0.19180  Biso   1.000  O
  O32      1.0000 0.03400  0.92040  0.80820  Biso   1.000  O
  Cl3      1.0000 0.14310  0.30327  0.49400  Biso   1.000  Cl
  Cl4      1.0000 0.85690  0.80327  0.50600  Biso   1.000  Cl
  O33      1.0000 0.13400  0.29740  0.59170  Biso   1.000  O
  O34      1.0000 0.86600  0.79740  0.40830  Biso   1.000  O
  O35      1.0000 0.14500  0.25700  0.45300  Biso   1.000  O
  O36      1.0000 0.85500  0.75700  0.54700  Biso   1.000  O
  O37      1.0000 0.25260  0.32840  0.48830  Biso   1.000  O
  O38      1.0000 0.74740  0.82840  0.51170  Biso   1.000  O
  O39      1.0000 0.02860  0.32320  0.44080  Biso   1.000  O
  O40      1.0000 0.97140  0.82320  0.55920  Biso   1.000  O
  O41      1.0000 0.15310  0.62050  0.47760  Biso   1.000  O
  O42      1.0000 0.84690  0.12050  0.52240  Biso   1.000  O
  H141     1.0000 0.22670  0.62770  0.45480  Biso   1.000  H
  H142     1.0000 0.77330  0.12770  0.54520  Biso   1.000  H
  H143     1.0000 0.15880  0.58980  0.49120  Biso   1.000  H
  H144     1.0000 0.84120  0.08980  0.50880  Biso   1.000  H
  O43      1.0000 0.88280  0.66390  0.39600  Biso   1.000  O
  O44      1.0000 0.11720  0.16390  0.60400  Biso   1.000  O
  H145     1.0000 0.81610  0.65510  0.43920  Biso   1.000  H
  H146     1.0000 0.18390  0.15510  0.56080  Biso   1.000  H
  H147     1.0000 0.94780  0.67280  0.44120  Biso   1.000  H
  H148     1.0000 0.05220  0.17280  0.55880  Biso   1.000  H
  O45      1.0000 0.39720  0.52110  0.66230  Biso   1.000  O
  O46      1.0000 0.60280  0.02110  0.33770  Biso   1.000  O
  H149     1.0000 0.48670  0.52110  0.66430  Biso   1.000  H
  H150     1.0000 0.51330  0.02110  0.33570  Biso   1.000  H
  H151     1.0000 0.37740  0.49490  0.68850  Biso   1.000  H
  H152     1.0000 0.62260  0.99490  0.31150  Biso   1.000  H
