data_image0
_cell_length_a       8.272
_cell_length_b       10.362
_cell_length_c       11.373
_cell_angle_alpha    102.026
_cell_angle_beta     109.877
_cell_angle_gamma    103.958

_symmetry_space_group_name_H-M    "P 1"
_symmetry_int_tables_number       1

loop_
  _symmetry_equiv_pos_as_xyz
  'x, y, z'

loop_
  _atom_site_label
  _atom_site_occupancy
  _atom_site_fract_x
  _atom_site_fract_y
  _atom_site_fract_z
  _atom_site_thermal_displace_type
  _atom_site_B_iso_or_equiv
  _atom_site_type_symbol
  Cd1      1.0000 0.96357  0.41267  0.82589  Biso   1.000  Cd
  Cd2      1.0000 0.03643  0.58733  0.17411  Biso   1.000  Cd
  Cu1      1.0000 0.16737  0.12920  0.97382  Biso   1.000  Cu
  Cu2      1.0000 0.83263  0.87080  0.02618  Biso   1.000  Cu
  O1       1.0000 0.16290  0.36450  0.74750  Biso   1.000  O
  O2       1.0000 0.83710  0.63550  0.25250  Biso   1.000  O
  O3       1.0000 0.77020  0.18730  0.69710  Biso   1.000  O
  O4       1.0000 0.22980  0.81270  0.30290  Biso   1.000  O
  O5       1.0000 0.02840  0.93360  0.87509  Biso   1.000  O
  O6       1.0000 0.97160  0.06640  0.12491  Biso   1.000  O
  O7       1.0000 0.30540  0.30940  0.09740  Biso   1.000  O
  O8       1.0000 0.69460  0.69060  0.90260  Biso   1.000  O
  O9       1.0000 0.33390  0.04280  0.05760  Biso   1.000  O
  O10      1.0000 0.66610  0.95720  0.94240  Biso   1.000  O
  O11      1.0000 0.54140  0.47480  0.25800  Biso   1.000  O
  O12      1.0000 0.45860  0.52520  0.74200  Biso   1.000  O
  C1       1.0000 0.74760  0.07900  0.33390  Biso   1.000  C
  C2       1.0000 0.25240  0.92100  0.66610  Biso   1.000  C
  H1       1.0000 0.81650  0.02450  0.36410  Biso   1.000  H
  H2       1.0000 0.18350  0.97550  0.63590  Biso   1.000  H
  O13      1.0000 0.97350  0.18690  0.87905  Biso   1.000  O
  O14      1.0000 0.02650  0.81310  0.12095  Biso   1.000  O
  O15      1.0000 0.80420  0.47580  0.95510  Biso   1.000  O
  O16      1.0000 0.19580  0.52420  0.04490  Biso   1.000  O
  C3       1.0000 0.48770  0.10100  0.16960  Biso   1.000  C
  C4       1.0000 0.51230  0.89900  0.83040  Biso   1.000  C
  C5       1.0000 0.81240  0.96850  0.69240  Biso   1.000  C
  C6       1.0000 0.18760  0.03150  0.30760  Biso   1.000  C
  C7       1.0000 0.46230  0.34930  0.19680  Biso   1.000  C
  C8       1.0000 0.53770  0.65070  0.80320  Biso   1.000  C
  C9       1.0000 0.54880  0.24570  0.23910  Biso   1.000  C
  C10      1.0000 0.45120  0.75430  0.76090  Biso   1.000  C
  C11      1.0000 0.83690  0.73760  0.68140  Biso   1.000  C
  C12      1.0000 0.16310  0.26240  0.31860  Biso   1.000  C
  C13      1.0000 0.89530  0.88130  0.75170  Biso   1.000  C
  C14      1.0000 0.10470  0.11870  0.24830  Biso   1.000  C
  C15      1.0000 0.80160  0.21810  0.40720  Biso   1.000  C
  C16      1.0000 0.19840  0.78190  0.59280  Biso   1.000  C
  H3       1.0000 0.90200  0.25590  0.48820  Biso   1.000  H
  H4       1.0000 0.09800  0.74410  0.51180  Biso   1.000  H
  C17      1.0000 0.59120  0.01830  0.21510  Biso   1.000  C
  C18      1.0000 0.40880  0.98170  0.78490  Biso   1.000  C
  C19      1.0000 0.62180  0.77130  0.49320  Biso   1.000  C
  C20      1.0000 0.37820  0.22870  0.50680  Biso   1.000  C
  H5       1.0000 0.53270  0.73550  0.40710  Biso   1.000  H
  H6       1.0000 0.46730  0.26450  0.59290  Biso   1.000  H
  C21      1.0000 0.67870  0.91120  0.56320  Biso   1.000  C
  C22      1.0000 0.32130  0.08880  0.43680  Biso   1.000  C
  H7       1.0000 0.62650  0.96950  0.52320  Biso   1.000  H
  H8       1.0000 0.37350  0.03050  0.47680  Biso   1.000  H
  C23      1.0000 0.69890  0.68530  0.55290  Biso   1.000  C
  C24      1.0000 0.30110  0.31470  0.44710  Biso   1.000  C
  H9       1.0000 0.65860  0.59010  0.50700  Biso   1.000  H
  H10      1.0000 0.34140  0.40990  0.49300  Biso   1.000  H
  C25      1.0000 0.85300  0.12030  0.75790  Biso   1.000  C
  C26      1.0000 0.14700  0.87970  0.24210  Biso   1.000  C
  C27      1.0000 0.70470  0.29970  0.35840  Biso   1.000  C
  C28      1.0000 0.29530  0.70030  0.64160  Biso   1.000  C
  H11      1.0000 0.74390  0.39420  0.40630  Biso   1.000  H
  H12      1.0000 0.25610  0.60580  0.59370  Biso   1.000  H
  C29      1.0000 0.90460  0.63260  0.73560  Biso   1.000  C
  C30      1.0000 0.09540  0.36740  0.26440  Biso   1.000  C
  C31      1.0000 0.54850  0.86680  0.14390  Biso   1.000  C
  C32      1.0000 0.45150  0.13320  0.85610  Biso   1.000  C
  O17      1.0000 0.04610  0.66780  0.84540  Biso   1.000  O
  O18      1.0000 0.95390  0.33220  0.15460  Biso   1.000  O
  O19      1.0000 0.67600  0.81920  0.16900  Biso   1.000  O
  O20      1.0000 0.32400  0.18080  0.83100  Biso   1.000  O
  O21      1.0000 0.82300  0.50580  0.67420  Biso   1.000  O
  O22      1.0000 0.17700  0.49420  0.32580  Biso   1.000  O
  O23      1.0000 0.38560  0.78830  0.05900  Biso   1.000  O
  O24      1.0000 0.61440  0.21170  0.94100  Biso   1.000  O
  Cu3      1.0000 0.19978  0.84944  0.96097  Biso   1.000  Cu
  Cu4      1.0000 0.80022  0.15056  0.03903  Biso   1.000  Cu
  H13      1.0000 0.22200  0.31800  0.77900  Biso   1.000  H
  H14      1.0000 0.77800  0.68200  0.22100  Biso   1.000  H
  H15      1.0000 0.75600  0.52700  0.92700  Biso   1.000  H
  H16      1.0000 0.24400  0.47300  0.07300  Biso   1.000  H
  H17      1.0000 0.71800  0.41100  0.94100  Biso   1.000  H
  H18      1.0000 0.28200  0.58900  0.05900  Biso   1.000  H
  H19      1.0000 0.25000  0.42300  0.74800  Biso   1.000  H
  H20      1.0000 0.75000  0.57700  0.25200  Biso   1.000  H
