data_image0
_cell_length_a       8.222
_cell_length_b       10.509
_cell_length_c       11.25
_cell_angle_alpha    90
_cell_angle_beta     90.63
_cell_angle_gamma    90

_symmetry_space_group_name_H-M    "P 1"
_symmetry_int_tables_number       1

loop_
  _symmetry_equiv_pos_as_xyz
  'x, y, z'

loop_
  _atom_site_label
  _atom_site_occupancy
  _atom_site_fract_x
  _atom_site_fract_y
  _atom_site_fract_z
  _atom_site_thermal_displace_type
  _atom_site_B_iso_or_equiv
  _atom_site_type_symbol
  Cu1      1.0000 0.00000  0.50000  0.50000  Biso   1.000  Cu
  Cu2      1.0000 0.50000  0.00000  0.00000  Biso   1.000  Cu
  O1       1.0000 0.50770  0.14251  0.11252  Biso   1.000  O
  O2       1.0000 0.99230  0.64251  0.38748  Biso   1.000  O
  O3       1.0000 0.49230  0.85749  0.88748  Biso   1.000  O
  O4       1.0000 0.00770  0.35749  0.61252  Biso   1.000  O
  O5       1.0000 0.19370  0.39280  0.37428  Biso   1.000  O
  O6       1.0000 0.30630  0.89280  0.12572  Biso   1.000  O
  O7       1.0000 0.80630  0.60720  0.62572  Biso   1.000  O
  O8       1.0000 0.69370  0.10720  0.87428  Biso   1.000  O
  N1       1.0000 0.19120  0.57230  0.58514  Biso   1.000  N
  N2       1.0000 0.30880  0.07230  0.91486  Biso   1.000  N
  N3       1.0000 0.80880  0.42770  0.41486  Biso   1.000  N
  N4       1.0000 0.69120  0.92770  0.08514  Biso   1.000  N
  C1       1.0000 0.80240  0.30650  0.38090  Biso   1.000  C
  C2       1.0000 0.69760  0.80650  0.11910  Biso   1.000  C
  C3       1.0000 0.19760  0.69350  0.61910  Biso   1.000  C
  C4       1.0000 0.30240  0.19350  0.88090  Biso   1.000  C
  H1       1.0000 0.89450  0.25390  0.39520  Biso   1.000  H
  H2       1.0000 0.60550  0.75390  0.10480  Biso   1.000  H
  H3       1.0000 0.10550  0.74610  0.60480  Biso   1.000  H
  H4       1.0000 0.39450  0.24610  0.89520  Biso   1.000  H
  C5       1.0000 0.66760  0.25420  0.32580  Biso   1.000  C
  C6       1.0000 0.83240  0.75420  0.17420  Biso   1.000  C
  C7       1.0000 0.33240  0.74580  0.67420  Biso   1.000  C
  C8       1.0000 0.16760  0.24580  0.82580  Biso   1.000  C
  H5       1.0000 0.66860  0.16760  0.30150  Biso   1.000  H
  H6       1.0000 0.83140  0.66760  0.19850  Biso   1.000  H
  H7       1.0000 0.33140  0.83240  0.69850  Biso   1.000  H
  H8       1.0000 0.16860  0.33240  0.80150  Biso   1.000  H
  C9       1.0000 0.53010  0.32880  0.30580  Biso   1.000  C
  C10      1.0000 0.96990  0.82880  0.19420  Biso   1.000  C
  C11      1.0000 0.46990  0.67120  0.69420  Biso   1.000  C
  C12      1.0000 0.03010  0.17120  0.80580  Biso   1.000  C
  C13      1.0000 0.38210  0.18520  0.16540  Biso   1.000  C
  C14      1.0000 0.11790  0.68520  0.33460  Biso   1.000  C
  C15      1.0000 0.61790  0.81480  0.83460  Biso   1.000  C
  C16      1.0000 0.88210  0.31480  0.66540  Biso   1.000  C
  H9       1.0000 0.27970  0.15180  0.14100  Biso   1.000  H
  H10      1.0000 0.22030  0.65180  0.35900  Biso   1.000  H
  H11      1.0000 0.72030  0.84820  0.85900  Biso   1.000  H
  H12      1.0000 0.77970  0.34820  0.64100  Biso   1.000  H
  C17      1.0000 0.67970  0.50140  0.39240  Biso   1.000  C
  C18      1.0000 0.82030  0.00140  0.10760  Biso   1.000  C
  C19      1.0000 0.32030  0.49860  0.60760  Biso   1.000  C
  C20      1.0000 0.17970  0.99860  0.89240  Biso   1.000  C
  H13      1.0000 0.68460  0.58870  0.41400  Biso   1.000  H
  H14      1.0000 0.81540  0.08870  0.08600  Biso   1.000  H
  H15      1.0000 0.31540  0.41130  0.58600  Biso   1.000  H
  H16      1.0000 0.18460  0.91130  0.91400  Biso   1.000  H
  C21      1.0000 0.38130  0.27580  0.25500  Biso   1.000  C
  C22      1.0000 0.11870  0.77580  0.24500  Biso   1.000  C
  C23      1.0000 0.61870  0.72420  0.74500  Biso   1.000  C
  C24      1.0000 0.88130  0.22420  0.75500  Biso   1.000  C
  C25      1.0000 0.54010  0.45590  0.33910  Biso   1.000  C
  C26      1.0000 0.95990  0.95590  0.16090  Biso   1.000  C
  C27      1.0000 0.45990  0.54410  0.66090  Biso   1.000  C
  C28      1.0000 0.04010  0.04410  0.83910  Biso   1.000  C
  H17      1.0000 0.45050  0.51120  0.32510  Biso   1.000  H
  H18      1.0000 0.04950  0.01120  0.17490  Biso   1.000  H
  H19      1.0000 0.54950  0.48880  0.67490  Biso   1.000  H
  H20      1.0000 0.95050  0.98880  0.82510  Biso   1.000  H
  C29      1.0000 0.22410  0.31340  0.29680  Biso   1.000  C
  C30      1.0000 0.27590  0.81340  0.20320  Biso   1.000  C
  C31      1.0000 0.77590  0.68660  0.70320  Biso   1.000  C
  C32      1.0000 0.72410  0.18660  0.79680  Biso   1.000  C
  H21      1.0000 0.13320  0.27240  0.26080  Biso   1.000  H
  H22      1.0000 0.36680  0.77240  0.23920  Biso   1.000  H
  H23      1.0000 0.86680  0.72760  0.73920  Biso   1.000  H
  H24      1.0000 0.63320  0.22760  0.76080  Biso   1.000  H
  O9       1.0000 0.84120  0.88900  0.48480  Biso   1.000  O
  O10      1.0000 0.65880  0.38900  0.01520  Biso   1.000  O
  O11      1.0000 0.15880  0.11100  0.51520  Biso   1.000  O
  O12      1.0000 0.34120  0.61100  0.98480  Biso   1.000  O
  C33      1.0000 0.92300  0.93590  0.57730  Biso   1.000  C
  C34      1.0000 0.57700  0.43590  0.92270  Biso   1.000  C
  C35      1.0000 0.07700  0.06410  0.42270  Biso   1.000  C
  C36      1.0000 0.42300  0.56410  0.07730  Biso   1.000  C
  H25      1.0000 0.00610  0.99530  0.54920  Biso   1.000  H
  H26      1.0000 0.49390  0.49530  0.95080  Biso   1.000  H
  H27      1.0000 0.99390  0.00470  0.45080  Biso   1.000  H
  H28      1.0000 0.50610  0.50470  0.04920  Biso   1.000  H
  H29      1.0000 0.97540  0.86630  0.62120  Biso   1.000  H
  H30      1.0000 0.52460  0.36630  0.87880  Biso   1.000  H
  H31      1.0000 0.02460  0.13370  0.37880  Biso   1.000  H
  H32      1.0000 0.47540  0.63370  0.12120  Biso   1.000  H
  H33      1.0000 0.84790  0.98090  0.62960  Biso   1.000  H
  H34      1.0000 0.65210  0.48090  0.87040  Biso   1.000  H
  H35      1.0000 0.15210  0.01910  0.37040  Biso   1.000  H
  H36      1.0000 0.34790  0.51910  0.12960  Biso   1.000  H
  C37      1.0000 0.18690  0.57290  0.98210  Biso   1.000  C
  C38      1.0000 0.31310  0.07290  0.51790  Biso   1.000  C
  C39      1.0000 0.81310  0.42710  0.01790  Biso   1.000  C
  C40      1.0000 0.68690  0.92710  0.48210  Biso   1.000  C
  H37      1.0000 0.21480  0.65580  0.01660  Biso   1.000  H
  H38      1.0000 0.28520  0.15580  0.48340  Biso   1.000  H
  H39      1.0000 0.78520  0.34420  0.98340  Biso   1.000  H
  H40      1.0000 0.71480  0.84420  0.51660  Biso   1.000  H
  H41      1.0000 0.27580  0.54390  0.93150  Biso   1.000  H
  H42      1.0000 0.22420  0.04390  0.56850  Biso   1.000  H
  H43      1.0000 0.72420  0.45610  0.06850  Biso   1.000  H
  H44      1.0000 0.77580  0.95610  0.43150  Biso   1.000  H
  H45      1.0000 0.16980  0.51110  0.04590  Biso   1.000  H
  H46      1.0000 0.33020  0.01110  0.45410  Biso   1.000  H
  H47      1.0000 0.83020  0.48890  0.95410  Biso   1.000  H
  H48      1.0000 0.66980  0.98890  0.54590  Biso   1.000  H
  O13      1.0000 0.04000  0.58500  0.91200  Biso   1.000  O
  O14      1.0000 0.46000  0.08500  0.58800  Biso   1.000  O
  O15      1.0000 0.96000  0.41500  0.08800  Biso   1.000  O
  O16      1.0000 0.54000  0.91500  0.41200  Biso   1.000  O
