data_image0
_cell_length_a       9.5342
_cell_length_b       19.6392
_cell_length_c       7.019
_cell_angle_alpha    90
_cell_angle_beta     94.9956
_cell_angle_gamma    90

_symmetry_space_group_name_H-M    "P 1"
_symmetry_int_tables_number       1

loop_
  _symmetry_equiv_pos_as_xyz
  'x, y, z'

loop_
  _atom_site_label
  _atom_site_occupancy
  _atom_site_fract_x
  _atom_site_fract_y
  _atom_site_fract_z
  _atom_site_thermal_displace_type
  _atom_site_B_iso_or_equiv
  _atom_site_type_symbol
  Cu1      1.0000 0.01656  0.72670  0.71715  Biso   1.000  Cu
  Cu2      1.0000 0.98344  0.22670  0.78285  Biso   1.000  Cu
  Cu3      1.0000 0.98344  0.27330  0.28285  Biso   1.000  Cu
  Cu4      1.0000 0.01656  0.77330  0.21715  Biso   1.000  Cu
  N1       1.0000 0.87070  0.65537  0.63280  Biso   1.000  N
  N2       1.0000 0.12930  0.15537  0.86720  Biso   1.000  N
  N3       1.0000 0.12930  0.34463  0.36720  Biso   1.000  N
  N4       1.0000 0.87070  0.84463  0.13280  Biso   1.000  N
  N5       1.0000 0.13090  0.64034  0.78680  Biso   1.000  N
  N6       1.0000 0.86910  0.14034  0.71320  Biso   1.000  N
  N7       1.0000 0.86910  0.35966  0.21320  Biso   1.000  N
  N8       1.0000 0.13090  0.85966  0.28680  Biso   1.000  N
  C1       1.0000 0.46880  0.58537  0.03560  Biso   1.000  C
  C2       1.0000 0.53120  0.08537  0.46440  Biso   1.000  C
  C3       1.0000 0.53120  0.41463  0.96440  Biso   1.000  C
  C4       1.0000 0.46880  0.91463  0.53560  Biso   1.000  C
  H1       1.0000 0.50830  0.55000  0.11030  Biso   1.000  H
  H2       1.0000 0.49170  0.05000  0.38970  Biso   1.000  H
  H3       1.0000 0.49170  0.45000  0.88970  Biso   1.000  H
  H4       1.0000 0.50830  0.95000  0.61030  Biso   1.000  H
  N9       1.0000 0.12190  0.71847  0.41340  Biso   1.000  N
  N10      1.0000 0.87810  0.21847  0.08660  Biso   1.000  N
  N11      1.0000 0.87810  0.28153  0.58660  Biso   1.000  N
  N12      1.0000 0.12190  0.78153  0.91340  Biso   1.000  N
  N13      1.0000 0.19730  0.67045  0.39080  Biso   1.000  N
  N14      1.0000 0.80270  0.17045  0.10920  Biso   1.000  N
  N15      1.0000 0.80270  0.32955  0.60920  Biso   1.000  N
  N16      1.0000 0.19730  0.82955  0.89080  Biso   1.000  N
  N17      1.0000 0.27220  0.62497  0.38030  Biso   1.000  N
  N18      1.0000 0.72780  0.12497  0.11970  Biso   1.000  N
  N19      1.0000 0.72780  0.37503  0.61970  Biso   1.000  N
  N20      1.0000 0.27220  0.87503  0.88030  Biso   1.000  N
  N21      1.0000 0.90230  0.80032  0.59980  Biso   1.000  N
  N22      1.0000 0.09770  0.30032  0.90020  Biso   1.000  N
  N23      1.0000 0.09770  0.19968  0.40020  Biso   1.000  N
  N24      1.0000 0.90230  0.69968  0.09980  Biso   1.000  N
  N25      1.0000 0.91730  0.85954  0.63460  Biso   1.000  N
  N26      1.0000 0.08270  0.35954  0.86540  Biso   1.000  N
  N27      1.0000 0.08270  0.14046  0.36540  Biso   1.000  N
  N28      1.0000 0.91730  0.64046  0.13460  Biso   1.000  N
  N29      1.0000 0.92610  0.91716  0.65950  Biso   1.000  N
  N30      1.0000 0.07390  0.41716  0.84050  Biso   1.000  N
  N31      1.0000 0.07390  0.08284  0.34050  Biso   1.000  N
  N32      1.0000 0.92610  0.58284  0.15950  Biso   1.000  N
  C5       1.0000 0.74100  0.66455  0.55380  Biso   1.000  C
  C6       1.0000 0.25900  0.16455  0.94620  Biso   1.000  C
  C7       1.0000 0.25900  0.33545  0.44620  Biso   1.000  C
  C8       1.0000 0.74100  0.83545  0.05380  Biso   1.000  C
  H5       1.0000 0.70970  0.70870  0.52730  Biso   1.000  H
  H6       1.0000 0.29030  0.20870  0.97270  Biso   1.000  H
  H7       1.0000 0.29030  0.29130  0.47270  Biso   1.000  H
  H8       1.0000 0.70970  0.79130  0.02730  Biso   1.000  H
  C9       1.0000 0.64980  0.61064  0.50910  Biso   1.000  C
  C10      1.0000 0.35020  0.11064  0.99090  Biso   1.000  C
  C11      1.0000 0.35020  0.38936  0.49090  Biso   1.000  C
  C12      1.0000 0.64980  0.88936  0.00910  Biso   1.000  C
  H9       1.0000 0.55910  0.61860  0.45370  Biso   1.000  H
  H10      1.0000 0.44090  0.11860  0.04630  Biso   1.000  H
  H11      1.0000 0.44090  0.38140  0.54630  Biso   1.000  H
  H12      1.0000 0.55910  0.88140  0.95370  Biso   1.000  H
  C13      1.0000 0.69520  0.54568  0.54780  Biso   1.000  C
  C14      1.0000 0.30480  0.04568  0.95220  Biso   1.000  C
  C15      1.0000 0.30480  0.45432  0.45220  Biso   1.000  C
  C16      1.0000 0.69520  0.95432  0.04780  Biso   1.000  C
  H13      1.0000 0.63600  0.50880  0.51860  Biso   1.000  H
  H14      1.0000 0.36400  0.00880  0.98140  Biso   1.000  H
  H15      1.0000 0.36400  0.49120  0.48140  Biso   1.000  H
  H16      1.0000 0.63600  0.99120  0.01860  Biso   1.000  H
  C17      1.0000 0.83030  0.53556  0.63080  Biso   1.000  C
  C18      1.0000 0.16970  0.03556  0.86920  Biso   1.000  C
  C19      1.0000 0.16970  0.46444  0.36920  Biso   1.000  C
  C20      1.0000 0.83030  0.96444  0.13080  Biso   1.000  C
  H17      1.0000 0.86380  0.49190  0.65940  Biso   1.000  H
  H18      1.0000 0.13620  0.99190  0.84060  Biso   1.000  H
  H19      1.0000 0.13620  0.50810  0.34060  Biso   1.000  H
  H20      1.0000 0.86380  0.00810  0.15940  Biso   1.000  H
  C21      1.0000 0.91370  0.59151  0.66980  Biso   1.000  C
  C22      1.0000 0.08630  0.09151  0.83020  Biso   1.000  C
  C23      1.0000 0.08630  0.40849  0.33020  Biso   1.000  C
  C24      1.0000 0.91370  0.90849  0.16980  Biso   1.000  C
  C25      1.0000 0.06070  0.58590  0.75210  Biso   1.000  C
  C26      1.0000 0.93930  0.08590  0.74790  Biso   1.000  C
  C27      1.0000 0.93930  0.41410  0.24790  Biso   1.000  C
  C28      1.0000 0.06070  0.91410  0.25210  Biso   1.000  C
  H21      1.0000 0.10140  0.54350  0.77820  Biso   1.000  H
  H22      1.0000 0.89860  0.04350  0.72180  Biso   1.000  H
  H23      1.0000 0.89860  0.45650  0.22180  Biso   1.000  H
  H24      1.0000 0.10140  0.95650  0.27820  Biso   1.000  H
  C29      1.0000 0.27580  0.63714  0.85800  Biso   1.000  C
  C30      1.0000 0.72420  0.13714  0.64200  Biso   1.000  C
  C31      1.0000 0.72420  0.36286  0.14200  Biso   1.000  C
  C32      1.0000 0.27580  0.86286  0.35800  Biso   1.000  C
  C33      1.0000 0.33080  0.58438  0.97240  Biso   1.000  C
  C34      1.0000 0.66920  0.08438  0.52760  Biso   1.000  C
  C35      1.0000 0.66920  0.41562  0.02760  Biso   1.000  C
  C36      1.0000 0.33080  0.91562  0.47240  Biso   1.000  C
  H25      1.0000 0.27340  0.54870  0.00540  Biso   1.000  H
  H26      1.0000 0.72660  0.04870  0.49460  Biso   1.000  H
  H27      1.0000 0.72660  0.45130  0.99460  Biso   1.000  H
  H28      1.0000 0.27340  0.95130  0.50540  Biso   1.000  H
  C37      1.0000 0.36370  0.68946  0.81400  Biso   1.000  C
  C38      1.0000 0.63630  0.18946  0.68600  Biso   1.000  C
  C39      1.0000 0.63630  0.31054  0.18600  Biso   1.000  C
  C40      1.0000 0.36370  0.81054  0.31400  Biso   1.000  C
  H29      1.0000 0.32630  0.72470  0.73680  Biso   1.000  H
  H30      1.0000 0.67370  0.22470  0.76320  Biso   1.000  H
  H31      1.0000 0.67370  0.27530  0.26320  Biso   1.000  H
  H32      1.0000 0.32630  0.77530  0.23680  Biso   1.000  H
  N33      1.0000 0.50120  0.69206  0.87760  Biso   1.000  N
  N34      1.0000 0.49880  0.19206  0.62240  Biso   1.000  N
  N35      1.0000 0.49880  0.30794  0.12240  Biso   1.000  N
  N36      1.0000 0.50120  0.80794  0.37760  Biso   1.000  N
  C41      1.0000 0.54840  0.63870  0.98850  Biso   1.000  C
  C42      1.0000 0.45160  0.13870  0.51150  Biso   1.000  C
  C43      1.0000 0.45160  0.36130  0.01150  Biso   1.000  C
  C44      1.0000 0.54840  0.86130  0.48850  Biso   1.000  C
  H33      1.0000 0.64260  0.63880  0.03550  Biso   1.000  H
  H34      1.0000 0.35740  0.13880  0.46450  Biso   1.000  H
  H35      1.0000 0.35740  0.36120  0.96450  Biso   1.000  H
  H36      1.0000 0.64260  0.86120  0.53550  Biso   1.000  H
