data_image0
_cell_length_a       8.2896
_cell_length_b       10.1177
_cell_length_c       11.5102
_cell_angle_alpha    90
_cell_angle_beta     90.944
_cell_angle_gamma    90

_symmetry_space_group_name_H-M    "P 1"
_symmetry_int_tables_number       1

loop_
  _symmetry_equiv_pos_as_xyz
  'x, y, z'

loop_
  _atom_site_label
  _atom_site_occupancy
  _atom_site_fract_x
  _atom_site_fract_y
  _atom_site_fract_z
  _atom_site_thermal_displace_type
  _atom_site_B_iso_or_equiv
  _atom_site_type_symbol
  Cu1      1.0000 0.00000  0.50000  0.00000  Biso   1.000  Cu
  Cu2      1.0000 0.50000  0.00000  0.50000  Biso   1.000  Cu
  O1       1.0000 0.19697  0.59073  0.13693  Biso   1.000  O
  O2       1.0000 0.30303  0.09073  0.36307  Biso   1.000  O
  O3       1.0000 0.80303  0.40927  0.86307  Biso   1.000  O
  O4       1.0000 0.69697  0.90927  0.63693  Biso   1.000  O
  N1       1.0000 0.81101  0.56436  0.09049  Biso   1.000  N
  N2       1.0000 0.68899  0.06436  0.40951  Biso   1.000  N
  N3       1.0000 0.18899  0.43564  0.90951  Biso   1.000  N
  N4       1.0000 0.31101  0.93564  0.59049  Biso   1.000  N
  C1       1.0000 0.22940  0.66440  0.21949  Biso   1.000  C
  C2       1.0000 0.27060  0.16440  0.28051  Biso   1.000  C
  C3       1.0000 0.77060  0.33560  0.78051  Biso   1.000  C
  C4       1.0000 0.72940  0.83560  0.71949  Biso   1.000  C
  H1       1.0000 0.14400  0.70500  0.26110  Biso   1.000  H
  H2       1.0000 0.35600  0.20500  0.23890  Biso   1.000  H
  H3       1.0000 0.85600  0.29500  0.73890  Biso   1.000  H
  H4       1.0000 0.64400  0.79500  0.76110  Biso   1.000  H
  H5       1.0000 0.28200  0.81800  0.37910  Biso   1.000  H
  H6       1.0000 0.21800  0.31800  0.12090  Biso   1.000  H
  H7       1.0000 0.71800  0.18200  0.62090  Biso   1.000  H
  H8       1.0000 0.78200  0.68200  0.87910  Biso   1.000  H
  O5       1.0000 0.51011  0.83527  0.40793  Biso   1.000  O
  O6       1.0000 0.98989  0.33527  0.09207  Biso   1.000  O
  O7       1.0000 0.48989  0.16473  0.59207  Biso   1.000  O
  O8       1.0000 0.01011  0.66473  0.90793  Biso   1.000  O
  N5       1.0000 0.51660  0.17790  0.04690  Biso   1.000  N
  N6       1.0000 0.98340  0.67790  0.45310  Biso   1.000  N
  N7       1.0000 0.48340  0.82210  0.95310  Biso   1.000  N
  N8       1.0000 0.01660  0.32210  0.54690  Biso   1.000  N
  C5       1.0000 0.38670  0.70103  0.26203  Biso   1.000  C
  C6       1.0000 0.11330  0.20103  0.23797  Biso   1.000  C
  C7       1.0000 0.61330  0.29897  0.73797  Biso   1.000  C
  C8       1.0000 0.88670  0.79897  0.76203  Biso   1.000  C
  C9       1.0000 0.38630  0.79012  0.35444  Biso   1.000  C
  C10      1.0000 0.11370  0.29012  0.14556  Biso   1.000  C
  C11      1.0000 0.61370  0.20988  0.64556  Biso   1.000  C
  C12      1.0000 0.88630  0.70988  0.85444  Biso   1.000  C
  C13      1.0000 0.53470  0.65200  0.20801  Biso   1.000  C
  C14      1.0000 0.96530  0.15200  0.29199  Biso   1.000  C
  C15      1.0000 0.46530  0.34800  0.79199  Biso   1.000  C
  C16      1.0000 0.03470  0.84800  0.70801  Biso   1.000  C
  C17      1.0000 0.54230  0.52703  0.15704  Biso   1.000  C
  C18      1.0000 0.95770  0.02703  0.34296  Biso   1.000  C
  C19      1.0000 0.45770  0.47297  0.84296  Biso   1.000  C
  C20      1.0000 0.04230  0.97297  0.65704  Biso   1.000  C
  H9       1.0000 0.45400  0.46800  0.16100  Biso   1.000  H
  H10      1.0000 0.04600  0.96800  0.33900  Biso   1.000  H
  H11      1.0000 0.54600  0.53200  0.83900  Biso   1.000  H
  H12      1.0000 0.95400  0.03200  0.66100  Biso   1.000  H
  C21      1.0000 0.67970  0.48723  0.10026  Biso   1.000  C
  C22      1.0000 0.82030  0.98723  0.39974  Biso   1.000  C
  C23      1.0000 0.32030  0.51277  0.89974  Biso   1.000  C
  C24      1.0000 0.17970  0.01277  0.60026  Biso   1.000  C
  H13      1.0000 0.68500  0.40370  0.06500  Biso   1.000  H
  H14      1.0000 0.81500  0.90370  0.43500  Biso   1.000  H
  H15      1.0000 0.31500  0.59630  0.93500  Biso   1.000  H
  H16      1.0000 0.18500  0.09630  0.56500  Biso   1.000  H
  H17      1.0000 0.67900  0.81300  0.23140  Biso   1.000  H
  H18      1.0000 0.82100  0.31300  0.26860  Biso   1.000  H
  H19      1.0000 0.32100  0.18700  0.76860  Biso   1.000  H
  H20      1.0000 0.17900  0.68700  0.73140  Biso   1.000  H
  C25      1.0000 0.80650  0.68382  0.14170  Biso   1.000  C
  C26      1.0000 0.69350  0.18382  0.35830  Biso   1.000  C
  C27      1.0000 0.19350  0.31618  0.85830  Biso   1.000  C
  C28      1.0000 0.30650  0.81618  0.64170  Biso   1.000  C
  H21      1.0000 0.90200  0.73900  0.13160  Biso   1.000  H
  H22      1.0000 0.59800  0.23900  0.36840  Biso   1.000  H
  H23      1.0000 0.09800  0.26100  0.86840  Biso   1.000  H
  H24      1.0000 0.40200  0.76100  0.63160  Biso   1.000  H
  C29      1.0000 0.67460  0.73012  0.20066  Biso   1.000  C
  C30      1.0000 0.82540  0.23012  0.29934  Biso   1.000  C
  C31      1.0000 0.32540  0.26988  0.79934  Biso   1.000  C
  C32      1.0000 0.17460  0.76988  0.70066  Biso   1.000  C
  C33      1.0000 0.63380  0.12480  0.02450  Biso   1.000  C
  C34      1.0000 0.86620  0.62480  0.47550  Biso   1.000  C
  C35      1.0000 0.36620  0.87520  0.97550  Biso   1.000  C
  C36      1.0000 0.13380  0.37520  0.52450  Biso   1.000  C
  C37      1.0000 0.78390  0.05940  0.99510  Biso   1.000  C
  C38      1.0000 0.71610  0.55940  0.50490  Biso   1.000  C
  C39      1.0000 0.21610  0.94060  0.00490  Biso   1.000  C
  C40      1.0000 0.28390  0.44060  0.49510  Biso   1.000  C
  H25      1.0000 0.79070  0.05150  0.91230  Biso   1.000  H
  H26      1.0000 0.70930  0.55150  0.58770  Biso   1.000  H
  H27      1.0000 0.20930  0.94850  0.08770  Biso   1.000  H
  H28      1.0000 0.29070  0.44850  0.41230  Biso   1.000  H
  H29      1.0000 0.78660  0.97300  0.02960  Biso   1.000  H
  H30      1.0000 0.71340  0.47300  0.47040  Biso   1.000  H
  H31      1.0000 0.21340  0.02700  0.97040  Biso   1.000  H
  H32      1.0000 0.28660  0.52700  0.52960  Biso   1.000  H
  H33      1.0000 0.87340  0.11050  0.02420  Biso   1.000  H
  H34      1.0000 0.62660  0.61050  0.47580  Biso   1.000  H
  H35      1.0000 0.12660  0.88950  0.97580  Biso   1.000  H
  H36      1.0000 0.37340  0.38950  0.52420  Biso   1.000  H
