data_image0
_cell_length_a       8.5213
_cell_length_b       12.9489
_cell_length_c       13.3149
_cell_angle_alpha    68.372
_cell_angle_beta     82.029
_cell_angle_gamma    89.978

_symmetry_space_group_name_H-M    "P 1"
_symmetry_int_tables_number       1

loop_
  _symmetry_equiv_pos_as_xyz
  'x, y, z'

loop_
  _atom_site_label
  _atom_site_occupancy
  _atom_site_fract_x
  _atom_site_fract_y
  _atom_site_fract_z
  _atom_site_thermal_displace_type
  _atom_site_B_iso_or_equiv
  _atom_site_type_symbol
  C1       1.0000 0.02970  0.14790  0.55090  Biso   1.000  C
  C2       1.0000 0.06740  0.06840  0.50410  Biso   1.000  C
  H1       1.0000 0.06800  0.99350  0.54800  Biso   1.000  H
  C3       1.0000 0.10330  0.10260  0.39290  Biso   1.000  C
  H2       1.0000 0.13210  0.05080  0.36130  Biso   1.000  H
  C4       1.0000 0.09730  0.21490  0.32600  Biso   1.000  C
  H3       1.0000 0.12230  0.23850  0.25040  Biso   1.000  H
  C5       1.0000 0.05500  0.28620  0.37330  Biso   1.000  C
  H4       1.0000 0.04890  0.36030  0.32840  Biso   1.000  H
  C6       1.0000 0.01990  0.25900  0.48300  Biso   1.000  C
  C7       1.0000 0.95510  0.34200  0.52860  Biso   1.000  C
  H5       1.0000 0.84330  0.32210  0.55580  Biso   1.000  H
  H6       1.0000 0.96250  0.41390  0.46920  Biso   1.000  H
  C8       1.0000 0.17360  0.43190  0.58230  Biso   1.000  C
  H7       1.0000 0.23290  0.42380  0.51740  Biso   1.000  H
  C9       1.0000 0.12880  0.55300  0.55020  Biso   1.000  C
  H8       1.0000 0.09240  0.56570  0.61680  Biso   1.000  H
  H9       1.0000 0.03940  0.56230  0.51040  Biso   1.000  H
  C10      1.0000 0.25660  0.64430  0.48110  Biso   1.000  C
  H10      1.0000 0.35230  0.62920  0.51620  Biso   1.000  H
  C11      1.0000 0.29900  0.64130  0.36450  Biso   1.000  C
  H11      1.0000 0.20330  0.64330  0.33320  Biso   1.000  H
  H12      1.0000 0.35060  0.57410  0.36930  Biso   1.000  H
  H13      1.0000 0.36830  0.70440  0.31920  Biso   1.000  H
  C12      1.0000 0.20410  0.75790  0.47650  Biso   1.000  C
  H14      1.0000 0.11210  0.77550  0.44040  Biso   1.000  H
  H15      1.0000 0.28830  0.81300  0.43680  Biso   1.000  H
  H16      1.0000 0.17870  0.75680  0.54940  Biso   1.000  H
  C13      1.0000 0.27770  0.39750  0.67080  Biso   1.000  C
  C14      1.0000 0.11010  0.03820  0.94700  Biso   1.000  C
  C15      1.0000 0.09920  0.11580  0.99590  Biso   1.000  C
  H17      1.0000 0.09190  0.19040  0.95340  Biso   1.000  H
  C16      1.0000 0.09900  0.08440  0.10670  Biso   1.000  C
  H18      1.0000 0.08530  0.13700  0.13900  Biso   1.000  H
  C17      1.0000 0.11930  0.97440  0.16980  Biso   1.000  C
  H19      1.0000 0.12770  0.95380  0.24350  Biso   1.000  H
  C18      1.0000 0.12670  0.89750  0.12350  Biso   1.000  C
  H20      1.0000 0.12980  0.82300  0.16780  Biso   1.000  H
  C19      1.0000 0.13000  0.92590  0.01070  Biso   1.000  C
  C20      1.0000 0.14090  0.83670  0.96540  Biso   1.000  C
  H21      1.0000 0.14230  0.76460  0.02350  Biso   1.000  H
  H22      1.0000 0.23740  0.84850  0.91360  Biso   1.000  H
  C21      1.0000 0.96900  0.74360  0.87690  Biso   1.000  C
  H23      1.0000 0.06890  0.73160  0.83750  Biso   1.000  H
  C22      1.0000 0.91800  0.63490  0.97300  Biso   1.000  C
  H24      1.0000 0.97640  0.63200  0.03150  Biso   1.000  H
  H25      1.0000 0.80650  0.63770  0.99900  Biso   1.000  H
  C23      1.0000 0.93900  0.52990  0.95430  Biso   1.000  C
  C24      1.0000 0.99340  0.51850  0.86350  Biso   1.000  C
  H26      1.0000 0.02460  0.58100  0.80070  Biso   1.000  H
  H27      1.0000 0.00140  0.44780  0.86110  Biso   1.000  H
  C25      1.0000 0.92200  0.43490  0.06280  Biso   1.000  C
  H28      1.0000 0.88440  0.36870  0.05500  Biso   1.000  H
  H29      1.0000 0.84680  0.45210  0.11460  Biso   1.000  H
  H30      1.0000 0.02260  0.42320  0.08830  Biso   1.000  H
  C26      1.0000 0.85280  0.78790  0.79250  Biso   1.000  C
  C27      1.0000 0.45130  0.53890  0.94240  Biso   1.000  C
  C28      1.0000 0.47400  0.62080  0.98490  Biso   1.000  C
  H31      1.0000 0.49620  0.69440  0.93770  Biso   1.000  H
  C29      1.0000 0.46380  0.59380  0.09530  Biso   1.000  C
  H32      1.0000 0.47200  0.65010  0.12230  Biso   1.000  H
  C30      1.0000 0.44160  0.48490  0.16670  Biso   1.000  C
  H33      1.0000 0.44460  0.46610  0.24090  Biso   1.000  H
  C31      1.0000 0.41470  0.40450  0.12550  Biso   1.000  C
  H34      1.0000 0.39520  0.33120  0.17410  Biso   1.000  H
  C32      1.0000 0.41520  0.42740  0.01350  Biso   1.000  C
  C33      1.0000 0.36390  0.33880  0.97440  Biso   1.000  C
  H35      1.0000 0.34750  0.26850  0.03610  Biso   1.000  H
  H36      1.0000 0.26280  0.35720  0.94850  Biso   1.000  H
  C34      1.0000 0.60390  0.25000  0.92290  Biso   1.000  C
  H37      1.0000 0.63460  0.26350  0.98540  Biso   1.000  H
  C35      1.0000 0.54660  0.12790  0.96480  Biso   1.000  C
  H38      1.0000 0.54820  0.10520  0.90300  Biso   1.000  H
  H39      1.0000 0.43740  0.12040  0.00010  Biso   1.000  H
  C36      1.0000 0.64770  0.04740  0.04750  Biso   1.000  C
  H40      1.0000 0.76100  0.06810  0.02210  Biso   1.000  H
  C37      1.0000 0.60700  0.92620  0.04560  Biso   1.000  C
  H41      1.0000 0.51620  0.89130  0.09920  Biso   1.000  H
  H42      1.0000 0.69630  0.88090  0.06190  Biso   1.000  H
  H43      1.0000 0.58440  0.93440  0.97450  Biso   1.000  H
  C38      1.0000 0.59800  0.06040  0.15910  Biso   1.000  C
  H44      1.0000 0.54520  0.12840  0.14750  Biso   1.000  H
  H45      1.0000 0.69110  0.06230  0.19200  Biso   1.000  H
  H46      1.0000 0.52790  0.99860  0.20660  Biso   1.000  H
  C39      1.0000 0.74550  0.28480  0.83520  Biso   1.000  C
  C40      1.0000 0.69110  0.63210  0.54450  Biso   1.000  C
  C41      1.0000 0.69150  0.55370  0.49960  Biso   1.000  C
  H47      1.0000 0.66040  0.48060  0.54470  Biso   1.000  H
  C42      1.0000 0.73740  0.57920  0.38670  Biso   1.000  C
  H48      1.0000 0.73680  0.52370  0.35800  Biso   1.000  H
  C43      1.0000 0.78360  0.68890  0.31890  Biso   1.000  C
  H49      1.0000 0.81510  0.70770  0.24430  Biso   1.000  H
  C44      1.0000 0.78200  0.76770  0.36340  Biso   1.000  C
  H50      1.0000 0.81220  0.84070  0.31760  Biso   1.000  H
  C45      1.0000 0.73620  0.74410  0.47700  Biso   1.000  C
  C46      1.0000 0.72930  0.83470  0.52110  Biso   1.000  C
  H51      1.0000 0.80500  0.82330  0.57180  Biso   1.000  H
  H52      1.0000 0.75640  0.90600  0.46190  Biso   1.000  H
  C47      1.0000 0.52850  0.93260  0.60930  Biso   1.000  C
  H53      1.0000 0.61350  0.94530  0.64670  Biso   1.000  H
  C48      1.0000 0.51400  0.04180  0.51100  Biso   1.000  C
  H54      1.0000 0.58990  0.04330  0.44900  Biso   1.000  H
  H55      1.0000 0.40870  0.04190  0.49120  Biso   1.000  H
  C49      1.0000 0.54260  0.14590  0.53380  Biso   1.000  C
  C50      1.0000 0.54250  0.15930  0.62910  Biso   1.000  C
  H56      1.0000 0.52250  0.09830  0.69450  Biso   1.000  H
  H57      1.0000 0.56240  0.22970  0.62960  Biso   1.000  H
  C51      1.0000 0.56800  0.24500  0.42260  Biso   1.000  C
  H58      1.0000 0.46910  0.25880  0.39410  Biso   1.000  H
  H59      1.0000 0.64490  0.22760  0.37230  Biso   1.000  H
  H60      1.0000 0.60490  0.31010  0.43260  Biso   1.000  H
  C52      1.0000 0.37630  0.89570  0.69290  Biso   1.000  C
  Cu1      1.0000 0.07270  0.21350  0.73210  Biso   1.000  Cu
  Cu2      1.0000 0.01690  0.97460  0.77320  Biso   1.000  Cu
  Cu3      1.0000 0.56480  0.46390  0.76540  Biso   1.000  Cu
  Cu4      1.0000 0.52780  0.70380  0.71490  Biso   1.000  Cu
  N1       1.0000 0.03180  0.35480  0.61810  Biso   1.000  N
  H61      1.0000 0.95280  0.38900  0.65510  Biso   1.000  H
  N2       1.0000 0.00000  0.84120  0.91020  Biso   1.000  N
  H62      1.0000 0.90630  0.84670  0.95930  Biso   1.000  H
  N3       1.0000 0.47730  0.32370  0.88600  Biso   1.000  N
  H63      1.0000 0.41420  0.28600  0.85210  Biso   1.000  H
  N4       1.0000 0.56890  0.83380  0.57700  Biso   1.000  N
  H64      1.0000 0.49360  0.82810  0.52970  Biso   1.000  H
  O1       1.0000 0.99300  0.11780  0.66050  Biso   1.000  O
  O2       1.0000 0.39060  0.45910  0.66160  Biso   1.000  O
  O3       1.0000 0.24130  0.30340  0.75180  Biso   1.000  O
  O4       1.0000 0.11060  0.06960  0.83800  Biso   1.000  O
  O5       1.0000 0.75070  0.72300  0.78850  Biso   1.000  O
  O6       1.0000 0.87450  0.88980  0.72910  Biso   1.000  O
  O7       1.0000 0.45780  0.56180  0.83500  Biso   1.000  O
  O8       1.0000 0.85470  0.21660  0.83880  Biso   1.000  O
  O9       1.0000 0.74080  0.37150  0.75120  Biso   1.000  O
  O10      1.0000 0.64740  0.60730  0.65040  Biso   1.000  O
  O11      1.0000 0.26970  0.95720  0.69390  Biso   1.000  O
  O12      1.0000 0.36620  0.79070  0.75530  Biso   1.000  O
