data_image0
_cell_length_a       17.5697
_cell_length_b       12.2799
_cell_length_c       9.0323
_cell_angle_alpha    90
_cell_angle_beta     113.849
_cell_angle_gamma    90

_symmetry_space_group_name_H-M    "P 1"
_symmetry_int_tables_number       1

loop_
  _symmetry_equiv_pos_as_xyz
  'x, y, z'

loop_
  _atom_site_label
  _atom_site_occupancy
  _atom_site_fract_x
  _atom_site_fract_y
  _atom_site_fract_z
  _atom_site_thermal_displace_type
  _atom_site_B_iso_or_equiv
  _atom_site_type_symbol
  Cu1      1.0000 0.50000  0.99950  0.50000  Biso   1.000  Cu
  Cu2      1.0000 0.00000  0.49950  0.50000  Biso   1.000  Cu
  F1       1.0000 0.40183  0.00190  0.63480  Biso   1.000  F
  F2       1.0000 0.59817  0.00190  0.36520  Biso   1.000  F
  F3       1.0000 0.90183  0.50190  0.63480  Biso   1.000  F
  F4       1.0000 0.09817  0.50190  0.36520  Biso   1.000  F
  N1       1.0000 0.43300  0.11720  0.34770  Biso   1.000  N
  N2       1.0000 0.56700  0.11720  0.65230  Biso   1.000  N
  N3       1.0000 0.93300  0.61720  0.34770  Biso   1.000  N
  N4       1.0000 0.06700  0.61720  0.65230  Biso   1.000  N
  N5       1.0000 0.43200  0.88090  0.34360  Biso   1.000  N
  N6       1.0000 0.56800  0.88090  0.65640  Biso   1.000  N
  N7       1.0000 0.93200  0.38090  0.34360  Biso   1.000  N
  N8       1.0000 0.06800  0.38090  0.65640  Biso   1.000  N
  B1       1.0000 0.35110  0.01390  0.71810  Biso   1.000  B
  B2       1.0000 0.64890  0.01390  0.28190  Biso   1.000  B
  B3       1.0000 0.85110  0.51390  0.71810  Biso   1.000  B
  B4       1.0000 0.14890  0.51390  0.28190  Biso   1.000  B
  C1       1.0000 0.38080  0.17680  0.38520  Biso   1.000  C
  C2       1.0000 0.61920  0.17680  0.61480  Biso   1.000  C
  C3       1.0000 0.88080  0.67680  0.38520  Biso   1.000  C
  C4       1.0000 0.11920  0.67680  0.61480  Biso   1.000  C
  C5       1.0000 0.44100  0.14710  0.21180  Biso   1.000  C
  C6       1.0000 0.55900  0.14710  0.78820  Biso   1.000  C
  C7       1.0000 0.94100  0.64710  0.21180  Biso   1.000  C
  C8       1.0000 0.05900  0.64710  0.78820  Biso   1.000  C
  C9       1.0000 0.44450  0.85480  0.21350  Biso   1.000  C
  C10      1.0000 0.55550  0.85480  0.78650  Biso   1.000  C
  C11      1.0000 0.94450  0.35480  0.21350  Biso   1.000  C
  C12      1.0000 0.05550  0.35480  0.78650  Biso   1.000  C
  C13      1.0000 0.37570  0.82140  0.37860  Biso   1.000  C
  C14      1.0000 0.62430  0.82140  0.62140  Biso   1.000  C
  C15      1.0000 0.87570  0.32140  0.37860  Biso   1.000  C
  C16      1.0000 0.12430  0.32140  0.62140  Biso   1.000  C
  F5       1.0000 0.34210  0.12220  0.73310  Biso   1.000  F
  F6       1.0000 0.65790  0.12220  0.26690  Biso   1.000  F
  F7       1.0000 0.84210  0.62220  0.73310  Biso   1.000  F
  F8       1.0000 0.15790  0.62220  0.26690  Biso   1.000  F
  F9       1.0000 0.27450  0.97580  0.62970  Biso   1.000  F
  F10      1.0000 0.72550  0.97580  0.37030  Biso   1.000  F
  F11      1.0000 0.77450  0.47580  0.62970  Biso   1.000  F
  F12      1.0000 0.22550  0.47580  0.37030  Biso   1.000  F
  F13      1.0000 0.38920  0.97830  0.86920  Biso   1.000  F
  F14      1.0000 0.61080  0.97830  0.13080  Biso   1.000  F
  F15      1.0000 0.88920  0.47830  0.86920  Biso   1.000  F
  F16      1.0000 0.11080  0.47830  0.13080  Biso   1.000  F
  C17      1.0000 0.33810  0.26570  0.29510  Biso   1.000  C
  C18      1.0000 0.66190  0.26570  0.70490  Biso   1.000  C
  C19      1.0000 0.83810  0.76570  0.29510  Biso   1.000  C
  C20      1.0000 0.16190  0.76570  0.70490  Biso   1.000  C
  C21      1.0000 0.39870  0.23020  0.11380  Biso   1.000  C
  C22      1.0000 0.60130  0.23020  0.88620  Biso   1.000  C
  C23      1.0000 0.89870  0.73020  0.11380  Biso   1.000  C
  C24      1.0000 0.10130  0.73020  0.88620  Biso   1.000  C
  C25      1.0000 0.40560  0.76050  0.12100  Biso   1.000  C
  C26      1.0000 0.59440  0.76050  0.87900  Biso   1.000  C
  C27      1.0000 0.90560  0.26050  0.12100  Biso   1.000  C
  C28      1.0000 0.09440  0.26050  0.87900  Biso   1.000  C
  C29      1.0000 0.33270  0.73630  0.28680  Biso   1.000  C
  C30      1.0000 0.66730  0.73630  0.71320  Biso   1.000  C
  C31      1.0000 0.83270  0.23630  0.28680  Biso   1.000  C
  C32      1.0000 0.16730  0.23630  0.71320  Biso   1.000  C
  C33      1.0000 0.34650  0.29730  0.15310  Biso   1.000  C
  C34      1.0000 0.65350  0.29730  0.84690  Biso   1.000  C
  C35      1.0000 0.84650  0.79730  0.15310  Biso   1.000  C
  C36      1.0000 0.15350  0.79730  0.84690  Biso   1.000  C
  C37      1.0000 0.34900  0.70340  0.15870  Biso   1.000  C
  C38      1.0000 0.65100  0.70340  0.84130  Biso   1.000  C
  C39      1.0000 0.84900  0.20340  0.15870  Biso   1.000  C
  C40      1.0000 0.15100  0.20340  0.84130  Biso   1.000  C
  C41      1.0000 0.30440  0.39550  0.05810  Biso   1.000  C
  C42      1.0000 0.69560  0.39550  0.94190  Biso   1.000  C
  C43      1.0000 0.80440  0.89550  0.05810  Biso   1.000  C
  C44      1.0000 0.19560  0.89550  0.94190  Biso   1.000  C
  C45      1.0000 0.30660  0.60190  0.06640  Biso   1.000  C
  C46      1.0000 0.69340  0.60190  0.93360  Biso   1.000  C
  C47      1.0000 0.80660  0.10190  0.06640  Biso   1.000  C
  C48      1.0000 0.19340  0.10190  0.93360  Biso   1.000  C
  C49      1.0000 0.35073  0.49680  0.14880  Biso   1.000  C
  C50      1.0000 0.64927  0.49680  0.85120  Biso   1.000  C
  C51      1.0000 0.85073  0.99680  0.14880  Biso   1.000  C
  C52      1.0000 0.14927  0.99680  0.85120  Biso   1.000  C
