data_image0
_cell_length_a       13.242
_cell_length_b       12.1469
_cell_length_c       6.4947
_cell_angle_alpha    90
_cell_angle_beta     90
_cell_angle_gamma    90

_symmetry_space_group_name_H-M    "P 1"
_symmetry_int_tables_number       1

loop_
  _symmetry_equiv_pos_as_xyz
  'x, y, z'

loop_
  _atom_site_label
  _atom_site_occupancy
  _atom_site_fract_x
  _atom_site_fract_y
  _atom_site_fract_z
  _atom_site_thermal_displace_type
  _atom_site_B_iso_or_equiv
  _atom_site_type_symbol
  Cu1      1.0000 0.00000  0.12161  0.14971  Biso   1.000  Cu
  Cu2      1.0000 0.00000  0.87839  0.64971  Biso   1.000  Cu
  Cu3      1.0000 0.50000  0.62161  0.14971  Biso   1.000  Cu
  Cu4      1.0000 0.50000  0.37839  0.64971  Biso   1.000  Cu
  N1       1.0000 0.00000  0.89160  0.15790  Biso   1.000  N
  N2       1.0000 0.00000  0.10840  0.65790  Biso   1.000  N
  N3       1.0000 0.50000  0.39160  0.15790  Biso   1.000  N
  N4       1.0000 0.50000  0.60840  0.65790  Biso   1.000  N
  N5       1.0000 0.15019  0.12253  0.15160  Biso   1.000  N
  N6       1.0000 0.84981  0.87747  0.65160  Biso   1.000  N
  N7       1.0000 0.84981  0.12253  0.15160  Biso   1.000  N
  N8       1.0000 0.15019  0.87747  0.65160  Biso   1.000  N
  N9       1.0000 0.65019  0.62253  0.15160  Biso   1.000  N
  N10      1.0000 0.34981  0.37747  0.65160  Biso   1.000  N
  N11      1.0000 0.34981  0.62253  0.15160  Biso   1.000  N
  N12      1.0000 0.65019  0.37747  0.65160  Biso   1.000  N
  N13      1.0000 0.00000  0.96380  0.03990  Biso   1.000  N
  N14      1.0000 0.00000  0.03620  0.53990  Biso   1.000  N
  N15      1.0000 0.50000  0.46380  0.03990  Biso   1.000  N
  N16      1.0000 0.50000  0.53620  0.53990  Biso   1.000  N
  C1       1.0000 0.21060  0.19810  0.24360  Biso   1.000  C
  C2       1.0000 0.78940  0.80190  0.74360  Biso   1.000  C
  C3       1.0000 0.78940  0.19810  0.24360  Biso   1.000  C
  C4       1.0000 0.21060  0.80190  0.74360  Biso   1.000  C
  C5       1.0000 0.71060  0.69810  0.24360  Biso   1.000  C
  C6       1.0000 0.28940  0.30190  0.74360  Biso   1.000  C
  C7       1.0000 0.28940  0.69810  0.24360  Biso   1.000  C
  C8       1.0000 0.71060  0.30190  0.74360  Biso   1.000  C
  H1       1.0000 0.18730  0.26230  0.31230  Biso   1.000  H
  H2       1.0000 0.81270  0.73770  0.81230  Biso   1.000  H
  H3       1.0000 0.81270  0.26230  0.31230  Biso   1.000  H
  H4       1.0000 0.18730  0.73770  0.81230  Biso   1.000  H
  H5       1.0000 0.68730  0.76230  0.31230  Biso   1.000  H
  H6       1.0000 0.31270  0.23770  0.81230  Biso   1.000  H
  H7       1.0000 0.31270  0.76230  0.31230  Biso   1.000  H
  H8       1.0000 0.68730  0.23770  0.81230  Biso   1.000  H
  N17      1.0000 0.00000  0.27680  0.26120  Biso   1.000  N
  N18      1.0000 0.00000  0.72320  0.76120  Biso   1.000  N
  N19      1.0000 0.50000  0.77680  0.26120  Biso   1.000  N
  N20      1.0000 0.50000  0.22320  0.76120  Biso   1.000  N
  N21      1.0000 0.00000  0.81830  0.27800  Biso   1.000  N
  N22      1.0000 0.00000  0.18170  0.77800  Biso   1.000  N
  N23      1.0000 0.50000  0.31830  0.27800  Biso   1.000  N
  N24      1.0000 0.50000  0.68170  0.77800  Biso   1.000  N
  C9       1.0000 0.30830  0.16900  0.22350  Biso   1.000  C
  C10      1.0000 0.69170  0.83100  0.72350  Biso   1.000  C
  C11      1.0000 0.69170  0.16900  0.22350  Biso   1.000  C
  C12      1.0000 0.30830  0.83100  0.72350  Biso   1.000  C
  C13      1.0000 0.80830  0.66900  0.22350  Biso   1.000  C
  C14      1.0000 0.19170  0.33100  0.72350  Biso   1.000  C
  C15      1.0000 0.19170  0.66900  0.22350  Biso   1.000  C
  C16      1.0000 0.80830  0.33100  0.72350  Biso   1.000  C
  H9       1.0000 0.36520  0.20800  0.27470  Biso   1.000  H
  H10      1.0000 0.63480  0.79200  0.77470  Biso   1.000  H
  H11      1.0000 0.63480  0.20800  0.27470  Biso   1.000  H
  H12      1.0000 0.36520  0.79200  0.77470  Biso   1.000  H
  H13      1.0000 0.86520  0.70800  0.27470  Biso   1.000  H
  H14      1.0000 0.13480  0.29200  0.77470  Biso   1.000  H
  H15      1.0000 0.13480  0.70800  0.27470  Biso   1.000  H
  H16      1.0000 0.86520  0.29200  0.77470  Biso   1.000  H
  N25      1.0000 0.30960  0.07150  0.11390  Biso   1.000  N
  N26      1.0000 0.69040  0.92850  0.61390  Biso   1.000  N
  N27      1.0000 0.69040  0.07150  0.11390  Biso   1.000  N
  N28      1.0000 0.30960  0.92850  0.61390  Biso   1.000  N
  N29      1.0000 0.80960  0.57150  0.11390  Biso   1.000  N
  N30      1.0000 0.19040  0.42850  0.61390  Biso   1.000  N
  N31      1.0000 0.19040  0.57150  0.11390  Biso   1.000  N
  N32      1.0000 0.80960  0.42850  0.61390  Biso   1.000  N
  H17      1.0000 0.36340  0.03400  0.07630  Biso   1.000  H
  H18      1.0000 0.63660  0.96600  0.57630  Biso   1.000  H
  H19      1.0000 0.63660  0.03400  0.07630  Biso   1.000  H
  H20      1.0000 0.36340  0.96600  0.57630  Biso   1.000  H
  H21      1.0000 0.86340  0.53400  0.07630  Biso   1.000  H
  H22      1.0000 0.13660  0.46600  0.57630  Biso   1.000  H
  H23      1.0000 0.13660  0.53400  0.07630  Biso   1.000  H
  H24      1.0000 0.86340  0.46600  0.57630  Biso   1.000  H
  C17      1.0000 0.21250  0.04470  0.07580  Biso   1.000  C
  C18      1.0000 0.78750  0.95530  0.57580  Biso   1.000  C
  C19      1.0000 0.78750  0.04470  0.07580  Biso   1.000  C
  C20      1.0000 0.21250  0.95530  0.57580  Biso   1.000  C
  C21      1.0000 0.71250  0.54470  0.07580  Biso   1.000  C
  C22      1.0000 0.28750  0.45530  0.57580  Biso   1.000  C
  C23      1.0000 0.28750  0.54470  0.07580  Biso   1.000  C
  C24      1.0000 0.71250  0.45530  0.57580  Biso   1.000  C
  H25      1.0000 0.19110  0.98020  0.00550  Biso   1.000  H
  H26      1.0000 0.80890  0.01980  0.50550  Biso   1.000  H
  H27      1.0000 0.80890  0.98020  0.00550  Biso   1.000  H
  H28      1.0000 0.19110  0.01980  0.50550  Biso   1.000  H
  H29      1.0000 0.69110  0.48020  0.00550  Biso   1.000  H
  H30      1.0000 0.30890  0.51980  0.50550  Biso   1.000  H
  H31      1.0000 0.30890  0.48020  0.00550  Biso   1.000  H
  H32      1.0000 0.69110  0.51980  0.50550  Biso   1.000  H
  N33      1.0000 0.00000  0.42700  0.03900  Biso   1.000  N
  N34      1.0000 0.00000  0.57300  0.53900  Biso   1.000  N
  N35      1.0000 0.50000  0.92700  0.03900  Biso   1.000  N
  N36      1.0000 0.50000  0.07300  0.53900  Biso   1.000  N
  N37      1.0000 0.00000  0.35140  0.14410  Biso   1.000  N
  N38      1.0000 0.00000  0.64860  0.64410  Biso   1.000  N
  N39      1.0000 0.50000  0.85140  0.14410  Biso   1.000  N
  N40      1.0000 0.50000  0.14860  0.64410  Biso   1.000  N
