data_image0
_cell_length_a       26.182
_cell_length_b       12.7579
_cell_length_c       14.2467
_cell_angle_alpha    90
_cell_angle_beta     90
_cell_angle_gamma    90

_symmetry_space_group_name_H-M    "P 1"
_symmetry_int_tables_number       1

loop_
  _symmetry_equiv_pos_as_xyz
  'x, y, z'

loop_
  _atom_site_label
  _atom_site_occupancy
  _atom_site_fract_x
  _atom_site_fract_y
  _atom_site_fract_z
  _atom_site_thermal_displace_type
  _atom_site_B_iso_or_equiv
  _atom_site_type_symbol
  C1       1.0000 0.58560  0.15060  0.43780  Biso   1.000  C
  C2       1.0000 0.41440  0.34940  0.43780  Biso   1.000  C
  C3       1.0000 0.58560  0.84940  0.56220  Biso   1.000  C
  C4       1.0000 0.41440  0.65060  0.56220  Biso   1.000  C
  C5       1.0000 0.08560  0.65060  0.93780  Biso   1.000  C
  C6       1.0000 0.91440  0.84940  0.93780  Biso   1.000  C
  C7       1.0000 0.08560  0.34940  0.06220  Biso   1.000  C
  C8       1.0000 0.91440  0.15060  0.06220  Biso   1.000  C
  C9       1.0000 0.41440  0.84940  0.56220  Biso   1.000  C
  C10      1.0000 0.58560  0.65060  0.56220  Biso   1.000  C
  C11      1.0000 0.41440  0.15060  0.43780  Biso   1.000  C
  C12      1.0000 0.58560  0.34940  0.43780  Biso   1.000  C
  C13      1.0000 0.91440  0.34940  0.06220  Biso   1.000  C
  C14      1.0000 0.08560  0.15060  0.06220  Biso   1.000  C
  C15      1.0000 0.91440  0.65060  0.93780  Biso   1.000  C
  C16      1.0000 0.08560  0.84940  0.93780  Biso   1.000  C
  C17      1.0000 0.65540  0.25000  0.54660  Biso   1.000  C
  C18      1.0000 0.34460  0.25000  0.54660  Biso   1.000  C
  C19      1.0000 0.65540  0.75000  0.45340  Biso   1.000  C
  C20      1.0000 0.34460  0.75000  0.45340  Biso   1.000  C
  C21      1.0000 0.15540  0.75000  0.04660  Biso   1.000  C
  C22      1.0000 0.84460  0.75000  0.04660  Biso   1.000  C
  C23      1.0000 0.15540  0.25000  0.95340  Biso   1.000  C
  C24      1.0000 0.84460  0.25000  0.95340  Biso   1.000  C
  C25      1.0000 0.61650  0.25000  0.28180  Biso   1.000  C
  C26      1.0000 0.38350  0.25000  0.28180  Biso   1.000  C
  C27      1.0000 0.61650  0.75000  0.71820  Biso   1.000  C
  C28      1.0000 0.38350  0.75000  0.71820  Biso   1.000  C
  C29      1.0000 0.11650  0.75000  0.78180  Biso   1.000  C
  C30      1.0000 0.88350  0.75000  0.78180  Biso   1.000  C
  C31      1.0000 0.11650  0.25000  0.21820  Biso   1.000  C
  C32      1.0000 0.88350  0.25000  0.21820  Biso   1.000  C
  C33      1.0000 0.69060  0.45520  0.38530  Biso   1.000  C
  C34      1.0000 0.30940  0.04480  0.38530  Biso   1.000  C
  C35      1.0000 0.69060  0.54480  0.61470  Biso   1.000  C
  C36      1.0000 0.30940  0.95520  0.61470  Biso   1.000  C
  C37      1.0000 0.19060  0.95520  0.88530  Biso   1.000  C
  C38      1.0000 0.80940  0.54480  0.88530  Biso   1.000  C
  C39      1.0000 0.19060  0.04480  0.11470  Biso   1.000  C
  C40      1.0000 0.80940  0.45520  0.11470  Biso   1.000  C
  C41      1.0000 0.30940  0.54480  0.61470  Biso   1.000  C
  C42      1.0000 0.69060  0.95520  0.61470  Biso   1.000  C
  C43      1.0000 0.30940  0.45520  0.38530  Biso   1.000  C
  C44      1.0000 0.69060  0.04480  0.38530  Biso   1.000  C
  C45      1.0000 0.80940  0.04480  0.11470  Biso   1.000  C
  C46      1.0000 0.19060  0.45520  0.11470  Biso   1.000  C
  C47      1.0000 0.80940  0.95520  0.88530  Biso   1.000  C
  C48      1.0000 0.19060  0.54480  0.88530  Biso   1.000  C
  H1       1.0000 0.65850  0.48590  0.38950  Biso   1.000  H
  H2       1.0000 0.34150  0.01410  0.38950  Biso   1.000  H
  H3       1.0000 0.65850  0.51410  0.61050  Biso   1.000  H
  H4       1.0000 0.34150  0.98590  0.61050  Biso   1.000  H
  H5       1.0000 0.15850  0.98590  0.88950  Biso   1.000  H
  H6       1.0000 0.84150  0.51410  0.88950  Biso   1.000  H
  H7       1.0000 0.15850  0.01410  0.11050  Biso   1.000  H
  H8       1.0000 0.84150  0.48590  0.11050  Biso   1.000  H
  H9       1.0000 0.34150  0.51410  0.61050  Biso   1.000  H
  H10      1.0000 0.65850  0.98590  0.61050  Biso   1.000  H
  H11      1.0000 0.34150  0.48590  0.38950  Biso   1.000  H
  H12      1.0000 0.65850  0.01410  0.38950  Biso   1.000  H
  H13      1.0000 0.84150  0.01410  0.11050  Biso   1.000  H
  H14      1.0000 0.15850  0.48590  0.11050  Biso   1.000  H
  H15      1.0000 0.84150  0.98590  0.88950  Biso   1.000  H
  H16      1.0000 0.15850  0.51410  0.88950  Biso   1.000  H
  C49      1.0000 0.73180  0.51810  0.37570  Biso   1.000  C
  C50      1.0000 0.26820  0.98190  0.37570  Biso   1.000  C
  C51      1.0000 0.73180  0.48190  0.62430  Biso   1.000  C
  C52      1.0000 0.26820  0.01810  0.62430  Biso   1.000  C
  C53      1.0000 0.23180  0.01810  0.87570  Biso   1.000  C
  C54      1.0000 0.76820  0.48190  0.87570  Biso   1.000  C
  C55      1.0000 0.23180  0.98190  0.12430  Biso   1.000  C
  C56      1.0000 0.76820  0.51810  0.12430  Biso   1.000  C
  C57      1.0000 0.26820  0.48190  0.62430  Biso   1.000  C
  C58      1.0000 0.73180  0.01810  0.62430  Biso   1.000  C
  C59      1.0000 0.26820  0.51810  0.37570  Biso   1.000  C
  C60      1.0000 0.73180  0.98190  0.37570  Biso   1.000  C
  C61      1.0000 0.76820  0.98190  0.12430  Biso   1.000  C
  C62      1.0000 0.23180  0.51810  0.12430  Biso   1.000  C
  C63      1.0000 0.76820  0.01810  0.87570  Biso   1.000  C
  C64      1.0000 0.23180  0.48190  0.87570  Biso   1.000  C
  H17      1.0000 0.72710  0.59030  0.37280  Biso   1.000  H
  H18      1.0000 0.27290  0.90970  0.37280  Biso   1.000  H
  H19      1.0000 0.72710  0.40970  0.62720  Biso   1.000  H
  H20      1.0000 0.27290  0.09030  0.62720  Biso   1.000  H
  H21      1.0000 0.22710  0.09030  0.87280  Biso   1.000  H
  H22      1.0000 0.77290  0.40970  0.87280  Biso   1.000  H
  H23      1.0000 0.22710  0.90970  0.12720  Biso   1.000  H
  H24      1.0000 0.77290  0.59030  0.12720  Biso   1.000  H
  H25      1.0000 0.27290  0.40970  0.62720  Biso   1.000  H
  H26      1.0000 0.72710  0.09030  0.62720  Biso   1.000  H
  H27      1.0000 0.27290  0.59030  0.37280  Biso   1.000  H
  H28      1.0000 0.72710  0.90970  0.37280  Biso   1.000  H
  H29      1.0000 0.77290  0.90970  0.12720  Biso   1.000  H
  H30      1.0000 0.22710  0.59030  0.12720  Biso   1.000  H
  H31      1.0000 0.77290  0.09030  0.87280  Biso   1.000  H
  H32      1.0000 0.22710  0.40970  0.87280  Biso   1.000  H
  C65      1.0000 0.78080  0.47820  0.37010  Biso   1.000  C
  C66      1.0000 0.21920  0.02180  0.37010  Biso   1.000  C
  C67      1.0000 0.78080  0.52180  0.62990  Biso   1.000  C
  C68      1.0000 0.21920  0.97820  0.62990  Biso   1.000  C
  C69      1.0000 0.28080  0.97820  0.87010  Biso   1.000  C
  C70      1.0000 0.71920  0.52180  0.87010  Biso   1.000  C
  C71      1.0000 0.28080  0.02180  0.12990  Biso   1.000  C
  C72      1.0000 0.71920  0.47820  0.12990  Biso   1.000  C
  C73      1.0000 0.21920  0.52180  0.62990  Biso   1.000  C
  C74      1.0000 0.78080  0.97820  0.62990  Biso   1.000  C
  C75      1.0000 0.21920  0.47820  0.37010  Biso   1.000  C
  C76      1.0000 0.78080  0.02180  0.37010  Biso   1.000  C
  C77      1.0000 0.71920  0.02180  0.12990  Biso   1.000  C
  C78      1.0000 0.28080  0.47820  0.12990  Biso   1.000  C
  C79      1.0000 0.71920  0.97820  0.87010  Biso   1.000  C
  C80      1.0000 0.28080  0.52180  0.87010  Biso   1.000  C
  C81      1.0000 0.78480  0.36860  0.37360  Biso   1.000  C
  C82      1.0000 0.21520  0.13140  0.37360  Biso   1.000  C
  C83      1.0000 0.78480  0.63140  0.62640  Biso   1.000  C
  C84      1.0000 0.21520  0.86860  0.62640  Biso   1.000  C
  C85      1.0000 0.28480  0.86860  0.87360  Biso   1.000  C
  C86      1.0000 0.71520  0.63140  0.87360  Biso   1.000  C
  C87      1.0000 0.28480  0.13140  0.12640  Biso   1.000  C
  C88      1.0000 0.71520  0.36860  0.12640  Biso   1.000  C
  C89      1.0000 0.21520  0.63140  0.62640  Biso   1.000  C
  C90      1.0000 0.78480  0.86860  0.62640  Biso   1.000  C
  C91      1.0000 0.21520  0.36860  0.37360  Biso   1.000  C
  C92      1.0000 0.78480  0.13140  0.37360  Biso   1.000  C
  C93      1.0000 0.71520  0.13140  0.12640  Biso   1.000  C
  C94      1.0000 0.28480  0.36860  0.12640  Biso   1.000  C
  C95      1.0000 0.71520  0.86860  0.87360  Biso   1.000  C
  C96      1.0000 0.28480  0.63140  0.87360  Biso   1.000  C
  H33      1.0000 0.81660  0.33660  0.37030  Biso   1.000  H
  H34      1.0000 0.18340  0.16340  0.37030  Biso   1.000  H
  H35      1.0000 0.81660  0.66340  0.62970  Biso   1.000  H
  H36      1.0000 0.18340  0.83660  0.62970  Biso   1.000  H
  H37      1.0000 0.31660  0.83660  0.87030  Biso   1.000  H
  H38      1.0000 0.68340  0.66340  0.87030  Biso   1.000  H
  H39      1.0000 0.31660  0.16340  0.12970  Biso   1.000  H
  H40      1.0000 0.68340  0.33660  0.12970  Biso   1.000  H
  H41      1.0000 0.18340  0.66340  0.62970  Biso   1.000  H
  H42      1.0000 0.81660  0.83660  0.62970  Biso   1.000  H
  H43      1.0000 0.18340  0.33660  0.37030  Biso   1.000  H
  H44      1.0000 0.81660  0.16340  0.37030  Biso   1.000  H
  H45      1.0000 0.68340  0.16340  0.12970  Biso   1.000  H
  H46      1.0000 0.31660  0.33660  0.12970  Biso   1.000  H
  H47      1.0000 0.68340  0.83660  0.87030  Biso   1.000  H
  H48      1.0000 0.31660  0.66340  0.87030  Biso   1.000  H
  C97      1.0000 0.74110  0.30860  0.38220  Biso   1.000  C
  C98      1.0000 0.25890  0.19140  0.38220  Biso   1.000  C
  C99      1.0000 0.74110  0.69140  0.61780  Biso   1.000  C
  C100     1.0000 0.25890  0.80860  0.61780  Biso   1.000  C
  C101     1.0000 0.24110  0.80860  0.88220  Biso   1.000  C
  C102     1.0000 0.75890  0.69140  0.88220  Biso   1.000  C
  C103     1.0000 0.24110  0.19140  0.11780  Biso   1.000  C
  C104     1.0000 0.75890  0.30860  0.11780  Biso   1.000  C
  C105     1.0000 0.25890  0.69140  0.61780  Biso   1.000  C
  C106     1.0000 0.74110  0.80860  0.61780  Biso   1.000  C
  C107     1.0000 0.25890  0.30860  0.38220  Biso   1.000  C
  C108     1.0000 0.74110  0.19140  0.38220  Biso   1.000  C
  C109     1.0000 0.75890  0.19140  0.11780  Biso   1.000  C
  C110     1.0000 0.24110  0.30860  0.11780  Biso   1.000  C
  C111     1.0000 0.75890  0.80860  0.88220  Biso   1.000  C
  C112     1.0000 0.24110  0.69140  0.88220  Biso   1.000  C
  C113     1.0000 0.82690  0.54490  0.36150  Biso   1.000  C
  C114     1.0000 0.17310  0.95510  0.36150  Biso   1.000  C
  C115     1.0000 0.82690  0.45510  0.63850  Biso   1.000  C
  C116     1.0000 0.17310  0.04490  0.63850  Biso   1.000  C
  C117     1.0000 0.32690  0.04490  0.86150  Biso   1.000  C
  C118     1.0000 0.67310  0.45510  0.86150  Biso   1.000  C
  C119     1.0000 0.32690  0.95510  0.13850  Biso   1.000  C
  C120     1.0000 0.67310  0.54490  0.13850  Biso   1.000  C
  C121     1.0000 0.17310  0.45510  0.63850  Biso   1.000  C
  C122     1.0000 0.82690  0.04490  0.63850  Biso   1.000  C
  C123     1.0000 0.17310  0.54490  0.36150  Biso   1.000  C
  C124     1.0000 0.82690  0.95510  0.36150  Biso   1.000  C
  C125     1.0000 0.67310  0.95510  0.13850  Biso   1.000  C
  C126     1.0000 0.32690  0.54490  0.13850  Biso   1.000  C
  C127     1.0000 0.67310  0.04490  0.86150  Biso   1.000  C
  C128     1.0000 0.32690  0.45510  0.86150  Biso   1.000  C
  H49      1.0000 0.81760  0.61190  0.33610  Biso   1.000  H
  H50      1.0000 0.18240  0.88810  0.33610  Biso   1.000  H
  H51      1.0000 0.81760  0.38810  0.66390  Biso   1.000  H
  H52      1.0000 0.18240  0.11190  0.66390  Biso   1.000  H
  H53      1.0000 0.31760  0.11190  0.83610  Biso   1.000  H
  H54      1.0000 0.68240  0.38810  0.83610  Biso   1.000  H
  H55      1.0000 0.31760  0.88810  0.16390  Biso   1.000  H
  H56      1.0000 0.68240  0.61190  0.16390  Biso   1.000  H
  H57      1.0000 0.18240  0.38810  0.66390  Biso   1.000  H
  H58      1.0000 0.81760  0.11190  0.66390  Biso   1.000  H
  H59      1.0000 0.18240  0.61190  0.33610  Biso   1.000  H
  H60      1.0000 0.81760  0.88810  0.33610  Biso   1.000  H
  H61      1.0000 0.68240  0.88810  0.16390  Biso   1.000  H
  H62      1.0000 0.31760  0.61190  0.16390  Biso   1.000  H
  H63      1.0000 0.68240  0.11190  0.83610  Biso   1.000  H
  H64      1.0000 0.31760  0.38810  0.83610  Biso   1.000  H
  H65      1.0000 0.85110  0.51160  0.32060  Biso   1.000  H
  H66      1.0000 0.14890  0.98840  0.32060  Biso   1.000  H
  H67      1.0000 0.85110  0.48840  0.67940  Biso   1.000  H
  H68      1.0000 0.14890  0.01160  0.67940  Biso   1.000  H
  H69      1.0000 0.35110  0.01160  0.82060  Biso   1.000  H
  H70      1.0000 0.64890  0.48840  0.82060  Biso   1.000  H
  H71      1.0000 0.35110  0.98840  0.17940  Biso   1.000  H
  H72      1.0000 0.64890  0.51160  0.17940  Biso   1.000  H
  H73      1.0000 0.14890  0.48840  0.67940  Biso   1.000  H
  H74      1.0000 0.85110  0.01160  0.67940  Biso   1.000  H
  H75      1.0000 0.14890  0.51160  0.32060  Biso   1.000  H
  H76      1.0000 0.85110  0.98840  0.32060  Biso   1.000  H
  H77      1.0000 0.64890  0.98840  0.17940  Biso   1.000  H
  H78      1.0000 0.35110  0.51160  0.17940  Biso   1.000  H
  H79      1.0000 0.64890  0.01160  0.82060  Biso   1.000  H
  H80      1.0000 0.35110  0.48840  0.82060  Biso   1.000  H
  H81      1.0000 0.84200  0.55440  0.42240  Biso   1.000  H
  H82      1.0000 0.15800  0.94560  0.42240  Biso   1.000  H
  H83      1.0000 0.84200  0.44560  0.57760  Biso   1.000  H
  H84      1.0000 0.15800  0.05440  0.57760  Biso   1.000  H
  H85      1.0000 0.34200  0.05440  0.92240  Biso   1.000  H
  H86      1.0000 0.65800  0.44560  0.92240  Biso   1.000  H
  H87      1.0000 0.34200  0.94560  0.07760  Biso   1.000  H
  H88      1.0000 0.65800  0.55440  0.07760  Biso   1.000  H
  H89      1.0000 0.15800  0.44560  0.57760  Biso   1.000  H
  H90      1.0000 0.84200  0.05440  0.57760  Biso   1.000  H
  H91      1.0000 0.15800  0.55440  0.42240  Biso   1.000  H
  H92      1.0000 0.84200  0.94560  0.42240  Biso   1.000  H
  H93      1.0000 0.65800  0.94560  0.07760  Biso   1.000  H
  H94      1.0000 0.34200  0.55440  0.07760  Biso   1.000  H
  H95      1.0000 0.65800  0.05440  0.92240  Biso   1.000  H
  H96      1.0000 0.34200  0.44560  0.92240  Biso   1.000  H
  Fe1      1.0000 0.63815  0.25000  0.41241  Biso   1.000  Fe
  Fe2      1.0000 0.36185  0.25000  0.41241  Biso   1.000  Fe
  Fe3      1.0000 0.63815  0.75000  0.58759  Biso   1.000  Fe
  Fe4      1.0000 0.36185  0.75000  0.58759  Biso   1.000  Fe
  Fe5      1.0000 0.13815  0.75000  0.91241  Biso   1.000  Fe
  Fe6      1.0000 0.86185  0.75000  0.91241  Biso   1.000  Fe
  Fe7      1.0000 0.13815  0.25000  0.08759  Biso   1.000  Fe
  Fe8      1.0000 0.86185  0.25000  0.08759  Biso   1.000  Fe
  N1       1.0000 0.55410  0.09410  0.45500  Biso   1.000  N
  N2       1.0000 0.44590  0.40590  0.45500  Biso   1.000  N
  N3       1.0000 0.55410  0.90590  0.54500  Biso   1.000  N
  N4       1.0000 0.44590  0.59410  0.54500  Biso   1.000  N
  N5       1.0000 0.05410  0.59410  0.95500  Biso   1.000  N
  N6       1.0000 0.94590  0.90590  0.95500  Biso   1.000  N
  N7       1.0000 0.05410  0.40590  0.04500  Biso   1.000  N
  N8       1.0000 0.94590  0.09410  0.04500  Biso   1.000  N
  N9       1.0000 0.44590  0.90590  0.54500  Biso   1.000  N
  N10      1.0000 0.55410  0.59410  0.54500  Biso   1.000  N
  N11      1.0000 0.44590  0.09410  0.45500  Biso   1.000  N
  N12      1.0000 0.55410  0.40590  0.45500  Biso   1.000  N
  N13      1.0000 0.94590  0.40590  0.04500  Biso   1.000  N
  N14      1.0000 0.05410  0.09410  0.04500  Biso   1.000  N
  N15      1.0000 0.94590  0.59410  0.95500  Biso   1.000  N
  N16      1.0000 0.05410  0.90590  0.95500  Biso   1.000  N
  N17      1.0000 0.66570  0.25000  0.62320  Biso   1.000  N
  N18      1.0000 0.33430  0.25000  0.62320  Biso   1.000  N
  N19      1.0000 0.66570  0.75000  0.37680  Biso   1.000  N
  N20      1.0000 0.33430  0.75000  0.37680  Biso   1.000  N
  N21      1.0000 0.16570  0.75000  0.12320  Biso   1.000  N
  N22      1.0000 0.83430  0.75000  0.12320  Biso   1.000  N
  N23      1.0000 0.16570  0.25000  0.87680  Biso   1.000  N
  N24      1.0000 0.83430  0.25000  0.87680  Biso   1.000  N
  N25      1.0000 0.60200  0.25000  0.20550  Biso   1.000  N
  N26      1.0000 0.39800  0.25000  0.20550  Biso   1.000  N
  N27      1.0000 0.60200  0.75000  0.79450  Biso   1.000  N
  N28      1.0000 0.39800  0.75000  0.79450  Biso   1.000  N
  N29      1.0000 0.10200  0.75000  0.70550  Biso   1.000  N
  N30      1.0000 0.89800  0.75000  0.70550  Biso   1.000  N
  N31      1.0000 0.10200  0.25000  0.29450  Biso   1.000  N
  N32      1.0000 0.89800  0.25000  0.29450  Biso   1.000  N
  N33      1.0000 0.69395  0.35070  0.38910  Biso   1.000  N
  N34      1.0000 0.30605  0.14930  0.38910  Biso   1.000  N
  N35      1.0000 0.69395  0.64930  0.61090  Biso   1.000  N
  N36      1.0000 0.30605  0.85070  0.61090  Biso   1.000  N
  N37      1.0000 0.19395  0.85070  0.88910  Biso   1.000  N
  N38      1.0000 0.80605  0.64930  0.88910  Biso   1.000  N
  N39      1.0000 0.19395  0.14930  0.11090  Biso   1.000  N
  N40      1.0000 0.80605  0.35070  0.11090  Biso   1.000  N
  N41      1.0000 0.30605  0.64930  0.61090  Biso   1.000  N
  N42      1.0000 0.69395  0.85070  0.61090  Biso   1.000  N
  N43      1.0000 0.30605  0.35070  0.38910  Biso   1.000  N
  N44      1.0000 0.69395  0.14930  0.38910  Biso   1.000  N
  N45      1.0000 0.80605  0.14930  0.11090  Biso   1.000  N
  N46      1.0000 0.19395  0.35070  0.11090  Biso   1.000  N
  N47      1.0000 0.80605  0.85070  0.88910  Biso   1.000  N
  N48      1.0000 0.19395  0.64930  0.88910  Biso   1.000  N
  Cu1      1.0000 0.50000  0.00000  0.50000  Biso   1.000  Cu
  Cu2      1.0000 0.50000  0.50000  0.50000  Biso   1.000  Cu
  Cu3      1.0000 0.00000  0.50000  0.00000  Biso   1.000  Cu
  Cu4      1.0000 0.00000  0.00000  0.00000  Biso   1.000  Cu
  O1       1.0000 0.50000  0.91430  0.33910  Biso   1.000  O
  O2       1.0000 0.50000  0.58570  0.33910  Biso   1.000  O
  O3       1.0000 0.50000  0.08570  0.66090  Biso   1.000  O
  O4       1.0000 0.50000  0.41430  0.66090  Biso   1.000  O
  O5       1.0000 0.00000  0.41430  0.83910  Biso   1.000  O
  O6       1.0000 0.00000  0.08570  0.83910  Biso   1.000  O
  O7       1.0000 0.00000  0.58570  0.16090  Biso   1.000  O
  O8       1.0000 0.00000  0.91430  0.16090  Biso   1.000  O
  O9       1.0000 0.43140  0.25000  0.72350  Biso   1.000  O
  O10      1.0000 0.56860  0.25000  0.72350  Biso   1.000  O
  O11      1.0000 0.43140  0.75000  0.27650  Biso   1.000  O
  O12      1.0000 0.56860  0.75000  0.27650  Biso   1.000  O
  O13      1.0000 0.93140  0.75000  0.22350  Biso   1.000  O
  O14      1.0000 0.06860  0.75000  0.22350  Biso   1.000  O
  O15      1.0000 0.93140  0.25000  0.77650  Biso   1.000  O
  O16      1.0000 0.06860  0.25000  0.77650  Biso   1.000  O
  O17      1.0000 0.50000  0.92700  0.80600  Biso   1.000  O
  O18      1.0000 0.50000  0.57300  0.80600  Biso   1.000  O
  O19      1.0000 0.50000  0.07300  0.19400  Biso   1.000  O
  O20      1.0000 0.50000  0.42700  0.19400  Biso   1.000  O
  O21      1.0000 0.00000  0.42700  0.30600  Biso   1.000  O
  O22      1.0000 0.00000  0.07300  0.30600  Biso   1.000  O
  O23      1.0000 0.00000  0.57300  0.69400  Biso   1.000  O
  O24      1.0000 0.00000  0.92700  0.69400  Biso   1.000  O
  O25      1.0000 0.44720  0.29500  0.90100  Biso   1.000  O
  O26      1.0000 0.55280  0.20500  0.90100  Biso   1.000  O
  O27      1.0000 0.44720  0.70500  0.09900  Biso   1.000  O
  O28      1.0000 0.55280  0.79500  0.09900  Biso   1.000  O
  O29      1.0000 0.94720  0.79500  0.40100  Biso   1.000  O
  O30      1.0000 0.05280  0.70500  0.40100  Biso   1.000  O
  O31      1.0000 0.94720  0.20500  0.59900  Biso   1.000  O
  O32      1.0000 0.05280  0.29500  0.59900  Biso   1.000  O
  O33      1.0000 0.55280  0.70500  0.09900  Biso   1.000  O
  O34      1.0000 0.44720  0.79500  0.09900  Biso   1.000  O
  O35      1.0000 0.55280  0.29500  0.90100  Biso   1.000  O
  O36      1.0000 0.44720  0.20500  0.90100  Biso   1.000  O
  O37      1.0000 0.05280  0.20500  0.59900  Biso   1.000  O
  O38      1.0000 0.94720  0.29500  0.59900  Biso   1.000  O
  O39      1.0000 0.05280  0.79500  0.40100  Biso   1.000  O
  O40      1.0000 0.94720  0.70500  0.40100  Biso   1.000  O
