data_image0
_cell_length_a       23.61
_cell_length_b       3.55
_cell_length_c       17.2224
_cell_angle_alpha    90
_cell_angle_beta     91.055
_cell_angle_gamma    90

_symmetry_space_group_name_H-M    "P 1"
_symmetry_int_tables_number       1

loop_
  _symmetry_equiv_pos_as_xyz
  'x, y, z'

loop_
  _atom_site_label
  _atom_site_occupancy
  _atom_site_fract_x
  _atom_site_fract_y
  _atom_site_fract_z
  _atom_site_thermal_displace_type
  _atom_site_B_iso_or_equiv
  _atom_site_type_symbol
  Cu1      1.0000 0.25000  0.75000  0.00000  Biso   1.000  Cu
  Cu2      1.0000 0.75000  0.75000  0.50000  Biso   1.000  Cu
  Cu3      1.0000 0.75000  0.25000  0.00000  Biso   1.000  Cu
  Cu4      1.0000 0.25000  0.25000  0.50000  Biso   1.000  Cu
  N1       1.0000 0.29608  0.35910  0.05833  Biso   1.000  N
  N2       1.0000 0.70392  0.35910  0.44167  Biso   1.000  N
  N3       1.0000 0.79608  0.85910  0.05833  Biso   1.000  N
  N4       1.0000 0.20392  0.85910  0.44167  Biso   1.000  N
  N5       1.0000 0.70392  0.64090  0.94167  Biso   1.000  N
  N6       1.0000 0.29608  0.64090  0.55833  Biso   1.000  N
  N7       1.0000 0.20392  0.14090  0.94167  Biso   1.000  N
  N8       1.0000 0.79608  0.14090  0.55833  Biso   1.000  N
  N9       1.0000 0.34373  0.42970  0.08011  Biso   1.000  N
  N10      1.0000 0.65627  0.42970  0.41989  Biso   1.000  N
  N11      1.0000 0.84373  0.92970  0.08011  Biso   1.000  N
  N12      1.0000 0.15627  0.92970  0.41989  Biso   1.000  N
  N13      1.0000 0.65627  0.57030  0.91989  Biso   1.000  N
  N14      1.0000 0.34373  0.57030  0.58011  Biso   1.000  N
  N15      1.0000 0.15627  0.07030  0.91989  Biso   1.000  N
  N16      1.0000 0.84373  0.07030  0.58011  Biso   1.000  N
  N17      1.0000 0.38968  0.48980  0.10115  Biso   1.000  N
  N18      1.0000 0.61032  0.48980  0.39885  Biso   1.000  N
  N19      1.0000 0.88968  0.98980  0.10115  Biso   1.000  N
  N20      1.0000 0.11032  0.98980  0.39885  Biso   1.000  N
  N21      1.0000 0.61032  0.51020  0.89885  Biso   1.000  N
  N22      1.0000 0.38968  0.51020  0.60115  Biso   1.000  N
  N23      1.0000 0.11032  0.01020  0.89885  Biso   1.000  N
  N24      1.0000 0.88968  0.01020  0.60115  Biso   1.000  N
  N25      1.0000 0.19351  0.74370  0.08731  Biso   1.000  N
  N26      1.0000 0.80649  0.74370  0.41269  Biso   1.000  N
  N27      1.0000 0.69351  0.24370  0.08731  Biso   1.000  N
  N28      1.0000 0.30649  0.24370  0.41269  Biso   1.000  N
  N29      1.0000 0.80649  0.25630  0.91269  Biso   1.000  N
  N30      1.0000 0.19351  0.25630  0.58731  Biso   1.000  N
  N31      1.0000 0.30649  0.75630  0.91269  Biso   1.000  N
  N32      1.0000 0.69351  0.75630  0.58731  Biso   1.000  N
  C1       1.0000 0.13955  0.63170  0.07676  Biso   1.000  C
  C2       1.0000 0.86045  0.63170  0.42324  Biso   1.000  C
  C3       1.0000 0.63955  0.13170  0.07676  Biso   1.000  C
  C4       1.0000 0.36045  0.13170  0.42324  Biso   1.000  C
  C5       1.0000 0.86045  0.36830  0.92324  Biso   1.000  C
  C6       1.0000 0.13955  0.36830  0.57676  Biso   1.000  C
  C7       1.0000 0.36045  0.86830  0.92324  Biso   1.000  C
  C8       1.0000 0.63955  0.86830  0.57676  Biso   1.000  C
  H1       1.0000 0.12711  0.55560  0.02638  Biso   1.000  H
  H2       1.0000 0.87289  0.55560  0.47362  Biso   1.000  H
  H3       1.0000 0.62711  0.05560  0.02638  Biso   1.000  H
  H4       1.0000 0.37289  0.05560  0.47362  Biso   1.000  H
  H5       1.0000 0.87289  0.44440  0.97362  Biso   1.000  H
  H6       1.0000 0.12711  0.44440  0.52638  Biso   1.000  H
  H7       1.0000 0.37289  0.94440  0.97362  Biso   1.000  H
  H8       1.0000 0.62711  0.94440  0.52638  Biso   1.000  H
  C9       1.0000 0.10119  0.62340  0.13746  Biso   1.000  C
  C10      1.0000 0.89881  0.62340  0.36254  Biso   1.000  C
  C11      1.0000 0.60119  0.12340  0.13746  Biso   1.000  C
  C12      1.0000 0.39881  0.12340  0.36254  Biso   1.000  C
  C13      1.0000 0.89881  0.37660  0.86254  Biso   1.000  C
  C14      1.0000 0.10119  0.37660  0.63746  Biso   1.000  C
  C15      1.0000 0.39881  0.87660  0.86254  Biso   1.000  C
  C16      1.0000 0.60119  0.87660  0.63746  Biso   1.000  C
  C17      1.0000 0.11946  0.73430  0.21144  Biso   1.000  C
  C18      1.0000 0.88054  0.73430  0.28856  Biso   1.000  C
  C19      1.0000 0.61946  0.23430  0.21144  Biso   1.000  C
  C20      1.0000 0.38054  0.23430  0.28856  Biso   1.000  C
  C21      1.0000 0.88054  0.26570  0.78856  Biso   1.000  C
  C22      1.0000 0.11946  0.26570  0.71144  Biso   1.000  C
  C23      1.0000 0.38054  0.76570  0.78856  Biso   1.000  C
  C24      1.0000 0.61946  0.76570  0.71144  Biso   1.000  C
  H9       1.0000 0.09443  0.73010  0.25400  Biso   1.000  H
  H10      1.0000 0.90557  0.73010  0.24600  Biso   1.000  H
  H11      1.0000 0.59443  0.23010  0.25400  Biso   1.000  H
  H12      1.0000 0.40557  0.23010  0.24600  Biso   1.000  H
  H13      1.0000 0.90557  0.26990  0.74600  Biso   1.000  H
  H14      1.0000 0.09443  0.26990  0.75400  Biso   1.000  H
  H15      1.0000 0.40557  0.76990  0.74600  Biso   1.000  H
  H16      1.0000 0.59443  0.76990  0.75400  Biso   1.000  H
  C25      1.0000 0.17531  0.85120  0.22118  Biso   1.000  C
  C26      1.0000 0.82469  0.85120  0.27882  Biso   1.000  C
  C27      1.0000 0.67531  0.35120  0.22118  Biso   1.000  C
  C28      1.0000 0.32469  0.35120  0.27882  Biso   1.000  C
  C29      1.0000 0.82469  0.14880  0.77882  Biso   1.000  C
  C30      1.0000 0.17531  0.14880  0.72118  Biso   1.000  C
  C31      1.0000 0.32469  0.64880  0.77882  Biso   1.000  C
  C32      1.0000 0.67531  0.64880  0.72118  Biso   1.000  C
  H17      1.0000 0.18885  0.93019  0.27085  Biso   1.000  H
  H18      1.0000 0.81115  0.93019  0.22915  Biso   1.000  H
  H19      1.0000 0.68885  0.43019  0.27085  Biso   1.000  H
  H20      1.0000 0.31115  0.43019  0.22915  Biso   1.000  H
  H21      1.0000 0.81115  0.06981  0.72915  Biso   1.000  H
  H22      1.0000 0.18885  0.06981  0.77085  Biso   1.000  H
  H23      1.0000 0.31115  0.56981  0.72915  Biso   1.000  H
  H24      1.0000 0.68885  0.56981  0.77085  Biso   1.000  H
  C33      1.0000 0.21125  0.85260  0.15852  Biso   1.000  C
  C34      1.0000 0.78875  0.85260  0.34148  Biso   1.000  C
  C35      1.0000 0.71125  0.35260  0.15852  Biso   1.000  C
  C36      1.0000 0.28875  0.35260  0.34148  Biso   1.000  C
  C37      1.0000 0.78875  0.14740  0.84148  Biso   1.000  C
  C38      1.0000 0.21125  0.14740  0.65852  Biso   1.000  C
  C39      1.0000 0.28875  0.64740  0.84148  Biso   1.000  C
  C40      1.0000 0.71125  0.64740  0.65852  Biso   1.000  C
  H25      1.0000 0.24937  0.93237  0.16601  Biso   1.000  H
  H26      1.0000 0.75063  0.93237  0.33399  Biso   1.000  H
  H27      1.0000 0.74937  0.43237  0.16601  Biso   1.000  H
  H28      1.0000 0.25063  0.43237  0.33399  Biso   1.000  H
  H29      1.0000 0.75063  0.06763  0.83399  Biso   1.000  H
  H30      1.0000 0.24937  0.06763  0.66601  Biso   1.000  H
  H31      1.0000 0.25063  0.56763  0.83399  Biso   1.000  H
  H32      1.0000 0.74937  0.56763  0.66601  Biso   1.000  H
  O1       1.0000 0.04759  0.50450  0.12398  Biso   1.000  O
  O2       1.0000 0.95241  0.50450  0.37602  Biso   1.000  O
  O3       1.0000 0.54759  0.00450  0.12398  Biso   1.000  O
  O4       1.0000 0.45241  0.00450  0.37602  Biso   1.000  O
  O5       1.0000 0.95241  0.49550  0.87602  Biso   1.000  O
  O6       1.0000 0.04759  0.49550  0.62398  Biso   1.000  O
  O7       1.0000 0.45241  0.99550  0.87602  Biso   1.000  O
  O8       1.0000 0.54759  0.99550  0.62398  Biso   1.000  O
  C41      1.0000 0.00680  0.48780  0.17240  Biso   1.000  C
  C42      1.0000 0.99320  0.48780  0.32760  Biso   1.000  C
  C43      1.0000 0.50680  0.98780  0.17240  Biso   1.000  C
  C44      1.0000 0.49320  0.98780  0.32760  Biso   1.000  C
  C45      1.0000 0.99320  0.51220  0.82760  Biso   1.000  C
  C46      1.0000 0.00680  0.51220  0.67240  Biso   1.000  C
  C47      1.0000 0.49320  0.01220  0.82760  Biso   1.000  C
  C48      1.0000 0.50680  0.01220  0.67240  Biso   1.000  C
  H33      1.0000 0.99922  0.74033  0.19277  Biso   1.000  H
  H34      1.0000 0.00078  0.74033  0.30723  Biso   1.000  H
  H35      1.0000 0.49922  0.24033  0.19277  Biso   1.000  H
  H36      1.0000 0.50078  0.24033  0.30723  Biso   1.000  H
  H37      1.0000 0.00078  0.25967  0.80723  Biso   1.000  H
  H38      1.0000 0.99922  0.25967  0.69277  Biso   1.000  H
  H39      1.0000 0.50078  0.75967  0.80723  Biso   1.000  H
  H40      1.0000 0.49922  0.75967  0.69277  Biso   1.000  H
  H41      1.0000 0.01744  0.31965  0.21541  Biso   1.000  H
  H42      1.0000 0.98256  0.31965  0.28459  Biso   1.000  H
  H43      1.0000 0.51744  0.81965  0.21541  Biso   1.000  H
  H44      1.0000 0.48256  0.81965  0.28459  Biso   1.000  H
  H45      1.0000 0.98256  0.68035  0.78459  Biso   1.000  H
  H46      1.0000 0.01744  0.68035  0.71541  Biso   1.000  H
  H47      1.0000 0.48256  0.18035  0.78459  Biso   1.000  H
  H48      1.0000 0.51744  0.18035  0.71541  Biso   1.000  H
  H49      1.0000 0.97270  0.39083  0.14602  Biso   1.000  H
  H50      1.0000 0.02730  0.39083  0.35398  Biso   1.000  H
  H51      1.0000 0.47270  0.89083  0.14602  Biso   1.000  H
  H52      1.0000 0.52730  0.89083  0.35398  Biso   1.000  H
  H53      1.0000 0.02730  0.60917  0.85398  Biso   1.000  H
  H54      1.0000 0.97270  0.60917  0.64602  Biso   1.000  H
  H55      1.0000 0.52730  0.10917  0.85398  Biso   1.000  H
  H56      1.0000 0.47270  0.10917  0.64602  Biso   1.000  H
  C49      1.0000 0.02252  0.46720  0.05760  Biso   1.000  C
  C50      1.0000 0.97748  0.46720  0.44240  Biso   1.000  C
  C51      1.0000 0.52252  0.96720  0.05760  Biso   1.000  C
  C52      1.0000 0.47748  0.96720  0.44240  Biso   1.000  C
  C53      1.0000 0.97748  0.53280  0.94240  Biso   1.000  C
  C54      1.0000 0.02252  0.53280  0.55760  Biso   1.000  C
  C55      1.0000 0.47748  0.03280  0.94240  Biso   1.000  C
  C56      1.0000 0.52252  0.03280  0.55760  Biso   1.000  C
  H57      1.0000 0.98187  0.42921  0.06506  Biso   1.000  H
  H58      1.0000 0.01813  0.42921  0.43494  Biso   1.000  H
  H59      1.0000 0.48187  0.92921  0.06506  Biso   1.000  H
  H60      1.0000 0.51813  0.92921  0.43494  Biso   1.000  H
  H61      1.0000 0.01813  0.57079  0.93494  Biso   1.000  H
  H62      1.0000 0.98187  0.57079  0.56506  Biso   1.000  H
  H63      1.0000 0.51813  0.07079  0.93494  Biso   1.000  H
  H64      1.0000 0.48187  0.07079  0.56506  Biso   1.000  H
  H65      1.0000 0.03820  0.24905  0.03050  Biso   1.000  H
  H66      1.0000 0.96180  0.24905  0.46950  Biso   1.000  H
  H67      1.0000 0.53820  0.74905  0.03050  Biso   1.000  H
  H68      1.0000 0.46180  0.74905  0.46950  Biso   1.000  H
  H69      1.0000 0.96180  0.75095  0.96950  Biso   1.000  H
  H70      1.0000 0.03820  0.75095  0.53050  Biso   1.000  H
  H71      1.0000 0.46180  0.25095  0.96950  Biso   1.000  H
  H72      1.0000 0.53820  0.25095  0.53050  Biso   1.000  H
  H73      1.0000 0.02837  0.69472  0.02653  Biso   1.000  H
  H74      1.0000 0.97163  0.69472  0.47347  Biso   1.000  H
  H75      1.0000 0.52837  0.19472  0.02653  Biso   1.000  H
  H76      1.0000 0.47163  0.19472  0.47347  Biso   1.000  H
  H77      1.0000 0.97163  0.30528  0.97347  Biso   1.000  H
  H78      1.0000 0.02837  0.30528  0.52653  Biso   1.000  H
  H79      1.0000 0.47163  0.80528  0.97347  Biso   1.000  H
  H80      1.0000 0.52837  0.80528  0.52653  Biso   1.000  H
