data_image0
_cell_length_a       8.8633
_cell_length_b       7.0739
_cell_length_c       18.2453
_cell_angle_alpha    90
_cell_angle_beta     98.266
_cell_angle_gamma    90

_symmetry_space_group_name_H-M    "P 1"
_symmetry_int_tables_number       1

loop_
  _symmetry_equiv_pos_as_xyz
  'x, y, z'

loop_
  _atom_site_label
  _atom_site_occupancy
  _atom_site_fract_x
  _atom_site_fract_y
  _atom_site_fract_z
  _atom_site_thermal_displace_type
  _atom_site_B_iso_or_equiv
  _atom_site_type_symbol
  Cu1      1.0000 0.51602  0.71620  0.24352  Biso   1.000  Cu
  Cu2      1.0000 0.48398  0.21620  0.25648  Biso   1.000  Cu
  Cu3      1.0000 0.48398  0.28380  0.75648  Biso   1.000  Cu
  Cu4      1.0000 0.51602  0.78380  0.74352  Biso   1.000  Cu
  Cl1      1.0000 0.58787  0.81081  0.48448  Biso   1.000  Cl
  Cl2      1.0000 0.41213  0.31081  0.01552  Biso   1.000  Cl
  Cl3      1.0000 0.41213  0.18919  0.51552  Biso   1.000  Cl
  Cl4      1.0000 0.58787  0.68919  0.98448  Biso   1.000  Cl
  O1       1.0000 0.61320  0.63123  0.34128  Biso   1.000  O
  O2       1.0000 0.38680  0.13123  0.15872  Biso   1.000  O
  O3       1.0000 0.38680  0.36877  0.65872  Biso   1.000  O
  O4       1.0000 0.61320  0.86877  0.84128  Biso   1.000  O
  O5       1.0000 0.60656  0.31256  0.34619  Biso   1.000  O
  O6       1.0000 0.39344  0.81256  0.15381  Biso   1.000  O
  O7       1.0000 0.39344  0.68744  0.65381  Biso   1.000  O
  O8       1.0000 0.60656  0.18744  0.84619  Biso   1.000  O
  O9       1.0000 0.71612  0.64350  0.18850  Biso   1.000  O
  O10      1.0000 0.28388  0.14350  0.31150  Biso   1.000  O
  O11      1.0000 0.28388  0.35650  0.81150  Biso   1.000  O
  O12      1.0000 0.71612  0.85650  0.68850  Biso   1.000  O
  H1       1.0000 0.73100  0.70400  0.15780  Biso   1.000  H
  H2       1.0000 0.26900  0.20400  0.34220  Biso   1.000  H
  H3       1.0000 0.26900  0.29600  0.84220  Biso   1.000  H
  H4       1.0000 0.73100  0.79600  0.65780  Biso   1.000  H
  N1       1.0000 0.39880  0.47424  0.22935  Biso   1.000  N
  N2       1.0000 0.60120  0.97424  0.27065  Biso   1.000  N
  N3       1.0000 0.60120  0.52576  0.77065  Biso   1.000  N
  N4       1.0000 0.39880  0.02576  0.72935  Biso   1.000  N
  N5       1.0000 0.27605  0.47562  0.18876  Biso   1.000  N
  N6       1.0000 0.72395  0.97562  0.31124  Biso   1.000  N
  N7       1.0000 0.72395  0.52438  0.81124  Biso   1.000  N
  N8       1.0000 0.27605  0.02438  0.68876  Biso   1.000  N
  N9       1.0000 0.16039  0.47631  0.15225  Biso   1.000  N
  N10      1.0000 0.83961  0.97631  0.34775  Biso   1.000  N
  N11      1.0000 0.83961  0.52369  0.84775  Biso   1.000  N
  N12      1.0000 0.16039  0.02369  0.65225  Biso   1.000  N
  C1       1.0000 0.63697  0.47473  0.37293  Biso   1.000  C
  C2       1.0000 0.36303  0.97473  0.12707  Biso   1.000  C
  C3       1.0000 0.36303  0.52527  0.62707  Biso   1.000  C
  C4       1.0000 0.63697  0.02527  0.87293  Biso   1.000  C
  C5       1.0000 0.71916  0.47631  0.45140  Biso   1.000  C
  C6       1.0000 0.28084  0.97631  0.04860  Biso   1.000  C
  C7       1.0000 0.28084  0.52369  0.54860  Biso   1.000  C
  C8       1.0000 0.71916  0.02369  0.95140  Biso   1.000  C
  C9       1.0000 0.70926  0.61877  0.50346  Biso   1.000  C
  C10      1.0000 0.29074  0.11877  0.99654  Biso   1.000  C
  C11      1.0000 0.29074  0.38123  0.49654  Biso   1.000  C
  C12      1.0000 0.70926  0.88123  0.00346  Biso   1.000  C
  N13      1.0000 0.78594  0.61938  0.57170  Biso   1.000  N
  N14      1.0000 0.21406  0.11938  0.92830  Biso   1.000  N
  N15      1.0000 0.21406  0.38062  0.42830  Biso   1.000  N
  N16      1.0000 0.78594  0.88062  0.07170  Biso   1.000  N
  C13      1.0000 0.88450  0.47701  0.59232  Biso   1.000  C
  C14      1.0000 0.11550  0.97701  0.90768  Biso   1.000  C
  C15      1.0000 0.11550  0.52299  0.40768  Biso   1.000  C
  C16      1.0000 0.88450  0.02299  0.09232  Biso   1.000  C
  C17      1.0000 0.90206  0.32742  0.54471  Biso   1.000  C
  C18      1.0000 0.09794  0.82742  0.95529  Biso   1.000  C
  C19      1.0000 0.09794  0.67258  0.45529  Biso   1.000  C
  C20      1.0000 0.90206  0.17258  0.04471  Biso   1.000  C
  H5       1.0000 0.97154  0.22791  0.55990  Biso   1.000  H
  H6       1.0000 0.02846  0.72791  0.94010  Biso   1.000  H
  H7       1.0000 0.02846  0.77209  0.44010  Biso   1.000  H
  H8       1.0000 0.97154  0.27209  0.05990  Biso   1.000  H
  C21      1.0000 0.81672  0.32569  0.47478  Biso   1.000  C
  C22      1.0000 0.18328  0.82569  0.02522  Biso   1.000  C
  C23      1.0000 0.18328  0.67431  0.52522  Biso   1.000  C
  C24      1.0000 0.81672  0.17431  0.97478  Biso   1.000  C
  H9       1.0000 0.82451  0.22174  0.44258  Biso   1.000  H
  H10      1.0000 0.17549  0.72174  0.05742  Biso   1.000  H
  H11      1.0000 0.17549  0.77826  0.55742  Biso   1.000  H
  H12      1.0000 0.82451  0.27826  0.94258  Biso   1.000  H
  C25      1.0000 0.97350  0.49100  0.66861  Biso   1.000  C
  C26      1.0000 0.02650  0.99100  0.83139  Biso   1.000  C
  C27      1.0000 0.02650  0.50900  0.33139  Biso   1.000  C
  C28      1.0000 0.97350  0.00900  0.16861  Biso   1.000  C
  H13      1.0000 0.02335  0.61477  0.67477  Biso   1.000  H
  H14      1.0000 0.97665  0.11477  0.82523  Biso   1.000  H
  H15      1.0000 0.97665  0.38523  0.32523  Biso   1.000  H
  H16      1.0000 0.02335  0.88523  0.17477  Biso   1.000  H
  H17      1.0000 0.05095  0.39118  0.67530  Biso   1.000  H
  H18      1.0000 0.94905  0.89118  0.82470  Biso   1.000  H
  H19      1.0000 0.94905  0.60882  0.32470  Biso   1.000  H
  H20      1.0000 0.05095  0.10882  0.17530  Biso   1.000  H
  H21      1.0000 0.90432  0.47611  0.70556  Biso   1.000  H
  H22      1.0000 0.09568  0.97611  0.79444  Biso   1.000  H
  H23      1.0000 0.09568  0.52389  0.29444  Biso   1.000  H
  H24      1.0000 0.90432  0.02389  0.20556  Biso   1.000  H
  C29      1.0000 0.75340  0.45410  0.17125  Biso   1.000  C
  C30      1.0000 0.24660  0.95410  0.32875  Biso   1.000  C
  C31      1.0000 0.24660  0.54590  0.82875  Biso   1.000  C
  C32      1.0000 0.75340  0.04590  0.67125  Biso   1.000  C
  H25      1.0000 0.75393  0.37443  0.21523  Biso   1.000  H
  H26      1.0000 0.24607  0.87443  0.28477  Biso   1.000  H
  H27      1.0000 0.24607  0.62557  0.78477  Biso   1.000  H
  H28      1.0000 0.75393  0.12557  0.71523  Biso   1.000  H
  H29      1.0000 0.85447  0.45147  0.15543  Biso   1.000  H
  H30      1.0000 0.14553  0.95147  0.34457  Biso   1.000  H
  H31      1.0000 0.14553  0.54853  0.84457  Biso   1.000  H
  H32      1.0000 0.85447  0.04853  0.65543  Biso   1.000  H
  H33      1.0000 0.67743  0.40616  0.13121  Biso   1.000  H
  H34      1.0000 0.32257  0.90616  0.36879  Biso   1.000  H
  H35      1.0000 0.32257  0.59384  0.86879  Biso   1.000  H
  H36      1.0000 0.67743  0.09384  0.63121  Biso   1.000  H
