data_image0
_cell_length_a       12.7891
_cell_length_b       28.6933
_cell_length_c       11.9318
_cell_angle_alpha    90
_cell_angle_beta     104.934
_cell_angle_gamma    90

_symmetry_space_group_name_H-M    "P 1"
_symmetry_int_tables_number       1

loop_
  _symmetry_equiv_pos_as_xyz
  'x, y, z'

loop_
  _atom_site_label
  _atom_site_occupancy
  _atom_site_fract_x
  _atom_site_fract_y
  _atom_site_fract_z
  _atom_site_thermal_displace_type
  _atom_site_B_iso_or_equiv
  _atom_site_type_symbol
  Cu1      1.0000 0.69381  0.45268  0.62769  Biso   1.000  Cu
  Cu2      1.0000 0.30619  0.95268  0.87231  Biso   1.000  Cu
  Cu3      1.0000 0.30619  0.54732  0.37231  Biso   1.000  Cu
  Cu4      1.0000 0.69381  0.04732  0.12769  Biso   1.000  Cu
  Cl1      1.0000 0.80232  0.51267  0.70466  Biso   1.000  Cl
  Cl2      1.0000 0.19768  0.01267  0.79534  Biso   1.000  Cl
  Cl3      1.0000 0.19768  0.48733  0.29534  Biso   1.000  Cl
  Cl4      1.0000 0.80232  0.98733  0.20466  Biso   1.000  Cl
  N1       1.0000 0.78750  0.41777  0.54930  Biso   1.000  N
  N2       1.0000 0.21250  0.91777  0.95070  Biso   1.000  N
  N3       1.0000 0.21250  0.58223  0.45070  Biso   1.000  N
  N4       1.0000 0.78750  0.08223  0.04930  Biso   1.000  N
  C1       1.0000 0.90080  0.41947  0.58110  Biso   1.000  C
  C2       1.0000 0.09920  0.91947  0.91890  Biso   1.000  C
  C3       1.0000 0.09920  0.58053  0.41890  Biso   1.000  C
  C4       1.0000 0.90080  0.08053  0.08110  Biso   1.000  C
  C5       1.0000 0.95200  0.41426  0.69930  Biso   1.000  C
  C6       1.0000 0.04800  0.91426  0.80070  Biso   1.000  C
  C7       1.0000 0.04800  0.58574  0.30070  Biso   1.000  C
  C8       1.0000 0.95200  0.08574  0.19930  Biso   1.000  C
  H1       1.0000 0.90920  0.40840  0.75210  Biso   1.000  H
  H2       1.0000 0.09080  0.90840  0.74790  Biso   1.000  H
  H3       1.0000 0.09080  0.59160  0.24790  Biso   1.000  H
  H4       1.0000 0.90920  0.09160  0.25210  Biso   1.000  H
  C9       1.0000 0.06160  0.41742  0.74070  Biso   1.000  C
  C10      1.0000 0.93840  0.91742  0.75930  Biso   1.000  C
  C11      1.0000 0.93840  0.58258  0.25930  Biso   1.000  C
  C12      1.0000 0.06160  0.08258  0.24070  Biso   1.000  C
  H5       1.0000 0.09430  0.41270  0.82090  Biso   1.000  H
  H6       1.0000 0.90570  0.91270  0.67910  Biso   1.000  H
  H7       1.0000 0.90570  0.58730  0.17910  Biso   1.000  H
  H8       1.0000 0.09430  0.08730  0.32090  Biso   1.000  H
  C13      1.0000 0.12500  0.42758  0.66570  Biso   1.000  C
  C14      1.0000 0.87500  0.92758  0.83430  Biso   1.000  C
  C15      1.0000 0.87500  0.57242  0.33430  Biso   1.000  C
  C16      1.0000 0.12500  0.07242  0.16570  Biso   1.000  C
  H9       1.0000 0.20130  0.42990  0.69420  Biso   1.000  H
  H10      1.0000 0.79870  0.92990  0.80580  Biso   1.000  H
  H11      1.0000 0.79870  0.57010  0.30580  Biso   1.000  H
  H12      1.0000 0.20130  0.07010  0.19420  Biso   1.000  H
  C17      1.0000 0.07670  0.43436  0.54900  Biso   1.000  C
  C18      1.0000 0.92330  0.93436  0.95100  Biso   1.000  C
  C19      1.0000 0.92330  0.56564  0.45100  Biso   1.000  C
  C20      1.0000 0.07670  0.06564  0.04900  Biso   1.000  C
  H13      1.0000 0.12050  0.44210  0.49840  Biso   1.000  H
  H14      1.0000 0.87950  0.94210  0.00160  Biso   1.000  H
  H15      1.0000 0.87950  0.55790  0.50160  Biso   1.000  H
  H16      1.0000 0.12050  0.05790  0.99840  Biso   1.000  H
  C21      1.0000 0.96490  0.43005  0.50380  Biso   1.000  C
  C22      1.0000 0.03510  0.93005  0.99620  Biso   1.000  C
  C23      1.0000 0.03510  0.56995  0.49620  Biso   1.000  C
  C24      1.0000 0.96490  0.06995  0.00380  Biso   1.000  C
  C25      1.0000 0.91710  0.43230  0.37960  Biso   1.000  C
  C26      1.0000 0.08290  0.93230  0.12040  Biso   1.000  C
  C27      1.0000 0.08290  0.56770  0.62040  Biso   1.000  C
  C28      1.0000 0.91710  0.06770  0.87960  Biso   1.000  C
  N5       1.0000 0.95400  0.46039  0.30430  Biso   1.000  N
  N6       1.0000 0.04600  0.96039  0.19570  Biso   1.000  N
  N7       1.0000 0.04600  0.53961  0.69570  Biso   1.000  N
  N8       1.0000 0.95400  0.03961  0.80430  Biso   1.000  N
  H17      1.0000 0.00670  0.48090  0.32430  Biso   1.000  H
  H18      1.0000 0.99330  0.98090  0.17570  Biso   1.000  H
  H19      1.0000 0.99330  0.51910  0.67570  Biso   1.000  H
  H20      1.0000 0.00670  0.01910  0.82430  Biso   1.000  H
  C29      1.0000 0.89550  0.45133  0.19350  Biso   1.000  C
  C30      1.0000 0.10450  0.95133  0.30650  Biso   1.000  C
  C31      1.0000 0.10450  0.54867  0.80650  Biso   1.000  C
  C32      1.0000 0.89550  0.04867  0.69350  Biso   1.000  C
  C33      1.0000 0.90330  0.46976  0.08680  Biso   1.000  C
  C34      1.0000 0.09670  0.96976  0.41320  Biso   1.000  C
  C35      1.0000 0.09670  0.53024  0.91320  Biso   1.000  C
  C36      1.0000 0.90330  0.03024  0.58680  Biso   1.000  C
  H21      1.0000 0.95170  0.49450  0.08340  Biso   1.000  H
  H22      1.0000 0.04830  0.99450  0.41660  Biso   1.000  H
  H23      1.0000 0.04830  0.50550  0.91660  Biso   1.000  H
  H24      1.0000 0.95170  0.00550  0.58340  Biso   1.000  H
  C37      1.0000 0.83860  0.45080  0.98800  Biso   1.000  C
  C38      1.0000 0.16140  0.95080  0.51200  Biso   1.000  C
  C39      1.0000 0.16140  0.54920  0.01200  Biso   1.000  C
  C40      1.0000 0.83860  0.04920  0.48800  Biso   1.000  C
  H25      1.0000 0.84230  0.46290  0.91500  Biso   1.000  H
  H26      1.0000 0.15770  0.96290  0.58500  Biso   1.000  H
  H27      1.0000 0.15770  0.53710  0.08500  Biso   1.000  H
  H28      1.0000 0.84230  0.03710  0.41500  Biso   1.000  H
  C41      1.0000 0.76740  0.41432  0.99080  Biso   1.000  C
  C42      1.0000 0.23260  0.91432  0.50920  Biso   1.000  C
  C43      1.0000 0.23260  0.58568  0.00920  Biso   1.000  C
  C44      1.0000 0.76740  0.08568  0.49080  Biso   1.000  C
  C45      1.0000 0.75460  0.39772  0.09670  Biso   1.000  C
  C46      1.0000 0.24540  0.89772  0.40330  Biso   1.000  C
  C47      1.0000 0.24540  0.60228  0.90330  Biso   1.000  C
  C48      1.0000 0.75460  0.10228  0.59670  Biso   1.000  C
  H29      1.0000 0.70260  0.37430  0.09880  Biso   1.000  H
  H30      1.0000 0.29740  0.87430  0.40120  Biso   1.000  H
  H31      1.0000 0.29740  0.62570  0.90120  Biso   1.000  H
  H32      1.0000 0.70260  0.12570  0.59880  Biso   1.000  H
  C49      1.0000 0.81950  0.41611  0.19860  Biso   1.000  C
  C50      1.0000 0.18050  0.91611  0.30140  Biso   1.000  C
  C51      1.0000 0.18050  0.58389  0.80140  Biso   1.000  C
  C52      1.0000 0.81950  0.08389  0.69860  Biso   1.000  C
  C53      1.0000 0.83450  0.40535  0.31820  Biso   1.000  C
  C54      1.0000 0.16550  0.90535  0.18180  Biso   1.000  C
  C55      1.0000 0.16550  0.59465  0.68180  Biso   1.000  C
  C56      1.0000 0.83450  0.09465  0.81820  Biso   1.000  C
  C57      1.0000 0.77960  0.36966  0.37500  Biso   1.000  C
  C58      1.0000 0.22040  0.86966  0.12500  Biso   1.000  C
  C59      1.0000 0.22040  0.63034  0.62500  Biso   1.000  C
  C60      1.0000 0.77960  0.13034  0.87500  Biso   1.000  C
  H33      1.0000 0.83290  0.34660  0.41730  Biso   1.000  H
  H34      1.0000 0.16710  0.84660  0.08270  Biso   1.000  H
  H35      1.0000 0.16710  0.65340  0.58270  Biso   1.000  H
  H36      1.0000 0.83290  0.15340  0.91730  Biso   1.000  H
  H37      1.0000 0.72360  0.35290  0.31580  Biso   1.000  H
  H38      1.0000 0.27640  0.85290  0.18420  Biso   1.000  H
  H39      1.0000 0.27640  0.64710  0.68420  Biso   1.000  H
  H40      1.0000 0.72360  0.14710  0.81580  Biso   1.000  H
  C61      1.0000 0.72840  0.39495  0.45790  Biso   1.000  C
  C62      1.0000 0.27160  0.89495  0.04210  Biso   1.000  C
  C63      1.0000 0.27160  0.60505  0.54210  Biso   1.000  C
  C64      1.0000 0.72840  0.10505  0.95790  Biso   1.000  C
  N9       1.0000 0.62090  0.39186  0.43350  Biso   1.000  N
  N10      1.0000 0.37910  0.89186  0.06650  Biso   1.000  N
  N11      1.0000 0.37910  0.60814  0.56650  Biso   1.000  N
  N12      1.0000 0.62090  0.10814  0.93350  Biso   1.000  N
  N13      1.0000 0.58610  0.41933  0.50950  Biso   1.000  N
  N14      1.0000 0.41390  0.91933  0.99050  Biso   1.000  N
  N15      1.0000 0.41390  0.58067  0.49050  Biso   1.000  N
  N16      1.0000 0.58610  0.08067  0.00950  Biso   1.000  N
  C65      1.0000 0.48550  0.42414  0.50740  Biso   1.000  C
  C66      1.0000 0.51450  0.92414  0.99260  Biso   1.000  C
  C67      1.0000 0.51450  0.57586  0.49260  Biso   1.000  C
  C68      1.0000 0.48550  0.07586  0.00740  Biso   1.000  C
  C69      1.0000 0.39600  0.39777  0.42590  Biso   1.000  C
  C70      1.0000 0.60400  0.89777  0.07410  Biso   1.000  C
  C71      1.0000 0.60400  0.60223  0.57410  Biso   1.000  C
  C72      1.0000 0.39600  0.10223  0.92590  Biso   1.000  C
  H41      1.0000 0.42660  0.37780  0.37580  Biso   1.000  H
  H42      1.0000 0.57340  0.87780  0.12420  Biso   1.000  H
  H43      1.0000 0.57340  0.62220  0.62420  Biso   1.000  H
  H44      1.0000 0.42660  0.12220  0.87580  Biso   1.000  H
  H45      1.0000 0.34510  0.41990  0.37800  Biso   1.000  H
  H46      1.0000 0.65490  0.91990  0.12200  Biso   1.000  H
  H47      1.0000 0.65490  0.58010  0.62200  Biso   1.000  H
  H48      1.0000 0.34510  0.08010  0.87800  Biso   1.000  H
  H49      1.0000 0.35800  0.37850  0.47060  Biso   1.000  H
  H50      1.0000 0.64200  0.87850  0.02940  Biso   1.000  H
  H51      1.0000 0.64200  0.62150  0.52940  Biso   1.000  H
  H52      1.0000 0.35800  0.12150  0.97060  Biso   1.000  H
  C73      1.0000 0.46660  0.45717  0.59190  Biso   1.000  C
  C74      1.0000 0.53340  0.95717  0.90810  Biso   1.000  C
  C75      1.0000 0.53340  0.54283  0.40810  Biso   1.000  C
  C76      1.0000 0.46660  0.04283  0.09190  Biso   1.000  C
  C77      1.0000 0.36430  0.47008  0.60150  Biso   1.000  C
  C78      1.0000 0.63570  0.97008  0.89850  Biso   1.000  C
  C79      1.0000 0.63570  0.52992  0.39850  Biso   1.000  C
  C80      1.0000 0.36430  0.02992  0.10150  Biso   1.000  C
  H53      1.0000 0.30130  0.45670  0.55180  Biso   1.000  H
  H54      1.0000 0.69870  0.95670  0.94820  Biso   1.000  H
  H55      1.0000 0.69870  0.54330  0.44820  Biso   1.000  H
  H56      1.0000 0.30130  0.04330  0.05180  Biso   1.000  H
  C81      1.0000 0.35530  0.50221  0.68330  Biso   1.000  C
  C82      1.0000 0.64470  0.00221  0.81670  Biso   1.000  C
  C83      1.0000 0.64470  0.49779  0.31670  Biso   1.000  C
  C84      1.0000 0.35530  0.99779  0.18330  Biso   1.000  C
  H57      1.0000 0.28600  0.51140  0.69040  Biso   1.000  H
  H58      1.0000 0.71400  0.01140  0.80960  Biso   1.000  H
  H59      1.0000 0.71400  0.48860  0.30960  Biso   1.000  H
  H60      1.0000 0.28600  0.98860  0.19040  Biso   1.000  H
  C85      1.0000 0.44610  0.52088  0.75440  Biso   1.000  C
  C86      1.0000 0.55390  0.02088  0.74560  Biso   1.000  C
  C87      1.0000 0.55390  0.47912  0.24560  Biso   1.000  C
  C88      1.0000 0.44610  0.97912  0.25440  Biso   1.000  C
  H61      1.0000 0.44090  0.54320  0.81150  Biso   1.000  H
  H62      1.0000 0.55910  0.04320  0.68850  Biso   1.000  H
  H63      1.0000 0.55910  0.45680  0.18850  Biso   1.000  H
  H64      1.0000 0.44090  0.95680  0.31150  Biso   1.000  H
  C89      1.0000 0.54650  0.50686  0.74250  Biso   1.000  C
  C90      1.0000 0.45350  0.00686  0.75750  Biso   1.000  C
  C91      1.0000 0.45350  0.49314  0.25750  Biso   1.000  C
  C92      1.0000 0.54650  0.99314  0.24250  Biso   1.000  C
  H65      1.0000 0.61010  0.51940  0.79300  Biso   1.000  H
  H66      1.0000 0.38990  0.01940  0.70700  Biso   1.000  H
  H67      1.0000 0.38990  0.48060  0.20700  Biso   1.000  H
  H68      1.0000 0.61010  0.98060  0.29300  Biso   1.000  H
  N17      1.0000 0.55570  0.47630  0.66210  Biso   1.000  N
  N18      1.0000 0.44430  0.97630  0.83790  Biso   1.000  N
  N19      1.0000 0.44430  0.52370  0.33790  Biso   1.000  N
  N20      1.0000 0.55570  0.02370  0.16210  Biso   1.000  N
  O1       1.0000 0.72160  0.40646  0.78690  Biso   1.000  O
  O2       1.0000 0.27840  0.90646  0.71310  Biso   1.000  O
  O3       1.0000 0.27840  0.59354  0.21310  Biso   1.000  O
  O4       1.0000 0.72160  0.09354  0.28690  Biso   1.000  O
  C93      1.0000 0.71580  0.39153  0.87960  Biso   1.000  C
  C94      1.0000 0.28420  0.89153  0.62040  Biso   1.000  C
  C95      1.0000 0.28420  0.60847  0.12040  Biso   1.000  C
  C96      1.0000 0.71580  0.10847  0.37960  Biso   1.000  C
  N21      1.0000 0.66830  0.35033  0.88180  Biso   1.000  N
  N22      1.0000 0.33170  0.85033  0.61820  Biso   1.000  N
  N23      1.0000 0.33170  0.64967  0.11820  Biso   1.000  N
  N24      1.0000 0.66830  0.14967  0.38180  Biso   1.000  N
  H69      1.0000 0.64970  0.34170  0.94480  Biso   1.000  H
  H70      1.0000 0.35030  0.84170  0.55520  Biso   1.000  H
  H71      1.0000 0.35030  0.65830  0.05520  Biso   1.000  H
  H72      1.0000 0.64970  0.15830  0.44480  Biso   1.000  H
  C97      1.0000 0.64620  0.31885  0.77970  Biso   1.000  C
  C98      1.0000 0.35380  0.81885  0.72030  Biso   1.000  C
  C99      1.0000 0.35380  0.68115  0.22030  Biso   1.000  C
  C100     1.0000 0.64620  0.18115  0.27970  Biso   1.000  C
  H73      1.0000 0.62080  0.33780  0.70750  Biso   1.000  H
  H74      1.0000 0.37920  0.83780  0.79250  Biso   1.000  H
  H75      1.0000 0.37920  0.66220  0.29250  Biso   1.000  H
  H76      1.0000 0.62080  0.16220  0.20750  Biso   1.000  H
  C101     1.0000 0.56280  0.28562  0.78650  Biso   1.000  C
  C102     1.0000 0.43720  0.78562  0.71350  Biso   1.000  C
  C103     1.0000 0.43720  0.71438  0.21350  Biso   1.000  C
  C104     1.0000 0.56280  0.21438  0.28650  Biso   1.000  C
  H77      1.0000 0.49680  0.30280  0.79080  Biso   1.000  H
  H78      1.0000 0.50320  0.80280  0.70920  Biso   1.000  H
  H79      1.0000 0.50320  0.69720  0.20920  Biso   1.000  H
  H80      1.0000 0.49680  0.19720  0.29080  Biso   1.000  H
  H81      1.0000 0.58750  0.26710  0.85850  Biso   1.000  H
  H82      1.0000 0.41250  0.76710  0.64150  Biso   1.000  H
  H83      1.0000 0.41250  0.73290  0.14150  Biso   1.000  H
  H84      1.0000 0.58750  0.23290  0.35850  Biso   1.000  H
  C105     1.0000 0.53490  0.25253  0.68280  Biso   1.000  C
  C106     1.0000 0.46510  0.75253  0.81720  Biso   1.000  C
  C107     1.0000 0.46510  0.74747  0.31720  Biso   1.000  C
  C108     1.0000 0.53490  0.24747  0.18280  Biso   1.000  C
  N25      1.0000 0.63580  0.23350  0.65790  Biso   1.000  N
  N26      1.0000 0.36420  0.73350  0.84210  Biso   1.000  N
  N27      1.0000 0.36420  0.76650  0.34210  Biso   1.000  N
  N28      1.0000 0.63580  0.26650  0.15790  Biso   1.000  N
  C109     1.0000 0.73780  0.26104  0.67210  Biso   1.000  C
  C110     1.0000 0.26220  0.76104  0.82790  Biso   1.000  C
  C111     1.0000 0.26220  0.73896  0.32790  Biso   1.000  C
  C112     1.0000 0.73780  0.23896  0.17210  Biso   1.000  C
  C113     1.0000 0.74960  0.29352  0.77570  Biso   1.000  C
  C114     1.0000 0.25040  0.79352  0.72430  Biso   1.000  C
  C115     1.0000 0.25040  0.70648  0.22430  Biso   1.000  C
  C116     1.0000 0.74960  0.20648  0.27570  Biso   1.000  C
  H85      1.0000 0.77490  0.27510  0.84780  Biso   1.000  H
  H86      1.0000 0.22510  0.77510  0.65220  Biso   1.000  H
  H87      1.0000 0.22510  0.72490  0.15220  Biso   1.000  H
  H88      1.0000 0.77490  0.22490  0.34780  Biso   1.000  H
  H89      1.0000 0.80600  0.31700  0.77410  Biso   1.000  H
  H90      1.0000 0.19400  0.81700  0.72590  Biso   1.000  H
  H91      1.0000 0.19400  0.68300  0.22590  Biso   1.000  H
  H92      1.0000 0.80600  0.18300  0.27410  Biso   1.000  H
  O5       1.0000 0.62270  0.20012  0.58320  Biso   1.000  O
  O6       1.0000 0.37730  0.70012  0.91680  Biso   1.000  O
  O7       1.0000 0.37730  0.79988  0.41680  Biso   1.000  O
  O8       1.0000 0.62270  0.29988  0.08320  Biso   1.000  O
  C117     1.0000 0.47020  0.27653  0.57450  Biso   1.000  C
  C118     1.0000 0.52980  0.77653  0.92550  Biso   1.000  C
  C119     1.0000 0.52980  0.72347  0.42550  Biso   1.000  C
  C120     1.0000 0.47020  0.22347  0.07450  Biso   1.000  C
  H93      1.0000 0.40390  0.28960  0.58870  Biso   1.000  H
  H94      1.0000 0.59610  0.78960  0.91130  Biso   1.000  H
  H95      1.0000 0.59610  0.71040  0.41130  Biso   1.000  H
  H96      1.0000 0.40390  0.21040  0.08870  Biso   1.000  H
  H97      1.0000 0.45120  0.25390  0.51090  Biso   1.000  H
  H98      1.0000 0.54880  0.75390  0.98910  Biso   1.000  H
  H99      1.0000 0.54880  0.74610  0.48910  Biso   1.000  H
  H100     1.0000 0.45120  0.24610  0.01090  Biso   1.000  H
  H101     1.0000 0.51340  0.30170  0.55360  Biso   1.000  H
  H102     1.0000 0.48660  0.80170  0.94640  Biso   1.000  H
  H103     1.0000 0.48660  0.69830  0.44640  Biso   1.000  H
  H104     1.0000 0.51340  0.19830  0.05360  Biso   1.000  H
  C121     1.0000 0.47620  0.20951  0.71380  Biso   1.000  C
  C122     1.0000 0.52380  0.70951  0.78620  Biso   1.000  C
  C123     1.0000 0.52380  0.79049  0.28620  Biso   1.000  C
  C124     1.0000 0.47620  0.29049  0.21380  Biso   1.000  C
  H105     1.0000 0.40900  0.21930  0.73200  Biso   1.000  H
  H106     1.0000 0.59100  0.71930  0.76800  Biso   1.000  H
  H107     1.0000 0.59100  0.78070  0.26800  Biso   1.000  H
  H108     1.0000 0.40900  0.28070  0.23200  Biso   1.000  H
  H109     1.0000 0.52290  0.19390  0.78140  Biso   1.000  H
  H110     1.0000 0.47710  0.69390  0.71860  Biso   1.000  H
  H111     1.0000 0.47710  0.80610  0.21860  Biso   1.000  H
  H112     1.0000 0.52290  0.30610  0.28140  Biso   1.000  H
  H113     1.0000 0.45920  0.18800  0.64790  Biso   1.000  H
  H114     1.0000 0.54080  0.68800  0.85210  Biso   1.000  H
  H115     1.0000 0.54080  0.81200  0.35210  Biso   1.000  H
  H116     1.0000 0.45920  0.31200  0.14790  Biso   1.000  H
  C125     1.0000 0.73690  0.28885  0.56410  Biso   1.000  C
  C126     1.0000 0.26310  0.78885  0.93590  Biso   1.000  C
  C127     1.0000 0.26310  0.71115  0.43590  Biso   1.000  C
  C128     1.0000 0.73690  0.21115  0.06410  Biso   1.000  C
  H117     1.0000 0.80510  0.30600  0.57560  Biso   1.000  H
  H118     1.0000 0.19490  0.80600  0.92440  Biso   1.000  H
  H119     1.0000 0.19490  0.69400  0.42440  Biso   1.000  H
  H120     1.0000 0.80510  0.19400  0.07560  Biso   1.000  H
  H121     1.0000 0.67640  0.31090  0.54860  Biso   1.000  H
  H122     1.0000 0.32360  0.81090  0.95140  Biso   1.000  H
  H123     1.0000 0.32360  0.68910  0.45140  Biso   1.000  H
  H124     1.0000 0.67640  0.18910  0.04860  Biso   1.000  H
  H125     1.0000 0.72860  0.26760  0.49800  Biso   1.000  H
  H126     1.0000 0.27140  0.76760  0.00200  Biso   1.000  H
  H127     1.0000 0.27140  0.73240  0.50200  Biso   1.000  H
  H128     1.0000 0.72860  0.23240  0.99800  Biso   1.000  H
  C129     1.0000 0.83410  0.22640  0.69130  Biso   1.000  C
  C130     1.0000 0.16590  0.72640  0.80870  Biso   1.000  C
  C131     1.0000 0.16590  0.77360  0.30870  Biso   1.000  C
  C132     1.0000 0.83410  0.27360  0.19130  Biso   1.000  C
  H129     1.0000 0.90170  0.24390  0.70050  Biso   1.000  H
  H130     1.0000 0.09830  0.74390  0.79950  Biso   1.000  H
  H131     1.0000 0.09830  0.75610  0.29950  Biso   1.000  H
  H132     1.0000 0.90170  0.25610  0.20050  Biso   1.000  H
  H133     1.0000 0.82370  0.20560  0.62410  Biso   1.000  H
  H134     1.0000 0.17630  0.70560  0.87590  Biso   1.000  H
  H135     1.0000 0.17630  0.79440  0.37590  Biso   1.000  H
  H136     1.0000 0.82370  0.29440  0.12410  Biso   1.000  H
  H137     1.0000 0.83770  0.20790  0.76120  Biso   1.000  H
  H138     1.0000 0.16230  0.70790  0.73880  Biso   1.000  H
  H139     1.0000 0.16230  0.79210  0.23880  Biso   1.000  H
  H140     1.0000 0.83770  0.29210  0.26120  Biso   1.000  H
