data_image0
_cell_length_a       7.6561
_cell_length_b       12.4652
_cell_length_c       15.7501
_cell_angle_alpha    80.048
_cell_angle_beta     87.79
_cell_angle_gamma    74.08

_symmetry_space_group_name_H-M    "P 1"
_symmetry_int_tables_number       1

loop_
  _symmetry_equiv_pos_as_xyz
  'x, y, z'

loop_
  _atom_site_label
  _atom_site_occupancy
  _atom_site_fract_x
  _atom_site_fract_y
  _atom_site_fract_z
  _atom_site_thermal_displace_type
  _atom_site_B_iso_or_equiv
  _atom_site_type_symbol
  Cl1      1.0000 0.27910  0.23378  0.02949  Biso   1.000  Cl
  Cl2      1.0000 0.72090  0.76622  0.97051  Biso   1.000  Cl
  Cu1      1.0000 0.38903  0.60915  0.55422  Biso   1.000  Cu
  Cu2      1.0000 0.61097  0.39085  0.44578  Biso   1.000  Cu
  Cu3      1.0000 0.21298  0.61452  0.39165  Biso   1.000  Cu
  Cu4      1.0000 0.78702  0.38548  0.60835  Biso   1.000  Cu
  O1       1.0000 0.30560  0.50520  0.49560  Biso   1.000  O
  O2       1.0000 0.69440  0.49480  0.50440  Biso   1.000  O
  O3       1.0000 0.32330  0.70530  0.44670  Biso   1.000  O
  O4       1.0000 0.67670  0.29470  0.55330  Biso   1.000  O
  O5       1.0000 0.88840  0.66430  0.42910  Biso   1.000  O
  O6       1.0000 0.11160  0.33570  0.57090  Biso   1.000  O
  O7       1.0000 0.61920  0.77650  0.37530  Biso   1.000  O
  O8       1.0000 0.38080  0.22350  0.62470  Biso   1.000  O
  O9       1.0000 0.30610  0.19190  0.95260  Biso   1.000  O
  O10      1.0000 0.69390  0.80810  0.04740  Biso   1.000  O
  O11      1.0000 0.27170  0.15370  0.10230  Biso   1.000  O
  O12      1.0000 0.72830  0.84630  0.89770  Biso   1.000  O
  O13      1.0000 0.41520  0.28600  0.04260  Biso   1.000  O
  O14      1.0000 0.58480  0.71400  0.95740  Biso   1.000  O
  O15      1.0000 0.11150  0.31800  0.02230  Biso   1.000  O
  O16      1.0000 0.88850  0.68200  0.97770  Biso   1.000  O
  N1       1.0000 0.39590  0.53680  0.67870  Biso   1.000  N
  N2       1.0000 0.60410  0.46320  0.32130  Biso   1.000  N
  N3       1.0000 0.45530  0.72790  0.60900  Biso   1.000  N
  N4       1.0000 0.54470  0.27210  0.39100  Biso   1.000  N
  N5       1.0000 0.13350  0.51500  0.32380  Biso   1.000  N
  N6       1.0000 0.86650  0.48500  0.67620  Biso   1.000  N
  N7       1.0000 0.20740  0.70610  0.27370  Biso   1.000  N
  N8       1.0000 0.79260  0.29390  0.72630  Biso   1.000  N
  N9       1.0000 0.98130  0.05350  0.38660  Biso   1.000  N
  N10      1.0000 0.01870  0.94650  0.61340  Biso   1.000  N
  C1       1.0000 0.35870  0.43790  0.70980  Biso   1.000  C
  C2       1.0000 0.64130  0.56210  0.29020  Biso   1.000  C
  H1       1.0000 0.33460  0.39420  0.67020  Biso   1.000  H
  H2       1.0000 0.66540  0.60580  0.32980  Biso   1.000  H
  H3       1.0000 0.32850  0.32630  0.81820  Biso   1.000  H
  H4       1.0000 0.67150  0.67370  0.18180  Biso   1.000  H
  H5       1.0000 0.39300  0.43480  0.91750  Biso   1.000  H
  H6       1.0000 0.60700  0.56520  0.08250  Biso   1.000  H
  H7       1.0000 0.45240  0.60980  0.86400  Biso   1.000  H
  H8       1.0000 0.54760  0.39020  0.13600  Biso   1.000  H
  H9       1.0000 0.51800  0.76500  0.80300  Biso   1.000  H
  H10      1.0000 0.48200  0.23500  0.19700  Biso   1.000  H
  H11      1.0000 0.59300  0.91600  0.72500  Biso   1.000  H
  H12      1.0000 0.40700  0.08400  0.27500  Biso   1.000  H
  H13      1.0000 0.56400  0.95900  0.58200  Biso   1.000  H
  H14      1.0000 0.43600  0.04100  0.41800  Biso   1.000  H
  H15      1.0000 0.47400  0.83200  0.50900  Biso   1.000  H
  H16      1.0000 0.52600  0.16800  0.49100  Biso   1.000  H
  H17      1.0000 0.09400  0.39900  0.41500  Biso   1.000  H
  H18      1.0000 0.90600  0.60100  0.58500  Biso   1.000  H
  H19      1.0000 0.02500  0.29400  0.32600  Biso   1.000  H
  H20      1.0000 0.97500  0.70600  0.67400  Biso   1.000  H
  H21      1.0000 0.02300  0.33700  0.18000  Biso   1.000  H
  H22      1.0000 0.97700  0.66300  0.82000  Biso   1.000  H
  H23      1.0000 0.07800  0.50900  0.12300  Biso   1.000  H
  H24      1.0000 0.92200  0.49100  0.87700  Biso   1.000  H
  H25      1.0000 0.14600  0.67200  0.07700  Biso   1.000  H
  H26      1.0000 0.85400  0.32800  0.92300  Biso   1.000  H
  H27      1.0000 0.23300  0.83900  0.05200  Biso   1.000  H
  H28      1.0000 0.76700  0.16100  0.94800  Biso   1.000  H
  H29      1.0000 0.30400  0.92000  0.15600  Biso   1.000  H
  H30      1.0000 0.69600  0.08000  0.84400  Biso   1.000  H
  H31      1.0000 0.27600  0.83100  0.29700  Biso   1.000  H
  H32      1.0000 0.72400  0.16900  0.70300  Biso   1.000  H
  H33      1.0000 0.92800  0.84100  0.51000  Biso   1.000  H
  H34      1.0000 0.07200  0.15900  0.49000  Biso   1.000  H
  H35      1.0000 0.72900  0.86700  0.23000  Biso   1.000  H
  H36      1.0000 0.27100  0.13300  0.77000  Biso   1.000  H
  H37      1.0000 0.73900  0.98400  0.10200  Biso   1.000  H
  H38      1.0000 0.26100  0.01600  0.89800  Biso   1.000  H
  H39      1.0000 0.88200  0.13200  0.10600  Biso   1.000  H
  H40      1.0000 0.11800  0.86800  0.89400  Biso   1.000  H
  H41      1.0000 0.99400  0.15700  0.23200  Biso   1.000  H
  H42      1.0000 0.00600  0.84300  0.76800  Biso   1.000  H
  C3       1.0000 0.35430  0.39770  0.79630  Biso   1.000  C
  C4       1.0000 0.64570  0.60230  0.20370  Biso   1.000  C
  C5       1.0000 0.39210  0.45960  0.85430  Biso   1.000  C
  C6       1.0000 0.60790  0.54040  0.14570  Biso   1.000  C
  C7       1.0000 0.42880  0.56280  0.82360  Biso   1.000  C
  C8       1.0000 0.57120  0.43720  0.17640  Biso   1.000  C
  C9       1.0000 0.43040  0.59860  0.73560  Biso   1.000  C
  C10      1.0000 0.56960  0.40140  0.26440  Biso   1.000  C
  C11      1.0000 0.46860  0.70530  0.69600  Biso   1.000  C
  C12      1.0000 0.53140  0.29470  0.30400  Biso   1.000  C
  C13      1.0000 0.51930  0.77730  0.74220  Biso   1.000  C
  C14      1.0000 0.48070  0.22270  0.25780  Biso   1.000  C
  C15      1.0000 0.55590  0.87470  0.69780  Biso   1.000  C
  C16      1.0000 0.44410  0.12530  0.30220  Biso   1.000  C
  C17      1.0000 0.54120  0.89680  0.60940  Biso   1.000  C
  C18      1.0000 0.45880  0.10320  0.39060  Biso   1.000  C
  C19      1.0000 0.48930  0.82310  0.56700  Biso   1.000  C
  C20      1.0000 0.51070  0.17690  0.43300  Biso   1.000  C
  C21      1.0000 0.09200  0.41780  0.35660  Biso   1.000  C
  C22      1.0000 0.90800  0.58220  0.64340  Biso   1.000  C
  C23      1.0000 0.04500  0.35130  0.30450  Biso   1.000  C
  C24      1.0000 0.95500  0.64870  0.69550  Biso   1.000  C
  C25      1.0000 0.04240  0.38450  0.21660  Biso   1.000  C
  C26      1.0000 0.95760  0.61550  0.78340  Biso   1.000  C
  C27      1.0000 0.08000  0.48560  0.18260  Biso   1.000  C
  C28      1.0000 0.92000  0.51440  0.81740  Biso   1.000  C
  C29      1.0000 0.12430  0.54960  0.23760  Biso   1.000  C
  C30      1.0000 0.87570  0.45040  0.76240  Biso   1.000  C
  C31      1.0000 0.16650  0.65910  0.20900  Biso   1.000  C
  C32      1.0000 0.83350  0.34090  0.79100  Biso   1.000  C
  C33      1.0000 0.17180  0.70920  0.12320  Biso   1.000  C
  C34      1.0000 0.82820  0.29080  0.87680  Biso   1.000  C
  C35      1.0000 0.22300  0.80790  0.10460  Biso   1.000  C
  C36      1.0000 0.77700  0.19210  0.89540  Biso   1.000  C
  C37      1.0000 0.26650  0.85680  0.16940  Biso   1.000  C
  C38      1.0000 0.73350  0.14320  0.83060  Biso   1.000  C
  C39      1.0000 0.25620  0.80450  0.25350  Biso   1.000  C
  C40      1.0000 0.74380  0.19550  0.74650  Biso   1.000  C
  C41      1.0000 0.97260  0.98530  0.45970  Biso   1.000  C
  C42      1.0000 0.02740  0.01470  0.54030  Biso   1.000  C
  C43      1.0000 0.91500  0.88590  0.46270  Biso   1.000  C
  C44      1.0000 0.08500  0.11410  0.53730  Biso   1.000  C
  C45      1.0000 0.85230  0.86130  0.39070  Biso   1.000  C
  C46      1.0000 0.14770  0.13870  0.60930  Biso   1.000  C
  C47      1.0000 0.84970  0.93610  0.31130  Biso   1.000  C
  C48      1.0000 0.15030  0.06390  0.68870  Biso   1.000  C
  C49      1.0000 0.78560  0.92250  0.23170  Biso   1.000  C
  C50      1.0000 0.21440  0.07750  0.76830  Biso   1.000  C
  C51      1.0000 0.79730  0.99400  0.15760  Biso   1.000  C
  C52      1.0000 0.20270  0.00600  0.84240  Biso   1.000  C
  C53      1.0000 0.87520  0.08270  0.15830  Biso   1.000  C
  C54      1.0000 0.12480  0.91730  0.84170  Biso   1.000  C
  C55      1.0000 0.93760  0.09960  0.23350  Biso   1.000  C
  C56      1.0000 0.06240  0.90040  0.76650  Biso   1.000  C
  C57      1.0000 0.92380  0.02890  0.31230  Biso   1.000  C
  C58      1.0000 0.07620  0.97110  0.68770  Biso   1.000  C
  C59      1.0000 0.78060  0.75840  0.39810  Biso   1.000  C
  C60      1.0000 0.21940  0.24160  0.60190  Biso   1.000  C
  H43      1.0000 0.24700  0.46400  0.52500  Biso   1.000  H
  H44      1.0000 0.75300  0.53600  0.47500  Biso   1.000  H
  H45      1.0000 0.42600  0.71100  0.42300  Biso   1.000  H
  H46      1.0000 0.57400  0.28900  0.57700  Biso   1.000  H
