data_image0
_cell_length_a       28.362
_cell_length_b       11.063
_cell_length_c       8.139
_cell_angle_alpha    90
_cell_angle_beta     90
_cell_angle_gamma    90

_symmetry_space_group_name_H-M    "P 1"
_symmetry_int_tables_number       1

loop_
  _symmetry_equiv_pos_as_xyz
  'x, y, z'

loop_
  _atom_site_label
  _atom_site_occupancy
  _atom_site_fract_x
  _atom_site_fract_y
  _atom_site_fract_z
  _atom_site_thermal_displace_type
  _atom_site_B_iso_or_equiv
  _atom_site_type_symbol
  Cu1      1.0000 0.17490  0.03370  0.25840  Biso   1.000  Cu
  Cu2      1.0000 0.67490  0.46630  0.74160  Biso   1.000  Cu
  Cu3      1.0000 0.82510  0.53370  0.24160  Biso   1.000  Cu
  Cu4      1.0000 0.32510  0.96630  0.75840  Biso   1.000  Cu
  Cl1      1.0000 0.10670  0.60950  0.94630  Biso   1.000  Cl
  Cl2      1.0000 0.60670  0.89050  0.05370  Biso   1.000  Cl
  Cl3      1.0000 0.89330  0.10950  0.55370  Biso   1.000  Cl
  Cl4      1.0000 0.39330  0.39050  0.44630  Biso   1.000  Cl
  N1       1.0000 0.18140  0.89170  0.10520  Biso   1.000  N
  N2       1.0000 0.68140  0.60830  0.89480  Biso   1.000  N
  N3       1.0000 0.81860  0.39170  0.39480  Biso   1.000  N
  N4       1.0000 0.31860  0.10830  0.60520  Biso   1.000  N
  N5       1.0000 0.11650  0.27090  0.95820  Biso   1.000  N
  N6       1.0000 0.61650  0.22910  0.04180  Biso   1.000  N
  N7       1.0000 0.88350  0.77090  0.54180  Biso   1.000  N
  N8       1.0000 0.38350  0.72910  0.45820  Biso   1.000  N
  N9       1.0000 0.12160  0.98130  0.39630  Biso   1.000  N
  N10      1.0000 0.62160  0.51870  0.60370  Biso   1.000  N
  N11      1.0000 0.87840  0.48130  0.10370  Biso   1.000  N
  N12      1.0000 0.37840  0.01870  0.89630  Biso   1.000  N
  N13      1.0000 0.15740  0.19340  0.34940  Biso   1.000  N
  N14      1.0000 0.65740  0.30660  0.65060  Biso   1.000  N
  N15      1.0000 0.84260  0.69340  0.15060  Biso   1.000  N
  N16      1.0000 0.34260  0.80660  0.84940  Biso   1.000  N
  C1       1.0000 0.23720  0.04130  0.00400  Biso   1.000  C
  C2       1.0000 0.73720  0.45870  0.99600  Biso   1.000  C
  C3       1.0000 0.76280  0.54130  0.49600  Biso   1.000  C
  C4       1.0000 0.26280  0.95870  0.50400  Biso   1.000  C
  C5       1.0000 0.20420  0.93700  0.95420  Biso   1.000  C
  C6       1.0000 0.70420  0.56300  0.04580  Biso   1.000  C
  C7       1.0000 0.79580  0.43700  0.54580  Biso   1.000  C
  C8       1.0000 0.29580  0.06300  0.45420  Biso   1.000  C
  C9       1.0000 0.16760  0.98430  0.83020  Biso   1.000  C
  C10      1.0000 0.66760  0.51570  0.16980  Biso   1.000  C
  C11      1.0000 0.83240  0.48430  0.66980  Biso   1.000  C
  C12      1.0000 0.33240  0.01570  0.33020  Biso   1.000  C
  C13      1.0000 0.13720  0.08620  0.89530  Biso   1.000  C
  C14      1.0000 0.63720  0.41380  0.10470  Biso   1.000  C
  C15      1.0000 0.86280  0.58620  0.60470  Biso   1.000  C
  C16      1.0000 0.36280  0.91380  0.39530  Biso   1.000  C
  C17      1.0000 0.15140  0.20780  0.88250  Biso   1.000  C
  C18      1.0000 0.65140  0.29220  0.11750  Biso   1.000  C
  C19      1.0000 0.84860  0.70780  0.61750  Biso   1.000  C
  C20      1.0000 0.34860  0.79220  0.38250  Biso   1.000  C
  C21      1.0000 0.08000  0.20160  0.02260  Biso   1.000  C
  C22      1.0000 0.58000  0.29840  0.97740  Biso   1.000  C
  C23      1.0000 0.92000  0.70160  0.47740  Biso   1.000  C
  C24      1.0000 0.42000  0.79840  0.52260  Biso   1.000  C
  C25      1.0000 0.09390  0.07500  0.98060  Biso   1.000  C
  C26      1.0000 0.59390  0.42500  0.01940  Biso   1.000  C
  C27      1.0000 0.90610  0.57500  0.51940  Biso   1.000  C
  C28      1.0000 0.40610  0.92500  0.48060  Biso   1.000  C
  C29      1.0000 0.06420  0.98500  0.03200  Biso   1.000  C
  C30      1.0000 0.56420  0.51500  0.96800  Biso   1.000  C
  C31      1.0000 0.93580  0.48500  0.46800  Biso   1.000  C
  C32      1.0000 0.43580  0.01500  0.53200  Biso   1.000  C
  C33      1.0000 0.02420  0.00990  0.11660  Biso   1.000  C
  C34      1.0000 0.52420  0.49010  0.88340  Biso   1.000  C
  C35      1.0000 0.97580  0.50990  0.38340  Biso   1.000  C
  C36      1.0000 0.47580  0.99010  0.61660  Biso   1.000  C
  C37      1.0000 0.01200  0.12320  0.15350  Biso   1.000  C
  C38      1.0000 0.51200  0.37680  0.84650  Biso   1.000  C
  C39      1.0000 0.98800  0.62320  0.34650  Biso   1.000  C
  C40      1.0000 0.48800  0.87680  0.65350  Biso   1.000  C
  C41      1.0000 0.04070  0.21480  0.11440  Biso   1.000  C
  C42      1.0000 0.54070  0.28520  0.88560  Biso   1.000  C
  C43      1.0000 0.95930  0.71480  0.38560  Biso   1.000  C
  C44      1.0000 0.45930  0.78520  0.61440  Biso   1.000  C
  C45      1.0000 0.10430  0.87180  0.42610  Biso   1.000  C
  C46      1.0000 0.60430  0.62820  0.57390  Biso   1.000  C
  C47      1.0000 0.89570  0.37180  0.07390  Biso   1.000  C
  C48      1.0000 0.39570  0.12820  0.92610  Biso   1.000  C
  C49      1.0000 0.06510  0.84690  0.52870  Biso   1.000  C
  C50      1.0000 0.56510  0.65310  0.47130  Biso   1.000  C
  C51      1.0000 0.93490  0.34690  0.97130  Biso   1.000  C
  C52      1.0000 0.43490  0.15310  0.02870  Biso   1.000  C
  C53      1.0000 0.04200  0.94140  0.59540  Biso   1.000  C
  C54      1.0000 0.54200  0.55860  0.40460  Biso   1.000  C
  C55      1.0000 0.95800  0.44140  0.90460  Biso   1.000  C
  C56      1.0000 0.45800  0.05860  0.09540  Biso   1.000  C
  C57      1.0000 0.05920  0.06240  0.56530  Biso   1.000  C
  C58      1.0000 0.55920  0.43760  0.43470  Biso   1.000  C
  C59      1.0000 0.94080  0.56240  0.93470  Biso   1.000  C
  C60      1.0000 0.44080  0.93760  0.06530  Biso   1.000  C
  C61      1.0000 0.09940  0.07150  0.46660  Biso   1.000  C
  C62      1.0000 0.59940  0.42850  0.53340  Biso   1.000  C
  C63      1.0000 0.90060  0.57150  0.03340  Biso   1.000  C
  C64      1.0000 0.40060  0.92850  0.96660  Biso   1.000  C
  C65      1.0000 0.11800  0.19120  0.44080  Biso   1.000  C
  C66      1.0000 0.61800  0.30880  0.55920  Biso   1.000  C
  C67      1.0000 0.88200  0.69120  0.05920  Biso   1.000  C
  C68      1.0000 0.38200  0.80880  0.94080  Biso   1.000  C
  C69      1.0000 0.09540  0.29260  0.50910  Biso   1.000  C
  C70      1.0000 0.59540  0.20740  0.49090  Biso   1.000  C
  C71      1.0000 0.90460  0.79260  0.99090  Biso   1.000  C
  C72      1.0000 0.40460  0.70740  0.00910  Biso   1.000  C
  C73      1.0000 0.11610  0.39880  0.47580  Biso   1.000  C
  C74      1.0000 0.61610  0.10120  0.52420  Biso   1.000  C
  C75      1.0000 0.88390  0.89880  0.02420  Biso   1.000  C
  C76      1.0000 0.38390  0.60120  0.97580  Biso   1.000  C
  C77      1.0000 0.15610  0.40730  0.38260  Biso   1.000  C
  C78      1.0000 0.65610  0.09270  0.61740  Biso   1.000  C
  C79      1.0000 0.84390  0.90730  0.11740  Biso   1.000  C
  C80      1.0000 0.34390  0.59270  0.88260  Biso   1.000  C
  C81      1.0000 0.17590  0.29690  0.31770  Biso   1.000  C
  C82      1.0000 0.67590  0.20310  0.68230  Biso   1.000  C
  C83      1.0000 0.82410  0.79690  0.18230  Biso   1.000  C
  C84      1.0000 0.32410  0.70310  0.81770  Biso   1.000  C
  C85      1.0000 0.03580  0.16480  0.63110  Biso   1.000  C
  C86      1.0000 0.53580  0.33520  0.36890  Biso   1.000  C
  C87      1.0000 0.96420  0.66480  0.86890  Biso   1.000  C
  C88      1.0000 0.46420  0.83520  0.13110  Biso   1.000  C
  C89      1.0000 0.05400  0.27510  0.60160  Biso   1.000  C
  C90      1.0000 0.55400  0.22490  0.39840  Biso   1.000  C
  C91      1.0000 0.94600  0.77510  0.89840  Biso   1.000  C
  C92      1.0000 0.44600  0.72490  0.10160  Biso   1.000  C
  O1       1.0000 0.22610  0.09520  0.13220  Biso   1.000  O
  O2       1.0000 0.72610  0.40480  0.86780  Biso   1.000  O
  O3       1.0000 0.77390  0.59520  0.36780  Biso   1.000  O
  O4       1.0000 0.27390  0.90480  0.63220  Biso   1.000  O
  O5       1.0000 0.27280  0.06290  0.92210  Biso   1.000  O
  O6       1.0000 0.77280  0.43710  0.07790  Biso   1.000  O
  O7       1.0000 0.72720  0.56290  0.57790  Biso   1.000  O
  O8       1.0000 0.22720  0.93710  0.42210  Biso   1.000  O
  O9       1.0000 0.10250  0.68620  0.08220  Biso   1.000  O
  O10      1.0000 0.60250  0.81380  0.91780  Biso   1.000  O
  O11      1.0000 0.89750  0.18620  0.41780  Biso   1.000  O
  O12      1.0000 0.39750  0.31380  0.58220  Biso   1.000  O
  O13      1.0000 0.14400  0.54310  0.96790  Biso   1.000  O
  O14      1.0000 0.64400  0.95690  0.03210  Biso   1.000  O
  O15      1.0000 0.85600  0.04310  0.53210  Biso   1.000  O
  O16      1.0000 0.35600  0.45690  0.46790  Biso   1.000  O
  O17      1.0000 0.10420  0.68620  0.81030  Biso   1.000  O
  O18      1.0000 0.60420  0.81380  0.18970  Biso   1.000  O
  O19      1.0000 0.89580  0.18620  0.68970  Biso   1.000  O
  O20      1.0000 0.39580  0.31380  0.31030  Biso   1.000  O
  O21      1.0000 0.06800  0.53350  0.94580  Biso   1.000  O
  O22      1.0000 0.56800  0.96650  0.05420  Biso   1.000  O
  O23      1.0000 0.93200  0.03350  0.55420  Biso   1.000  O
  O24      1.0000 0.43200  0.46650  0.44580  Biso   1.000  O
  O25      1.0000 0.20630  0.69040  0.51200  Biso   1.000  O
  O26      1.0000 0.70630  0.80960  0.48800  Biso   1.000  O
  O27      1.0000 0.79370  0.19040  0.98800  Biso   1.000  O
  O28      1.0000 0.29370  0.30960  0.01200  Biso   1.000  O
  O29      1.0000 0.25970  0.34210  0.66530  Biso   1.000  O
  O30      1.0000 0.75970  0.15790  0.33470  Biso   1.000  O
  O31      1.0000 0.74030  0.84210  0.83470  Biso   1.000  O
  O32      1.0000 0.24030  0.65790  0.16530  Biso   1.000  O
  O33      1.0000 0.21280  0.52940  0.78490  Biso   1.000  O
  O34      1.0000 0.71280  0.97060  0.21510  Biso   1.000  O
  O35      1.0000 0.78720  0.02940  0.71510  Biso   1.000  O
  O36      1.0000 0.28720  0.47060  0.28490  Biso   1.000  O
