data_image0
_cell_length_a       11.752
_cell_length_b       17.795
_cell_length_c       9.594
_cell_angle_alpha    90
_cell_angle_beta     107.95
_cell_angle_gamma    90

_symmetry_space_group_name_H-M    "P 1"
_symmetry_int_tables_number       1

loop_
  _symmetry_equiv_pos_as_xyz
  'x, y, z'

loop_
  _atom_site_label
  _atom_site_occupancy
  _atom_site_fract_x
  _atom_site_fract_y
  _atom_site_fract_z
  _atom_site_thermal_displace_type
  _atom_site_B_iso_or_equiv
  _atom_site_type_symbol
  Ag1      1.0000 0.00000  0.78580  0.75000  Biso   1.000  Ag
  Ag2      1.0000 0.50000  0.28580  0.75000  Biso   1.000  Ag
  Ag3      1.0000 0.00000  0.21420  0.25000  Biso   1.000  Ag
  Ag4      1.0000 0.50000  0.71420  0.25000  Biso   1.000  Ag
  Cu1      1.0000 0.00000  0.07767  0.75000  Biso   1.000  Cu
  Cu2      1.0000 0.50000  0.57767  0.75000  Biso   1.000  Cu
  Cu3      1.0000 0.00000  0.92233  0.25000  Biso   1.000  Cu
  Cu4      1.0000 0.50000  0.42233  0.25000  Biso   1.000  Cu
  Ag5      1.0000 0.75000  0.25000  0.00000  Biso   1.000  Ag
  Ag6      1.0000 0.25000  0.75000  0.00000  Biso   1.000  Ag
  Ag7      1.0000 0.75000  0.75000  0.50000  Biso   1.000  Ag
  Ag8      1.0000 0.25000  0.25000  0.50000  Biso   1.000  Ag
  N1       1.0000 0.89784  0.14811  0.83750  Biso   1.000  N
  N2       1.0000 0.39784  0.64811  0.83750  Biso   1.000  N
  N3       1.0000 0.89784  0.85189  0.33750  Biso   1.000  N
  N4       1.0000 0.39784  0.35189  0.33750  Biso   1.000  N
  N5       1.0000 0.10216  0.85189  0.16250  Biso   1.000  N
  N6       1.0000 0.60216  0.35189  0.16250  Biso   1.000  N
  N7       1.0000 0.10216  0.14811  0.66250  Biso   1.000  N
  N8       1.0000 0.60216  0.64811  0.66250  Biso   1.000  N
  C1       1.0000 0.84420  0.18406  0.89460  Biso   1.000  C
  C2       1.0000 0.34420  0.68406  0.89460  Biso   1.000  C
  C3       1.0000 0.84420  0.81594  0.39460  Biso   1.000  C
  C4       1.0000 0.34420  0.31594  0.39460  Biso   1.000  C
  C5       1.0000 0.15580  0.81594  0.10540  Biso   1.000  C
  C6       1.0000 0.65580  0.31594  0.10540  Biso   1.000  C
  C7       1.0000 0.15580  0.18406  0.60540  Biso   1.000  C
  C8       1.0000 0.65580  0.68406  0.60540  Biso   1.000  C
  N9       1.0000 0.00000  0.96613  0.75000  Biso   1.000  N
  N10      1.0000 0.50000  0.46613  0.75000  Biso   1.000  N
  N11      1.0000 0.00000  0.03387  0.25000  Biso   1.000  N
  N12      1.0000 0.50000  0.53387  0.25000  Biso   1.000  N
  C9       1.0000 0.00000  0.90174  0.75000  Biso   1.000  C
  C10      1.0000 0.50000  0.40174  0.75000  Biso   1.000  C
  C11      1.0000 0.00000  0.09826  0.25000  Biso   1.000  C
  C12      1.0000 0.50000  0.59826  0.25000  Biso   1.000  C
  N13      1.0000 0.00000  0.60646  0.75000  Biso   1.000  N
  N14      1.0000 0.50000  0.10646  0.75000  Biso   1.000  N
  N15      1.0000 0.00000  0.39354  0.25000  Biso   1.000  N
  N16      1.0000 0.50000  0.89354  0.25000  Biso   1.000  N
  C13      1.0000 0.00000  0.67030  0.75000  Biso   1.000  C
  C14      1.0000 0.50000  0.17030  0.75000  Biso   1.000  C
  C15      1.0000 0.00000  0.32970  0.25000  Biso   1.000  C
  C16      1.0000 0.50000  0.82970  0.25000  Biso   1.000  C
  N17      1.0000 0.13181  0.07991  0.94640  Biso   1.000  N
  N18      1.0000 0.63181  0.57991  0.94640  Biso   1.000  N
  N19      1.0000 0.13181  0.92009  0.44640  Biso   1.000  N
  N20      1.0000 0.63181  0.42009  0.44640  Biso   1.000  N
  N21      1.0000 0.86819  0.92009  0.05360  Biso   1.000  N
  N22      1.0000 0.36819  0.42009  0.05360  Biso   1.000  N
  N23      1.0000 0.86819  0.07991  0.55360  Biso   1.000  N
  N24      1.0000 0.36819  0.57991  0.55360  Biso   1.000  N
  C17      1.0000 0.16930  0.14721  0.00700  Biso   1.000  C
  C18      1.0000 0.66930  0.64721  0.00700  Biso   1.000  C
  C19      1.0000 0.16930  0.85279  0.50700  Biso   1.000  C
  C20      1.0000 0.66930  0.35279  0.50700  Biso   1.000  C
  C21      1.0000 0.83070  0.85279  0.99300  Biso   1.000  C
  C22      1.0000 0.33070  0.35279  0.99300  Biso   1.000  C
  C23      1.0000 0.83070  0.14721  0.49300  Biso   1.000  C
  C24      1.0000 0.33070  0.64721  0.49300  Biso   1.000  C
  H1       1.0000 0.13460  0.19040  0.95710  Biso   1.000  H
  H2       1.0000 0.63460  0.69040  0.95710  Biso   1.000  H
  H3       1.0000 0.13460  0.80960  0.45710  Biso   1.000  H
  H4       1.0000 0.63460  0.30960  0.45710  Biso   1.000  H
  H5       1.0000 0.86540  0.80960  0.04290  Biso   1.000  H
  H6       1.0000 0.36540  0.30960  0.04290  Biso   1.000  H
  H7       1.0000 0.86540  0.19040  0.54290  Biso   1.000  H
  H8       1.0000 0.36540  0.69040  0.54290  Biso   1.000  H
  C25      1.0000 0.25630  0.15472  0.13890  Biso   1.000  C
  C26      1.0000 0.75630  0.65472  0.13890  Biso   1.000  C
  C27      1.0000 0.25630  0.84528  0.63890  Biso   1.000  C
  C28      1.0000 0.75630  0.34528  0.63890  Biso   1.000  C
  C29      1.0000 0.74370  0.84528  0.86110  Biso   1.000  C
  C30      1.0000 0.24370  0.34528  0.86110  Biso   1.000  C
  C31      1.0000 0.74370  0.15472  0.36110  Biso   1.000  C
  C32      1.0000 0.24370  0.65472  0.36110  Biso   1.000  C
  H9       1.0000 0.27960  0.20240  0.17670  Biso   1.000  H
  H10      1.0000 0.77960  0.70240  0.17670  Biso   1.000  H
  H11      1.0000 0.27960  0.79760  0.67670  Biso   1.000  H
  H12      1.0000 0.77960  0.29760  0.67670  Biso   1.000  H
  H13      1.0000 0.72040  0.79760  0.82330  Biso   1.000  H
  H14      1.0000 0.22040  0.29760  0.82330  Biso   1.000  H
  H15      1.0000 0.72040  0.20240  0.32330  Biso   1.000  H
  H16      1.0000 0.22040  0.70240  0.32330  Biso   1.000  H
  C33      1.0000 0.31030  0.09169  0.21690  Biso   1.000  C
  C34      1.0000 0.81030  0.59169  0.21690  Biso   1.000  C
  C35      1.0000 0.31030  0.90831  0.71690  Biso   1.000  C
  C36      1.0000 0.81030  0.40831  0.71690  Biso   1.000  C
  C37      1.0000 0.68970  0.90831  0.78310  Biso   1.000  C
  C38      1.0000 0.18970  0.40831  0.78310  Biso   1.000  C
  C39      1.0000 0.68970  0.09169  0.28310  Biso   1.000  C
  C40      1.0000 0.18970  0.59169  0.28310  Biso   1.000  C
  C41      1.0000 0.27150  0.02265  0.15370  Biso   1.000  C
  C42      1.0000 0.77150  0.52265  0.15370  Biso   1.000  C
  C43      1.0000 0.27150  0.97735  0.65370  Biso   1.000  C
  C44      1.0000 0.77150  0.47735  0.65370  Biso   1.000  C
  C45      1.0000 0.72850  0.97735  0.84630  Biso   1.000  C
  C46      1.0000 0.22850  0.47735  0.84630  Biso   1.000  C
  C47      1.0000 0.72850  0.02265  0.34630  Biso   1.000  C
  C48      1.0000 0.22850  0.52265  0.34630  Biso   1.000  C
  H17      1.0000 0.30530  0.97870  0.20100  Biso   1.000  H
  H18      1.0000 0.80530  0.47870  0.20100  Biso   1.000  H
  H19      1.0000 0.30530  0.02130  0.70100  Biso   1.000  H
  H20      1.0000 0.80530  0.52130  0.70100  Biso   1.000  H
  H21      1.0000 0.69470  0.02130  0.79900  Biso   1.000  H
  H22      1.0000 0.19470  0.52130  0.79900  Biso   1.000  H
  H23      1.0000 0.69470  0.97870  0.29900  Biso   1.000  H
  H24      1.0000 0.19470  0.47870  0.29900  Biso   1.000  H
  C49      1.0000 0.18350  0.01912  0.02130  Biso   1.000  C
  C50      1.0000 0.68350  0.51912  0.02130  Biso   1.000  C
  C51      1.0000 0.18350  0.98088  0.52130  Biso   1.000  C
  C52      1.0000 0.68350  0.48088  0.52130  Biso   1.000  C
  C53      1.0000 0.81650  0.98088  0.97870  Biso   1.000  C
  C54      1.0000 0.31650  0.48088  0.97870  Biso   1.000  C
  C55      1.0000 0.81650  0.01912  0.47870  Biso   1.000  C
  C56      1.0000 0.31650  0.51912  0.47870  Biso   1.000  C
  H25      1.0000 0.15840  0.97200  0.98160  Biso   1.000  H
  H26      1.0000 0.65840  0.47200  0.98160  Biso   1.000  H
  H27      1.0000 0.15840  0.02800  0.48160  Biso   1.000  H
  H28      1.0000 0.65840  0.52800  0.48160  Biso   1.000  H
  H29      1.0000 0.84160  0.02800  0.01840  Biso   1.000  H
  H30      1.0000 0.34160  0.52800  0.01840  Biso   1.000  H
  H31      1.0000 0.84160  0.97200  0.51840  Biso   1.000  H
  H32      1.0000 0.34160  0.47200  0.51840  Biso   1.000  H
  C57      1.0000 0.40370  0.09699  0.36360  Biso   1.000  C
  C58      1.0000 0.90370  0.59699  0.36360  Biso   1.000  C
  C59      1.0000 0.40370  0.90301  0.86360  Biso   1.000  C
  C60      1.0000 0.90370  0.40301  0.86360  Biso   1.000  C
  C61      1.0000 0.59630  0.90301  0.63640  Biso   1.000  C
  C62      1.0000 0.09630  0.40301  0.63640  Biso   1.000  C
  C63      1.0000 0.59630  0.09699  0.13640  Biso   1.000  C
  C64      1.0000 0.09630  0.59699  0.13640  Biso   1.000  C
  H33      1.0000 0.44810  0.14270  0.36900  Biso   1.000  H
  H34      1.0000 0.94810  0.64270  0.36900  Biso   1.000  H
  H35      1.0000 0.44810  0.85730  0.86900  Biso   1.000  H
  H36      1.0000 0.94810  0.35730  0.86900  Biso   1.000  H
  H37      1.0000 0.55190  0.85730  0.63100  Biso   1.000  H
  H38      1.0000 0.05190  0.35730  0.63100  Biso   1.000  H
  H39      1.0000 0.55190  0.14270  0.13100  Biso   1.000  H
  H40      1.0000 0.05190  0.64270  0.13100  Biso   1.000  H
  H41      1.0000 0.36590  0.09670  0.43920  Biso   1.000  H
  H42      1.0000 0.86590  0.59670  0.43920  Biso   1.000  H
  H43      1.0000 0.36590  0.90330  0.93920  Biso   1.000  H
  H44      1.0000 0.86590  0.40330  0.93920  Biso   1.000  H
  H45      1.0000 0.63410  0.90330  0.56080  Biso   1.000  H
  H46      1.0000 0.13410  0.40330  0.56080  Biso   1.000  H
  H47      1.0000 0.63410  0.09670  0.06080  Biso   1.000  H
  H48      1.0000 0.13410  0.59670  0.06080  Biso   1.000  H
  H49      1.0000 0.45700  0.05490  0.37660  Biso   1.000  H
  H50      1.0000 0.95700  0.55490  0.37660  Biso   1.000  H
  H51      1.0000 0.45700  0.94510  0.87660  Biso   1.000  H
  H52      1.0000 0.95700  0.44510  0.87660  Biso   1.000  H
  H53      1.0000 0.54300  0.94510  0.62340  Biso   1.000  H
  H54      1.0000 0.04300  0.44510  0.62340  Biso   1.000  H
  H55      1.0000 0.54300  0.05490  0.12340  Biso   1.000  H
  H56      1.0000 0.04300  0.55490  0.12340  Biso   1.000  H
