data_image0
_cell_length_a       22.247
_cell_length_b       6.888
_cell_length_c       15.211
_cell_angle_alpha    90
_cell_angle_beta     93.07
_cell_angle_gamma    90

_symmetry_space_group_name_H-M    "P 1"
_symmetry_int_tables_number       1

loop_
  _symmetry_equiv_pos_as_xyz
  'x, y, z'

loop_
  _atom_site_label
  _atom_site_occupancy
  _atom_site_fract_x
  _atom_site_fract_y
  _atom_site_fract_z
  _atom_site_thermal_displace_type
  _atom_site_B_iso_or_equiv
  _atom_site_type_symbol
  Cu1      1.0000 0.25000  0.25000  0.00000  Biso   1.000  Cu
  Cu2      1.0000 0.75000  0.75000  0.00000  Biso   1.000  Cu
  Cu3      1.0000 0.25000  0.75000  0.50000  Biso   1.000  Cu
  Cu4      1.0000 0.75000  0.25000  0.50000  Biso   1.000  Cu
  Cl1      1.0000 0.93866  0.21080  0.12793  Biso   1.000  Cl
  Cl2      1.0000 0.43866  0.71080  0.12793  Biso   1.000  Cl
  Cl3      1.0000 0.93866  0.78920  0.62793  Biso   1.000  Cl
  Cl4      1.0000 0.43866  0.28920  0.62793  Biso   1.000  Cl
  Cl5      1.0000 0.06134  0.78920  0.87207  Biso   1.000  Cl
  Cl6      1.0000 0.56134  0.28920  0.87207  Biso   1.000  Cl
  Cl7      1.0000 0.06134  0.21080  0.37207  Biso   1.000  Cl
  Cl8      1.0000 0.56134  0.71080  0.37207  Biso   1.000  Cl
  Cl9      1.0000 0.13731  0.71260  0.19823  Biso   1.000  Cl
  Cl10     1.0000 0.63731  0.21260  0.19823  Biso   1.000  Cl
  Cl11     1.0000 0.13731  0.28740  0.69823  Biso   1.000  Cl
  Cl12     1.0000 0.63731  0.78740  0.69823  Biso   1.000  Cl
  Cl13     1.0000 0.86269  0.28740  0.80177  Biso   1.000  Cl
  Cl14     1.0000 0.36269  0.78740  0.80177  Biso   1.000  Cl
  Cl15     1.0000 0.86269  0.71260  0.30177  Biso   1.000  Cl
  Cl16     1.0000 0.36269  0.21260  0.30177  Biso   1.000  Cl
  O1       1.0000 0.16510  0.25470  0.95690  Biso   1.000  O
  O2       1.0000 0.66510  0.75470  0.95690  Biso   1.000  O
  O3       1.0000 0.16510  0.74530  0.45690  Biso   1.000  O
  O4       1.0000 0.66510  0.24530  0.45690  Biso   1.000  O
  O5       1.0000 0.83490  0.74530  0.04310  Biso   1.000  O
  O6       1.0000 0.33490  0.24530  0.04310  Biso   1.000  O
  O7       1.0000 0.83490  0.25470  0.54310  Biso   1.000  O
  O8       1.0000 0.33490  0.75470  0.54310  Biso   1.000  O
  O9       1.0000 0.17720  0.57290  0.24140  Biso   1.000  O
  O10      1.0000 0.67720  0.07290  0.24140  Biso   1.000  O
  O11      1.0000 0.17720  0.42710  0.74140  Biso   1.000  O
  O12      1.0000 0.67720  0.92710  0.74140  Biso   1.000  O
  O13      1.0000 0.82280  0.42710  0.75860  Biso   1.000  O
  O14      1.0000 0.32280  0.92710  0.75860  Biso   1.000  O
  O15      1.0000 0.82280  0.57290  0.25860  Biso   1.000  O
  O16      1.0000 0.32280  0.07290  0.25860  Biso   1.000  O
  O17      1.0000 0.15580  0.90000  0.22780  Biso   1.000  O
  O18      1.0000 0.65580  0.40000  0.22780  Biso   1.000  O
  O19      1.0000 0.15580  0.10000  0.72780  Biso   1.000  O
  O20      1.0000 0.65580  0.60000  0.72780  Biso   1.000  O
  O21      1.0000 0.84420  0.10000  0.77220  Biso   1.000  O
  O22      1.0000 0.34420  0.60000  0.77220  Biso   1.000  O
  O23      1.0000 0.84420  0.90000  0.27220  Biso   1.000  O
  O24      1.0000 0.34420  0.40000  0.27220  Biso   1.000  O
  O25      1.0000 0.07730  0.68240  0.22020  Biso   1.000  O
  O26      1.0000 0.57730  0.18240  0.22020  Biso   1.000  O
  O27      1.0000 0.07730  0.31760  0.72020  Biso   1.000  O
  O28      1.0000 0.57730  0.81760  0.72020  Biso   1.000  O
  O29      1.0000 0.92270  0.31760  0.77980  Biso   1.000  O
  O30      1.0000 0.42270  0.81760  0.77980  Biso   1.000  O
  O31      1.0000 0.92270  0.68240  0.27980  Biso   1.000  O
  O32      1.0000 0.42270  0.18240  0.27980  Biso   1.000  O
  O33      1.0000 0.14010  0.69420  0.10620  Biso   1.000  O
  O34      1.0000 0.64010  0.19420  0.10620  Biso   1.000  O
  O35      1.0000 0.14010  0.30580  0.60620  Biso   1.000  O
  O36      1.0000 0.64010  0.80580  0.60620  Biso   1.000  O
  O37      1.0000 0.85990  0.30580  0.89380  Biso   1.000  O
  O38      1.0000 0.35990  0.80580  0.89380  Biso   1.000  O
  O39      1.0000 0.85990  0.69420  0.39380  Biso   1.000  O
  O40      1.0000 0.35990  0.19420  0.39380  Biso   1.000  O
  O41      1.0000 0.22810  0.26070  0.15180  Biso   1.000  O
  O42      1.0000 0.72810  0.76070  0.15180  Biso   1.000  O
  O43      1.0000 0.22810  0.73930  0.65180  Biso   1.000  O
  O44      1.0000 0.72810  0.23930  0.65180  Biso   1.000  O
  O45      1.0000 0.77190  0.73930  0.84820  Biso   1.000  O
  O46      1.0000 0.27190  0.23930  0.84820  Biso   1.000  O
  O47      1.0000 0.77190  0.26070  0.34820  Biso   1.000  O
  O48      1.0000 0.27190  0.76070  0.34820  Biso   1.000  O
  N1       1.0000 0.11090  0.19140  0.07760  Biso   1.000  N
  N2       1.0000 0.61090  0.69140  0.07760  Biso   1.000  N
  N3       1.0000 0.11090  0.80860  0.57760  Biso   1.000  N
  N4       1.0000 0.61090  0.30860  0.57760  Biso   1.000  N
  N5       1.0000 0.88910  0.80860  0.92240  Biso   1.000  N
  N6       1.0000 0.38910  0.30860  0.92240  Biso   1.000  N
  N7       1.0000 0.88910  0.19140  0.42240  Biso   1.000  N
  N8       1.0000 0.38910  0.69140  0.42240  Biso   1.000  N
  N9       1.0000 0.25080  0.54800  0.99820  Biso   1.000  N
  N10      1.0000 0.75080  0.04800  0.99820  Biso   1.000  N
  N11      1.0000 0.25080  0.45200  0.49820  Biso   1.000  N
  N12      1.0000 0.75080  0.95200  0.49820  Biso   1.000  N
  N13      1.0000 0.74920  0.45200  0.00180  Biso   1.000  N
  N14      1.0000 0.24920  0.95200  0.00180  Biso   1.000  N
  N15      1.0000 0.74920  0.54800  0.50180  Biso   1.000  N
  N16      1.0000 0.24920  0.04800  0.50180  Biso   1.000  N
  C1       1.0000 0.11430  0.24260  0.99200  Biso   1.000  C
  C2       1.0000 0.61430  0.74260  0.99200  Biso   1.000  C
  C3       1.0000 0.11430  0.75740  0.49200  Biso   1.000  C
  C4       1.0000 0.61430  0.25740  0.49200  Biso   1.000  C
  C5       1.0000 0.88570  0.75740  0.00800  Biso   1.000  C
  C6       1.0000 0.38570  0.25740  0.00800  Biso   1.000  C
  C7       1.0000 0.88570  0.24260  0.50800  Biso   1.000  C
  C8       1.0000 0.38570  0.74260  0.50800  Biso   1.000  C
  C9       1.0000 0.05860  0.27750  0.94420  Biso   1.000  C
  C10      1.0000 0.55860  0.77750  0.94420  Biso   1.000  C
  C11      1.0000 0.05860  0.72250  0.44420  Biso   1.000  C
  C12      1.0000 0.55860  0.22250  0.44420  Biso   1.000  C
  C13      1.0000 0.94140  0.72250  0.05580  Biso   1.000  C
  C14      1.0000 0.44140  0.22250  0.05580  Biso   1.000  C
  C15      1.0000 0.94140  0.27750  0.55580  Biso   1.000  C
  C16      1.0000 0.44140  0.77750  0.55580  Biso   1.000  C
  C17      1.0000 0.00520  0.26670  0.98470  Biso   1.000  C
  C18      1.0000 0.50520  0.76670  0.98470  Biso   1.000  C
  C19      1.0000 0.00520  0.73330  0.48470  Biso   1.000  C
  C20      1.0000 0.50520  0.23330  0.48470  Biso   1.000  C
  C21      1.0000 0.99480  0.73330  0.01530  Biso   1.000  C
  C22      1.0000 0.49480  0.23330  0.01530  Biso   1.000  C
  C23      1.0000 0.99480  0.26670  0.51530  Biso   1.000  C
  C24      1.0000 0.49480  0.76670  0.51530  Biso   1.000  C
  C25      1.0000 0.00560  0.22030  0.07460  Biso   1.000  C
  C26      1.0000 0.50560  0.72030  0.07460  Biso   1.000  C
  C27      1.0000 0.00560  0.77970  0.57460  Biso   1.000  C
  C28      1.0000 0.50560  0.27970  0.57460  Biso   1.000  C
  C29      1.0000 0.99440  0.77970  0.92540  Biso   1.000  C
  C30      1.0000 0.49440  0.27970  0.92540  Biso   1.000  C
  C31      1.0000 0.99440  0.22030  0.42540  Biso   1.000  C
  C32      1.0000 0.49440  0.72030  0.42540  Biso   1.000  C
  C33      1.0000 0.05830  0.18050  0.11950  Biso   1.000  C
  C34      1.0000 0.55830  0.68050  0.11950  Biso   1.000  C
  C35      1.0000 0.05830  0.81950  0.61950  Biso   1.000  C
  C36      1.0000 0.55830  0.31950  0.61950  Biso   1.000  C
  C37      1.0000 0.94170  0.81950  0.88050  Biso   1.000  C
  C38      1.0000 0.44170  0.31950  0.88050  Biso   1.000  C
  C39      1.0000 0.94170  0.18050  0.38050  Biso   1.000  C
  C40      1.0000 0.44170  0.68050  0.38050  Biso   1.000  C
  C41      1.0000 0.21780  0.64960  0.93800  Biso   1.000  C
  C42      1.0000 0.71780  0.14960  0.93800  Biso   1.000  C
  C43      1.0000 0.21780  0.35040  0.43800  Biso   1.000  C
  C44      1.0000 0.71780  0.85040  0.43800  Biso   1.000  C
  C45      1.0000 0.78220  0.35040  0.06200  Biso   1.000  C
  C46      1.0000 0.28220  0.85040  0.06200  Biso   1.000  C
  C47      1.0000 0.78220  0.64960  0.56200  Biso   1.000  C
  C48      1.0000 0.28220  0.14960  0.56200  Biso   1.000  C
  C49      1.0000 0.28310  0.64740  0.06010  Biso   1.000  C
  C50      1.0000 0.78310  0.14740  0.06010  Biso   1.000  C
  C51      1.0000 0.28310  0.35260  0.56010  Biso   1.000  C
  C52      1.0000 0.78310  0.85260  0.56010  Biso   1.000  C
  C53      1.0000 0.71690  0.35260  0.93990  Biso   1.000  C
  C54      1.0000 0.21690  0.85260  0.93990  Biso   1.000  C
  C55      1.0000 0.71690  0.64740  0.43990  Biso   1.000  C
  C56      1.0000 0.21690  0.14740  0.43990  Biso   1.000  C
  H1       1.0000 0.21600  0.35800  0.18000  Biso   1.000  H
  H2       1.0000 0.71600  0.85800  0.18000  Biso   1.000  H
  H3       1.0000 0.21600  0.64200  0.68000  Biso   1.000  H
  H4       1.0000 0.71600  0.14200  0.68000  Biso   1.000  H
  H5       1.0000 0.78400  0.64200  0.82000  Biso   1.000  H
  H6       1.0000 0.28400  0.14200  0.82000  Biso   1.000  H
  H7       1.0000 0.78400  0.35800  0.32000  Biso   1.000  H
  H8       1.0000 0.28400  0.85800  0.32000  Biso   1.000  H
  H9       1.0000 0.25700  0.21800  0.18400  Biso   1.000  H
  H10      1.0000 0.75700  0.71800  0.18400  Biso   1.000  H
  H11      1.0000 0.25700  0.78200  0.68400  Biso   1.000  H
  H12      1.0000 0.75700  0.28200  0.68400  Biso   1.000  H
  H13      1.0000 0.74300  0.78200  0.81600  Biso   1.000  H
  H14      1.0000 0.24300  0.28200  0.81600  Biso   1.000  H
  H15      1.0000 0.74300  0.21800  0.31600  Biso   1.000  H
  H16      1.0000 0.24300  0.71800  0.31600  Biso   1.000  H
  H17      1.0000 0.14391  0.16100  0.10700  Biso   1.000  H
  H18      1.0000 0.64391  0.66100  0.10700  Biso   1.000  H
  H19      1.0000 0.14391  0.83900  0.60700  Biso   1.000  H
  H20      1.0000 0.64391  0.33900  0.60700  Biso   1.000  H
  H21      1.0000 0.85609  0.83900  0.89300  Biso   1.000  H
  H22      1.0000 0.35609  0.33900  0.89300  Biso   1.000  H
  H23      1.0000 0.85609  0.16100  0.39300  Biso   1.000  H
  H24      1.0000 0.35609  0.66100  0.39300  Biso   1.000  H
  H25      1.0000 0.05850  0.30800  0.88460  Biso   1.000  H
  H26      1.0000 0.55850  0.80800  0.88460  Biso   1.000  H
  H27      1.0000 0.05850  0.69200  0.38460  Biso   1.000  H
  H28      1.0000 0.55850  0.19200  0.38460  Biso   1.000  H
  H29      1.0000 0.94150  0.69200  0.11540  Biso   1.000  H
  H30      1.0000 0.44150  0.19200  0.11540  Biso   1.000  H
  H31      1.0000 0.94150  0.30800  0.61540  Biso   1.000  H
  H32      1.0000 0.44150  0.80800  0.61540  Biso   1.000  H
  H33      1.0000 0.96900  0.28990  0.95300  Biso   1.000  H
  H34      1.0000 0.46900  0.78990  0.95300  Biso   1.000  H
  H35      1.0000 0.96900  0.71010  0.45300  Biso   1.000  H
  H36      1.0000 0.46900  0.21010  0.45300  Biso   1.000  H
  H37      1.0000 0.03100  0.71010  0.04700  Biso   1.000  H
  H38      1.0000 0.53100  0.21010  0.04700  Biso   1.000  H
  H39      1.0000 0.03100  0.28990  0.54700  Biso   1.000  H
  H40      1.0000 0.53100  0.78990  0.54700  Biso   1.000  H
  H41      1.0000 0.05860  0.14590  0.17870  Biso   1.000  H
  H42      1.0000 0.55860  0.64590  0.17870  Biso   1.000  H
  H43      1.0000 0.05860  0.85410  0.67870  Biso   1.000  H
  H44      1.0000 0.55860  0.35410  0.67870  Biso   1.000  H
  H45      1.0000 0.94140  0.85410  0.82130  Biso   1.000  H
  H46      1.0000 0.44140  0.35410  0.82130  Biso   1.000  H
  H47      1.0000 0.94140  0.14590  0.32130  Biso   1.000  H
  H48      1.0000 0.44140  0.64590  0.32130  Biso   1.000  H
  H49      1.0000 0.19510  0.58410  0.89430  Biso   1.000  H
  H50      1.0000 0.69510  0.08410  0.89430  Biso   1.000  H
  H51      1.0000 0.19510  0.41590  0.39430  Biso   1.000  H
  H52      1.0000 0.69510  0.91590  0.39430  Biso   1.000  H
  H53      1.0000 0.80490  0.41590  0.10570  Biso   1.000  H
  H54      1.0000 0.30490  0.91590  0.10570  Biso   1.000  H
  H55      1.0000 0.80490  0.58410  0.60570  Biso   1.000  H
  H56      1.0000 0.30490  0.08410  0.60570  Biso   1.000  H
  H57      1.0000 0.30640  0.58020  0.10250  Biso   1.000  H
  H58      1.0000 0.80640  0.08020  0.10250  Biso   1.000  H
  H59      1.0000 0.30640  0.41980  0.60250  Biso   1.000  H
  H60      1.0000 0.80640  0.91980  0.60250  Biso   1.000  H
  H61      1.0000 0.69360  0.41980  0.89750  Biso   1.000  H
  H62      1.0000 0.19360  0.91980  0.89750  Biso   1.000  H
  H63      1.0000 0.69360  0.58020  0.39750  Biso   1.000  H
  H64      1.0000 0.19360  0.08020  0.39750  Biso   1.000  H
