data_image0
_cell_length_a       12.288
_cell_length_b       13.349
_cell_length_c       14.244
_cell_angle_alpha    90
_cell_angle_beta     113.39
_cell_angle_gamma    90

_symmetry_space_group_name_H-M    "P 1"
_symmetry_int_tables_number       1

loop_
  _symmetry_equiv_pos_as_xyz
  'x, y, z'

loop_
  _atom_site_label
  _atom_site_occupancy
  _atom_site_fract_x
  _atom_site_fract_y
  _atom_site_fract_z
  _atom_site_thermal_displace_type
  _atom_site_B_iso_or_equiv
  _atom_site_type_symbol
  Cu1      1.0000 0.25000  0.25000  0.00000  Biso   1.000  Cu
  Cu2      1.0000 0.75000  0.25000  0.50000  Biso   1.000  Cu
  Cu3      1.0000 0.75000  0.75000  0.00000  Biso   1.000  Cu
  Cu4      1.0000 0.25000  0.75000  0.50000  Biso   1.000  Cu
  O1       1.0000 0.07807  0.24346  0.93362  Biso   1.000  O
  O2       1.0000 0.92193  0.24346  0.56638  Biso   1.000  O
  O3       1.0000 0.57807  0.74346  0.93362  Biso   1.000  O
  O4       1.0000 0.42193  0.74346  0.56638  Biso   1.000  O
  O5       1.0000 0.92193  0.75654  0.06638  Biso   1.000  O
  O6       1.0000 0.07807  0.75654  0.43362  Biso   1.000  O
  O7       1.0000 0.42193  0.25654  0.06638  Biso   1.000  O
  O8       1.0000 0.57807  0.25654  0.43362  Biso   1.000  O
  N1       1.0000 0.27033  0.89609  0.38950  Biso   1.000  N
  N2       1.0000 0.72967  0.89609  0.11050  Biso   1.000  N
  N3       1.0000 0.77033  0.39609  0.38950  Biso   1.000  N
  N4       1.0000 0.22967  0.39609  0.11050  Biso   1.000  N
  N5       1.0000 0.72967  0.10391  0.61050  Biso   1.000  N
  N6       1.0000 0.27033  0.10391  0.88950  Biso   1.000  N
  N7       1.0000 0.22967  0.60391  0.61050  Biso   1.000  N
  N8       1.0000 0.77033  0.60391  0.88950  Biso   1.000  N
  N9       1.0000 0.21900  0.15245  0.09372  Biso   1.000  N
  N10      1.0000 0.78100  0.15245  0.40628  Biso   1.000  N
  N11      1.0000 0.71900  0.65245  0.09372  Biso   1.000  N
  N12      1.0000 0.28100  0.65245  0.40628  Biso   1.000  N
  N13      1.0000 0.78100  0.84755  0.90628  Biso   1.000  N
  N14      1.0000 0.21900  0.84755  0.59372  Biso   1.000  N
  N15      1.0000 0.28100  0.34755  0.90628  Biso   1.000  N
  N16      1.0000 0.71900  0.34755  0.59372  Biso   1.000  N
  N17      1.0000 0.09996  0.13652  0.06875  Biso   1.000  N
  N18      1.0000 0.90004  0.13652  0.43125  Biso   1.000  N
  N19      1.0000 0.59996  0.63652  0.06875  Biso   1.000  N
  N20      1.0000 0.40004  0.63652  0.43125  Biso   1.000  N
  N21      1.0000 0.90004  0.86348  0.93125  Biso   1.000  N
  N22      1.0000 0.09996  0.86348  0.56875  Biso   1.000  N
  N23      1.0000 0.40004  0.36348  0.93125  Biso   1.000  N
  N24      1.0000 0.59996  0.36348  0.56875  Biso   1.000  N
  C1       1.0000 0.38186  0.99891  0.32256  Biso   1.000  C
  C2       1.0000 0.61814  0.99891  0.17744  Biso   1.000  C
  C3       1.0000 0.88186  0.49891  0.32256  Biso   1.000  C
  C4       1.0000 0.11814  0.49891  0.17744  Biso   1.000  C
  C5       1.0000 0.61814  0.00109  0.67744  Biso   1.000  C
  C6       1.0000 0.38186  0.00109  0.82256  Biso   1.000  C
  C7       1.0000 0.11814  0.50109  0.67744  Biso   1.000  C
  C8       1.0000 0.88186  0.50109  0.82256  Biso   1.000  C
  H1       1.0000 0.45760  0.02110  0.32810  Biso   1.000  H
  H2       1.0000 0.54240  0.02110  0.17190  Biso   1.000  H
  H3       1.0000 0.95760  0.52110  0.32810  Biso   1.000  H
  H4       1.0000 0.04240  0.52110  0.17190  Biso   1.000  H
  H5       1.0000 0.54240  0.97890  0.67190  Biso   1.000  H
  H6       1.0000 0.45760  0.97890  0.82810  Biso   1.000  H
  H7       1.0000 0.04240  0.47890  0.67190  Biso   1.000  H
  H8       1.0000 0.95760  0.47890  0.82810  Biso   1.000  H
  C9       1.0000 0.17175  0.00125  0.24281  Biso   1.000  C
  C10      1.0000 0.82825  0.00125  0.25719  Biso   1.000  C
  C11      1.0000 0.67175  0.50125  0.24281  Biso   1.000  C
  C12      1.0000 0.32825  0.50125  0.25719  Biso   1.000  C
  C13      1.0000 0.82825  0.99875  0.75719  Biso   1.000  C
  C14      1.0000 0.17175  0.99875  0.74281  Biso   1.000  C
  C15      1.0000 0.32825  0.49875  0.75719  Biso   1.000  C
  C16      1.0000 0.67175  0.49875  0.74281  Biso   1.000  C
  H9       1.0000 0.09880  0.02420  0.19230  Biso   1.000  H
  H10      1.0000 0.90120  0.02420  0.30770  Biso   1.000  H
  H11      1.0000 0.59880  0.52420  0.19230  Biso   1.000  H
  H12      1.0000 0.40120  0.52420  0.30770  Biso   1.000  H
  H13      1.0000 0.90120  0.97580  0.80770  Biso   1.000  H
  H14      1.0000 0.09880  0.97580  0.69230  Biso   1.000  H
  H15      1.0000 0.40120  0.47580  0.80770  Biso   1.000  H
  H16      1.0000 0.59880  0.47580  0.69230  Biso   1.000  H
  C17      1.0000 0.17304  0.93281  0.31632  Biso   1.000  C
  C18      1.0000 0.82696  0.93281  0.18368  Biso   1.000  C
  C19      1.0000 0.67304  0.43281  0.31632  Biso   1.000  C
  C20      1.0000 0.32696  0.43281  0.18368  Biso   1.000  C
  C21      1.0000 0.82696  0.06719  0.68368  Biso   1.000  C
  C22      1.0000 0.17304  0.06719  0.81632  Biso   1.000  C
  C23      1.0000 0.32696  0.56719  0.68368  Biso   1.000  C
  C24      1.0000 0.67304  0.56719  0.81632  Biso   1.000  C
  H17      1.0000 0.09880  0.91040  0.31430  Biso   1.000  H
  H18      1.0000 0.90120  0.91040  0.18570  Biso   1.000  H
  H19      1.0000 0.59880  0.41040  0.31430  Biso   1.000  H
  H20      1.0000 0.40120  0.41040  0.18570  Biso   1.000  H
  H21      1.0000 0.90120  0.08960  0.68570  Biso   1.000  H
  H22      1.0000 0.09880  0.08960  0.81430  Biso   1.000  H
  H23      1.0000 0.40120  0.58960  0.68570  Biso   1.000  H
  H24      1.0000 0.59880  0.58960  0.81430  Biso   1.000  H
  C25      1.0000 0.27962  0.03584  0.24435  Biso   1.000  C
  C26      1.0000 0.72038  0.03584  0.25565  Biso   1.000  C
  C27      1.0000 0.77962  0.53584  0.24435  Biso   1.000  C
  C28      1.0000 0.22038  0.53584  0.25565  Biso   1.000  C
  C29      1.0000 0.72038  0.96416  0.75565  Biso   1.000  C
  C30      1.0000 0.27962  0.96416  0.74435  Biso   1.000  C
  C31      1.0000 0.22038  0.46416  0.75565  Biso   1.000  C
  C32      1.0000 0.77962  0.46416  0.74435  Biso   1.000  C
  C33      1.0000 0.03622  0.18736  0.98438  Biso   1.000  C
  C34      1.0000 0.96378  0.18736  0.51562  Biso   1.000  C
  C35      1.0000 0.53622  0.68736  0.98438  Biso   1.000  C
  C36      1.0000 0.46378  0.68736  0.51562  Biso   1.000  C
  C37      1.0000 0.96378  0.81264  0.01562  Biso   1.000  C
  C38      1.0000 0.03622  0.81264  0.48438  Biso   1.000  C
  C39      1.0000 0.46378  0.31264  0.01562  Biso   1.000  C
  C40      1.0000 0.53622  0.31264  0.48438  Biso   1.000  C
  C41      1.0000 0.37330  0.93009  0.39198  Biso   1.000  C
  C42      1.0000 0.62670  0.93009  0.10802  Biso   1.000  C
  C43      1.0000 0.87330  0.43009  0.39198  Biso   1.000  C
  C44      1.0000 0.12670  0.43009  0.10802  Biso   1.000  C
  C45      1.0000 0.62670  0.06991  0.60802  Biso   1.000  C
  C46      1.0000 0.37330  0.06991  0.89198  Biso   1.000  C
  C47      1.0000 0.12670  0.56991  0.60802  Biso   1.000  C
  C48      1.0000 0.87330  0.56991  0.89198  Biso   1.000  C
  H25      1.0000 0.44440  0.90590  0.44400  Biso   1.000  H
  H26      1.0000 0.55560  0.90590  0.05600  Biso   1.000  H
  H27      1.0000 0.94440  0.40590  0.44400  Biso   1.000  H
  H28      1.0000 0.05560  0.40590  0.05600  Biso   1.000  H
  H29      1.0000 0.55560  0.09410  0.55600  Biso   1.000  H
  H30      1.0000 0.44440  0.09410  0.94400  Biso   1.000  H
  H31      1.0000 0.05560  0.59410  0.55600  Biso   1.000  H
  H32      1.0000 0.94440  0.59410  0.94400  Biso   1.000  H
  C49      1.0000 0.83445  0.23105  0.86025  Biso   1.000  C
  C50      1.0000 0.16555  0.23105  0.63975  Biso   1.000  C
  C51      1.0000 0.33445  0.73105  0.86025  Biso   1.000  C
  C52      1.0000 0.66555  0.73105  0.63975  Biso   1.000  C
  C53      1.0000 0.16555  0.76895  0.13975  Biso   1.000  C
  C54      1.0000 0.83445  0.76895  0.36025  Biso   1.000  C
  C55      1.0000 0.66555  0.26895  0.13975  Biso   1.000  C
  C56      1.0000 0.33445  0.26895  0.36025  Biso   1.000  C
  H33      1.0000 0.87040  0.27050  0.82490  Biso   1.000  H
  H34      1.0000 0.12960  0.27050  0.67510  Biso   1.000  H
  H35      1.0000 0.37040  0.77050  0.82490  Biso   1.000  H
  H36      1.0000 0.62960  0.77050  0.67510  Biso   1.000  H
  H37      1.0000 0.12960  0.72950  0.17510  Biso   1.000  H
  H38      1.0000 0.87040  0.72950  0.32490  Biso   1.000  H
  H39      1.0000 0.62960  0.22950  0.17510  Biso   1.000  H
  H40      1.0000 0.37040  0.22950  0.32490  Biso   1.000  H
  C57      1.0000 0.90530  0.17841  0.94687  Biso   1.000  C
  C58      1.0000 0.09470  0.17841  0.55313  Biso   1.000  C
  C59      1.0000 0.40530  0.67841  0.94687  Biso   1.000  C
  C60      1.0000 0.59470  0.67841  0.55313  Biso   1.000  C
  C61      1.0000 0.09470  0.82159  0.05313  Biso   1.000  C
  C62      1.0000 0.90530  0.82159  0.44687  Biso   1.000  C
  C63      1.0000 0.59470  0.32159  0.05313  Biso   1.000  C
  C64      1.0000 0.40530  0.32159  0.44687  Biso   1.000  C
  C65      1.0000 0.29530  0.10671  0.17138  Biso   1.000  C
  C66      1.0000 0.70470  0.10671  0.32862  Biso   1.000  C
  C67      1.0000 0.79530  0.60671  0.17138  Biso   1.000  C
  C68      1.0000 0.20470  0.60671  0.32862  Biso   1.000  C
  C69      1.0000 0.70470  0.89329  0.82862  Biso   1.000  C
  C70      1.0000 0.29530  0.89329  0.67138  Biso   1.000  C
  C71      1.0000 0.20470  0.39329  0.82862  Biso   1.000  C
  C72      1.0000 0.79530  0.39329  0.67138  Biso   1.000  C
  H41      1.0000 0.37560  0.12110  0.18390  Biso   1.000  H
  H42      1.0000 0.62440  0.12110  0.31610  Biso   1.000  H
  H43      1.0000 0.87560  0.62110  0.18390  Biso   1.000  H
  H44      1.0000 0.12440  0.62110  0.31610  Biso   1.000  H
  H45      1.0000 0.62440  0.87890  0.81610  Biso   1.000  H
  H46      1.0000 0.37560  0.87890  0.68390  Biso   1.000  H
  H47      1.0000 0.12440  0.37890  0.81610  Biso   1.000  H
  H48      1.0000 0.87560  0.37890  0.68390  Biso   1.000  H
  C73      1.0000 0.65980  0.16951  0.87537  Biso   1.000  C
  C74      1.0000 0.34020  0.16951  0.62463  Biso   1.000  C
  C75      1.0000 0.15980  0.66951  0.87537  Biso   1.000  C
  C76      1.0000 0.84020  0.66951  0.62463  Biso   1.000  C
  C77      1.0000 0.34020  0.83049  0.12463  Biso   1.000  C
  C78      1.0000 0.65980  0.83049  0.37537  Biso   1.000  C
  C79      1.0000 0.84020  0.33049  0.12463  Biso   1.000  C
  C80      1.0000 0.15980  0.33049  0.37537  Biso   1.000  C
  H49      1.0000 0.57590  0.16750  0.85180  Biso   1.000  H
  H50      1.0000 0.42410  0.16750  0.64820  Biso   1.000  H
  H51      1.0000 0.07590  0.66750  0.85180  Biso   1.000  H
  H52      1.0000 0.92410  0.66750  0.64820  Biso   1.000  H
  H53      1.0000 0.42410  0.83250  0.14820  Biso   1.000  H
  H54      1.0000 0.57590  0.83250  0.35180  Biso   1.000  H
  H55      1.0000 0.92410  0.33250  0.14820  Biso   1.000  H
  H56      1.0000 0.07590  0.33250  0.35180  Biso   1.000  H
  C81      1.0000 0.72873  0.11491  0.96025  Biso   1.000  C
  C82      1.0000 0.27127  0.11491  0.53975  Biso   1.000  C
  C83      1.0000 0.22873  0.61491  0.96025  Biso   1.000  C
  C84      1.0000 0.77127  0.61491  0.53975  Biso   1.000  C
  C85      1.0000 0.27127  0.88509  0.03975  Biso   1.000  C
  C86      1.0000 0.72873  0.88509  0.46025  Biso   1.000  C
  C87      1.0000 0.77127  0.38509  0.03975  Biso   1.000  C
  C88      1.0000 0.22873  0.38509  0.46025  Biso   1.000  C
  H57      1.0000 0.69210  0.07430  0.99420  Biso   1.000  H
  H58      1.0000 0.30790  0.07430  0.50580  Biso   1.000  H
  H59      1.0000 0.19210  0.57430  0.99420  Biso   1.000  H
  H60      1.0000 0.80790  0.57430  0.50580  Biso   1.000  H
  H61      1.0000 0.30790  0.92570  0.00580  Biso   1.000  H
  H62      1.0000 0.69210  0.92570  0.49420  Biso   1.000  H
  H63      1.0000 0.80790  0.42570  0.00580  Biso   1.000  H
  H64      1.0000 0.19210  0.42570  0.49420  Biso   1.000  H
  C89      1.0000 0.71236  0.22705  0.82458  Biso   1.000  C
  C90      1.0000 0.28764  0.22705  0.67542  Biso   1.000  C
  C91      1.0000 0.21236  0.72705  0.82458  Biso   1.000  C
  C92      1.0000 0.78764  0.72705  0.67542  Biso   1.000  C
  C93      1.0000 0.28764  0.77295  0.17542  Biso   1.000  C
  C94      1.0000 0.71236  0.77295  0.32458  Biso   1.000  C
  C95      1.0000 0.78764  0.27295  0.17542  Biso   1.000  C
  C96      1.0000 0.21236  0.27295  0.32458  Biso   1.000  C
  H65      1.0000 0.66480  0.26380  0.76530  Biso   1.000  H
  H66      1.0000 0.33520  0.26380  0.73470  Biso   1.000  H
  H67      1.0000 0.16480  0.76380  0.76530  Biso   1.000  H
  H68      1.0000 0.83520  0.76380  0.73470  Biso   1.000  H
  H69      1.0000 0.33520  0.73620  0.23470  Biso   1.000  H
  H70      1.0000 0.66480  0.73620  0.26530  Biso   1.000  H
  H71      1.0000 0.83520  0.23620  0.23470  Biso   1.000  H
  H72      1.0000 0.16480  0.23620  0.26530  Biso   1.000  H
  C97      1.0000 0.85129  0.11890  0.99635  Biso   1.000  C
  C98      1.0000 0.14871  0.11890  0.50365  Biso   1.000  C
  C99      1.0000 0.35129  0.61890  0.99635  Biso   1.000  C
  C100     1.0000 0.64871  0.61890  0.50365  Biso   1.000  C
  C101     1.0000 0.14871  0.88110  0.00365  Biso   1.000  C
  C102     1.0000 0.85129  0.88110  0.49635  Biso   1.000  C
  C103     1.0000 0.64871  0.38110  0.00365  Biso   1.000  C
  C104     1.0000 0.35129  0.38110  0.49635  Biso   1.000  C
  H73      1.0000 0.89850  0.08100  0.05490  Biso   1.000  H
  H74      1.0000 0.10150  0.08100  0.44510  Biso   1.000  H
  H75      1.0000 0.39850  0.58100  0.05490  Biso   1.000  H
  H76      1.0000 0.60150  0.58100  0.44510  Biso   1.000  H
  H77      1.0000 0.10150  0.91900  0.94510  Biso   1.000  H
  H78      1.0000 0.89850  0.91900  0.55490  Biso   1.000  H
  H79      1.0000 0.60150  0.41900  0.94510  Biso   1.000  H
  H80      1.0000 0.39850  0.41900  0.55490  Biso   1.000  H
