data_image0
_cell_length_a       5.1829
_cell_length_b       26.328
_cell_length_c       10.2279
_cell_angle_alpha    90
_cell_angle_beta     97.892
_cell_angle_gamma    90

_symmetry_space_group_name_H-M    "P 1"
_symmetry_int_tables_number       1

loop_
  _symmetry_equiv_pos_as_xyz
  'x, y, z'

loop_
  _atom_site_label
  _atom_site_occupancy
  _atom_site_fract_x
  _atom_site_fract_y
  _atom_site_fract_z
  _atom_site_thermal_displace_type
  _atom_site_B_iso_or_equiv
  _atom_site_type_symbol
  C1       1.0000 0.96780  0.08970  0.41360  Biso   1.000  C
  C2       1.0000 0.03220  0.58970  0.08640  Biso   1.000  C
  C3       1.0000 0.03220  0.91030  0.58640  Biso   1.000  C
  C4       1.0000 0.96780  0.41030  0.91360  Biso   1.000  C
  C5       1.0000 0.81880  0.03410  0.70300  Biso   1.000  C
  C6       1.0000 0.18120  0.53410  0.79700  Biso   1.000  C
  C7       1.0000 0.18120  0.96590  0.29700  Biso   1.000  C
  C8       1.0000 0.81880  0.46590  0.20300  Biso   1.000  C
  C9       1.0000 0.94800  0.14450  0.37110  Biso   1.000  C
  C10      1.0000 0.05200  0.64450  0.12890  Biso   1.000  C
  C11      1.0000 0.05200  0.85550  0.62890  Biso   1.000  C
  C12      1.0000 0.94800  0.35550  0.87110  Biso   1.000  C
  H1       1.0000 0.83560  0.14700  0.28740  Biso   1.000  H
  H2       1.0000 0.16440  0.64700  0.21260  Biso   1.000  H
  H3       1.0000 0.16440  0.85300  0.71260  Biso   1.000  H
  H4       1.0000 0.83560  0.35300  0.78740  Biso   1.000  H
  H5       1.0000 0.11950  0.15670  0.35820  Biso   1.000  H
  H6       1.0000 0.88050  0.65670  0.14180  Biso   1.000  H
  H7       1.0000 0.88050  0.84330  0.64180  Biso   1.000  H
  H8       1.0000 0.11950  0.34330  0.85820  Biso   1.000  H
  C13      1.0000 0.84000  0.17790  0.47250  Biso   1.000  C
  C14      1.0000 0.16000  0.67790  0.02750  Biso   1.000  C
  C15      1.0000 0.16000  0.82210  0.52750  Biso   1.000  C
  C16      1.0000 0.84000  0.32210  0.97250  Biso   1.000  C
  C17      1.0000 0.93200  0.22670  0.49830  Biso   1.000  C
  C18      1.0000 0.06800  0.72670  0.00170  Biso   1.000  C
  C19      1.0000 0.06800  0.77330  0.50170  Biso   1.000  C
  C20      1.0000 0.93200  0.27330  0.99830  Biso   1.000  C
  H9       1.0000 0.06310  0.23910  0.45360  Biso   1.000  H
  H10      1.0000 0.93690  0.73910  0.04640  Biso   1.000  H
  H11      1.0000 0.93690  0.76090  0.54640  Biso   1.000  H
  H12      1.0000 0.06310  0.26090  0.95360  Biso   1.000  H
  C21      1.0000 0.83300  0.25730  0.58860  Biso   1.000  C
  C22      1.0000 0.16700  0.75730  0.91140  Biso   1.000  C
  C23      1.0000 0.16700  0.74270  0.41140  Biso   1.000  C
  C24      1.0000 0.83300  0.24270  0.08860  Biso   1.000  C
  H13      1.0000 0.89910  0.28980  0.60540  Biso   1.000  H
  H14      1.0000 0.10090  0.78980  0.89460  Biso   1.000  H
  H15      1.0000 0.10090  0.71020  0.39460  Biso   1.000  H
  H16      1.0000 0.89910  0.21020  0.10540  Biso   1.000  H
  C25      1.0000 0.63400  0.23950  0.65460  Biso   1.000  C
  C26      1.0000 0.36600  0.73950  0.84540  Biso   1.000  C
  C27      1.0000 0.36600  0.76050  0.34540  Biso   1.000  C
  C28      1.0000 0.63400  0.26050  0.15460  Biso   1.000  C
  H17      1.0000 0.56460  0.26000  0.71500  Biso   1.000  H
  H18      1.0000 0.43540  0.76000  0.78500  Biso   1.000  H
  H19      1.0000 0.43540  0.74000  0.28500  Biso   1.000  H
  H20      1.0000 0.56460  0.24000  0.21500  Biso   1.000  H
  C29      1.0000 0.54200  0.19140  0.62950  Biso   1.000  C
  C30      1.0000 0.45800  0.69140  0.87050  Biso   1.000  C
  C31      1.0000 0.45800  0.80860  0.37050  Biso   1.000  C
  C32      1.0000 0.54200  0.30860  0.12950  Biso   1.000  C
  H21      1.0000 0.41090  0.17910  0.67450  Biso   1.000  H
  H22      1.0000 0.58910  0.67910  0.82550  Biso   1.000  H
  H23      1.0000 0.58910  0.82090  0.32550  Biso   1.000  H
  H24      1.0000 0.41090  0.32090  0.17450  Biso   1.000  H
  C33      1.0000 0.64000  0.16060  0.53890  Biso   1.000  C
  C34      1.0000 0.36000  0.66060  0.96110  Biso   1.000  C
  C35      1.0000 0.36000  0.83940  0.46110  Biso   1.000  C
  C36      1.0000 0.64000  0.33940  0.03890  Biso   1.000  C
  H25      1.0000 0.57130  0.12820  0.52190  Biso   1.000  H
  H26      1.0000 0.42870  0.62820  0.97810  Biso   1.000  H
  H27      1.0000 0.42870  0.87180  0.47810  Biso   1.000  H
  H28      1.0000 0.57130  0.37180  0.02190  Biso   1.000  H
  C37      1.0000 0.71170  0.06000  0.81790  Biso   1.000  C
  C38      1.0000 0.28830  0.56000  0.68210  Biso   1.000  C
  C39      1.0000 0.28830  0.94000  0.18210  Biso   1.000  C
  C40      1.0000 0.71170  0.44000  0.31790  Biso   1.000  C
  H29      1.0000 0.58500  0.08540  0.78340  Biso   1.000  H
  H30      1.0000 0.41500  0.58540  0.71660  Biso   1.000  H
  H31      1.0000 0.41500  0.91460  0.21660  Biso   1.000  H
  H32      1.0000 0.58500  0.41460  0.28340  Biso   1.000  H
  H33      1.0000 0.62270  0.03490  0.86500  Biso   1.000  H
  H34      1.0000 0.37730  0.53490  0.63500  Biso   1.000  H
  H35      1.0000 0.37730  0.96510  0.13500  Biso   1.000  H
  H36      1.0000 0.62270  0.46510  0.36500  Biso   1.000  H
  C41      1.0000 0.92250  0.08510  0.91360  Biso   1.000  C
  C42      1.0000 0.07750  0.58510  0.58640  Biso   1.000  C
  C43      1.0000 0.07750  0.91490  0.08640  Biso   1.000  C
  C44      1.0000 0.92250  0.41490  0.41360  Biso   1.000  C
  C45      1.0000 0.05400  0.12790  0.87430  Biso   1.000  C
  C46      1.0000 0.94600  0.62790  0.62570  Biso   1.000  C
  C47      1.0000 0.94600  0.87210  0.12570  Biso   1.000  C
  C48      1.0000 0.05400  0.37210  0.37430  Biso   1.000  C
  H37      1.0000 0.99960  0.14260  0.79240  Biso   1.000  H
  H38      1.0000 0.00040  0.64260  0.70760  Biso   1.000  H
  H39      1.0000 0.00040  0.85740  0.20760  Biso   1.000  H
  H40      1.0000 0.99960  0.35740  0.29240  Biso   1.000  H
  C49      1.0000 0.26500  0.14860  0.95670  Biso   1.000  C
  C50      1.0000 0.73500  0.64860  0.54330  Biso   1.000  C
  C51      1.0000 0.73500  0.85140  0.04330  Biso   1.000  C
  C52      1.0000 0.26500  0.35140  0.45670  Biso   1.000  C
  H41      1.0000 0.35340  0.17650  0.92930  Biso   1.000  H
  H42      1.0000 0.64660  0.67650  0.57070  Biso   1.000  H
  H43      1.0000 0.64660  0.82350  0.07070  Biso   1.000  H
  H44      1.0000 0.35340  0.32350  0.42930  Biso   1.000  H
  C53      1.0000 0.34000  0.12740  0.07810  Biso   1.000  C
  C54      1.0000 0.66000  0.62740  0.42190  Biso   1.000  C
  C55      1.0000 0.66000  0.87260  0.92190  Biso   1.000  C
  C56      1.0000 0.34000  0.37260  0.57810  Biso   1.000  C
  H45      1.0000 0.47920  0.14140  0.13320  Biso   1.000  H
  H46      1.0000 0.52080  0.64140  0.36680  Biso   1.000  H
  H47      1.0000 0.52080  0.85860  0.86680  Biso   1.000  H
  H48      1.0000 0.47920  0.35860  0.63320  Biso   1.000  H
  C57      1.0000 0.21300  0.08600  0.12040  Biso   1.000  C
  C58      1.0000 0.78700  0.58600  0.37960  Biso   1.000  C
  C59      1.0000 0.78700  0.91400  0.87960  Biso   1.000  C
  C60      1.0000 0.21300  0.41400  0.62040  Biso   1.000  C
  H49      1.0000 0.26890  0.07170  0.20260  Biso   1.000  H
  H50      1.0000 0.73110  0.57170  0.29740  Biso   1.000  H
  H51      1.0000 0.73110  0.92830  0.79740  Biso   1.000  H
  H52      1.0000 0.26890  0.42830  0.70260  Biso   1.000  H
  C61      1.0000 0.99800  0.06520  0.03780  Biso   1.000  C
  C62      1.0000 0.00200  0.56520  0.46220  Biso   1.000  C
  C63      1.0000 0.00200  0.93480  0.96220  Biso   1.000  C
  C64      1.0000 0.99800  0.43480  0.53780  Biso   1.000  C
  H53      1.0000 0.90730  0.03800  0.06720  Biso   1.000  H
  H54      1.0000 0.09270  0.53800  0.43280  Biso   1.000  H
  H55      1.0000 0.09270  0.96200  0.93280  Biso   1.000  H
  H56      1.0000 0.90730  0.46200  0.56720  Biso   1.000  H
  O1       1.0000 0.17630  0.07580  0.48460  Biso   1.000  O
  O2       1.0000 0.82370  0.57580  0.01540  Biso   1.000  O
  O3       1.0000 0.82370  0.92420  0.51540  Biso   1.000  O
  O4       1.0000 0.17630  0.42420  0.98460  Biso   1.000  O
  O5       1.0000 0.06280  0.03080  0.70920  Biso   1.000  O
  O6       1.0000 0.93720  0.53080  0.79080  Biso   1.000  O
  O7       1.0000 0.93720  0.96920  0.29080  Biso   1.000  O
  O8       1.0000 0.06280  0.46920  0.20920  Biso   1.000  O
  O9       1.0000 0.77320  0.06150  0.37670  Biso   1.000  O
  O10      1.0000 0.22680  0.56150  0.12330  Biso   1.000  O
  O11      1.0000 0.22680  0.93850  0.62330  Biso   1.000  O
  O12      1.0000 0.77320  0.43850  0.87670  Biso   1.000  O
  O13      1.0000 0.65540  0.01810  0.60890  Biso   1.000  O
  O14      1.0000 0.34460  0.51810  0.89110  Biso   1.000  O
  O15      1.0000 0.34460  0.98190  0.39110  Biso   1.000  O
  O16      1.0000 0.65540  0.48190  0.10890  Biso   1.000  O
  Cu1      1.0000 0.23190  0.00810  0.56015  Biso   1.000  Cu
  Cu2      1.0000 0.76810  0.50810  0.93985  Biso   1.000  Cu
  Cu3      1.0000 0.76810  0.99190  0.43985  Biso   1.000  Cu
  Cu4      1.0000 0.23190  0.49190  0.06015  Biso   1.000  Cu
