data_image0
_cell_length_a       5.2034
_cell_length_b       26.4615
_cell_length_c       10.3265
_cell_angle_alpha    90
_cell_angle_beta     98.204
_cell_angle_gamma    90

_symmetry_space_group_name_H-M    "P 1"
_symmetry_int_tables_number       1

loop_
  _symmetry_equiv_pos_as_xyz
  'x, y, z'

loop_
  _atom_site_label
  _atom_site_occupancy
  _atom_site_fract_x
  _atom_site_fract_y
  _atom_site_fract_z
  _atom_site_thermal_displace_type
  _atom_site_B_iso_or_equiv
  _atom_site_type_symbol
  Cu1      1.0000 0.73203  0.99164  0.05916  Biso   1.000  Cu
  Cu2      1.0000 0.26797  0.49164  0.44084  Biso   1.000  Cu
  Cu3      1.0000 0.26797  0.00836  0.94084  Biso   1.000  Cu
  Cu4      1.0000 0.73203  0.50836  0.55916  Biso   1.000  Cu
  O1       1.0000 0.72730  0.06077  0.12120  Biso   1.000  O
  O2       1.0000 0.27270  0.56077  0.37880  Biso   1.000  O
  O3       1.0000 0.27270  0.93923  0.87880  Biso   1.000  O
  O4       1.0000 0.72730  0.43923  0.62120  Biso   1.000  O
  O5       1.0000 0.32700  0.07543  0.01730  Biso   1.000  O
  O6       1.0000 0.67300  0.57543  0.48270  Biso   1.000  O
  O7       1.0000 0.67300  0.92457  0.98270  Biso   1.000  O
  O8       1.0000 0.32700  0.42457  0.51730  Biso   1.000  O
  O9       1.0000 0.84300  0.01779  0.89269  Biso   1.000  O
  O10      1.0000 0.15700  0.51779  0.60731  Biso   1.000  O
  O11      1.0000 0.15700  0.98221  0.10731  Biso   1.000  O
  O12      1.0000 0.84300  0.48221  0.39269  Biso   1.000  O
  O13      1.0000 0.43930  0.03093  0.79480  Biso   1.000  O
  O14      1.0000 0.56070  0.53093  0.70520  Biso   1.000  O
  O15      1.0000 0.56070  0.96907  0.20520  Biso   1.000  O
  O16      1.0000 0.43930  0.46907  0.29480  Biso   1.000  O
  C1       1.0000 0.53360  0.08909  0.08660  Biso   1.000  C
  C2       1.0000 0.46640  0.58909  0.41340  Biso   1.000  C
  C3       1.0000 0.46640  0.91091  0.91340  Biso   1.000  C
  C4       1.0000 0.53360  0.41091  0.58660  Biso   1.000  C
  C5       1.0000 0.55470  0.14363  0.12820  Biso   1.000  C
  C6       1.0000 0.44530  0.64363  0.37180  Biso   1.000  C
  C7       1.0000 0.44530  0.85637  0.87180  Biso   1.000  C
  C8       1.0000 0.55470  0.35637  0.62820  Biso   1.000  C
  C9       1.0000 0.66250  0.17672  0.02900  Biso   1.000  C
  C10      1.0000 0.33750  0.67672  0.47100  Biso   1.000  C
  C11      1.0000 0.33750  0.82328  0.97100  Biso   1.000  C
  C12      1.0000 0.66250  0.32328  0.52900  Biso   1.000  C
  C13      1.0000 0.86060  0.16038  0.96330  Biso   1.000  C
  C14      1.0000 0.13940  0.66038  0.53670  Biso   1.000  C
  C15      1.0000 0.13940  0.83962  0.03670  Biso   1.000  C
  C16      1.0000 0.86060  0.33962  0.46330  Biso   1.000  C
  C17      1.0000 0.95840  0.19090  0.87360  Biso   1.000  C
  C18      1.0000 0.04160  0.69090  0.62640  Biso   1.000  C
  C19      1.0000 0.04160  0.80910  0.12640  Biso   1.000  C
  C20      1.0000 0.95840  0.30910  0.37360  Biso   1.000  C
  C21      1.0000 0.86010  0.23867  0.84960  Biso   1.000  C
  C22      1.0000 0.13990  0.73867  0.65040  Biso   1.000  C
  C23      1.0000 0.13990  0.76133  0.15040  Biso   1.000  C
  C24      1.0000 0.86010  0.26133  0.34960  Biso   1.000  C
  C25      1.0000 0.66830  0.25563  0.91520  Biso   1.000  C
  C26      1.0000 0.33170  0.75563  0.58480  Biso   1.000  C
  C27      1.0000 0.33170  0.74437  0.08480  Biso   1.000  C
  C28      1.0000 0.66830  0.24437  0.41520  Biso   1.000  C
  C29      1.0000 0.56790  0.22489  0.00390  Biso   1.000  C
  C30      1.0000 0.43210  0.72489  0.49610  Biso   1.000  C
  C31      1.0000 0.43210  0.77511  0.99610  Biso   1.000  C
  C32      1.0000 0.56790  0.27511  0.50390  Biso   1.000  C
  C33      1.0000 0.67880  0.03423  0.79770  Biso   1.000  C
  C34      1.0000 0.32120  0.53423  0.70230  Biso   1.000  C
  C35      1.0000 0.32120  0.96577  0.20230  Biso   1.000  C
  C36      1.0000 0.67880  0.46577  0.29770  Biso   1.000  C
  C37      1.0000 0.78360  0.05968  0.68450  Biso   1.000  C
  C38      1.0000 0.21640  0.55968  0.81550  Biso   1.000  C
  C39      1.0000 0.21640  0.94032  0.31550  Biso   1.000  C
  C40      1.0000 0.78360  0.44032  0.18450  Biso   1.000  C
  C41      1.0000 0.57590  0.08496  0.59050  Biso   1.000  C
  C42      1.0000 0.42410  0.58496  0.90950  Biso   1.000  C
  C43      1.0000 0.42410  0.91504  0.40950  Biso   1.000  C
  C44      1.0000 0.57590  0.41504  0.09050  Biso   1.000  C
  C45      1.0000 0.44600  0.12650  0.62780  Biso   1.000  C
  C46      1.0000 0.55400  0.62650  0.87220  Biso   1.000  C
  C47      1.0000 0.55400  0.87350  0.37220  Biso   1.000  C
  C48      1.0000 0.44600  0.37350  0.12780  Biso   1.000  C
  C49      1.0000 0.24140  0.14781  0.54600  Biso   1.000  C
  C50      1.0000 0.75860  0.64781  0.95400  Biso   1.000  C
  C51      1.0000 0.75860  0.85219  0.45400  Biso   1.000  C
  C52      1.0000 0.24140  0.35219  0.04600  Biso   1.000  C
  C53      1.0000 0.16570  0.12736  0.42500  Biso   1.000  C
  C54      1.0000 0.83430  0.62736  0.07500  Biso   1.000  C
  C55      1.0000 0.83430  0.87264  0.57500  Biso   1.000  C
  C56      1.0000 0.16570  0.37264  0.92500  Biso   1.000  C
  C57      1.0000 0.29540  0.08709  0.38460  Biso   1.000  C
  C58      1.0000 0.70460  0.58709  0.11540  Biso   1.000  C
  C59      1.0000 0.70460  0.91291  0.61540  Biso   1.000  C
  C60      1.0000 0.29540  0.41291  0.88460  Biso   1.000  C
  C61      1.0000 0.50080  0.06596  0.46570  Biso   1.000  C
  C62      1.0000 0.49920  0.56596  0.03430  Biso   1.000  C
  C63      1.0000 0.49920  0.93404  0.53430  Biso   1.000  C
  C64      1.0000 0.50080  0.43404  0.96570  Biso   1.000  C
  H1       1.0000 0.66664  0.14609  0.21155  Biso   1.000  H
  H2       1.0000 0.33336  0.64609  0.28845  Biso   1.000  H
  H3       1.0000 0.33336  0.85391  0.78845  Biso   1.000  H
  H4       1.0000 0.66664  0.35391  0.71155  Biso   1.000  H
  H5       1.0000 0.38420  0.15593  0.14043  Biso   1.000  H
  H6       1.0000 0.61580  0.65593  0.35957  Biso   1.000  H
  H7       1.0000 0.61580  0.84407  0.85957  Biso   1.000  H
  H8       1.0000 0.38420  0.34407  0.64043  Biso   1.000  H
  H9       1.0000 0.92937  0.12821  0.97986  Biso   1.000  H
  H10      1.0000 0.07063  0.62821  0.52014  Biso   1.000  H
  H11      1.0000 0.07063  0.87179  0.02014  Biso   1.000  H
  H12      1.0000 0.92937  0.37179  0.47986  Biso   1.000  H
  H13      1.0000 0.09036  0.17914  0.82951  Biso   1.000  H
  H14      1.0000 0.90964  0.67914  0.67049  Biso   1.000  H
  H15      1.0000 0.90964  0.82086  0.17049  Biso   1.000  H
  H16      1.0000 0.09036  0.32086  0.32951  Biso   1.000  H
  H17      1.0000 0.92439  0.25933  0.78874  Biso   1.000  H
  H18      1.0000 0.07561  0.75933  0.71126  Biso   1.000  H
  H19      1.0000 0.07561  0.74067  0.21126  Biso   1.000  H
  H20      1.0000 0.92439  0.24067  0.28874  Biso   1.000  H
  H21      1.0000 0.60413  0.28823  0.90025  Biso   1.000  H
  H22      1.0000 0.39587  0.78823  0.59975  Biso   1.000  H
  H23      1.0000 0.39587  0.71177  0.09975  Biso   1.000  H
  H24      1.0000 0.60413  0.21177  0.40025  Biso   1.000  H
  H25      1.0000 0.43513  0.23685  0.04714  Biso   1.000  H
  H26      1.0000 0.56487  0.73685  0.45286  Biso   1.000  H
  H27      1.0000 0.56487  0.76315  0.95286  Biso   1.000  H
  H28      1.0000 0.43513  0.26315  0.54714  Biso   1.000  H
  H29      1.0000 0.91163  0.08471  0.71880  Biso   1.000  H
  H30      1.0000 0.08837  0.58471  0.78120  Biso   1.000  H
  H31      1.0000 0.08837  0.91529  0.28120  Biso   1.000  H
  H32      1.0000 0.91163  0.41529  0.21880  Biso   1.000  H
  H33      1.0000 0.87034  0.03460  0.63757  Biso   1.000  H
  H34      1.0000 0.12966  0.53460  0.86243  Biso   1.000  H
  H35      1.0000 0.12966  0.96540  0.36243  Biso   1.000  H
  H36      1.0000 0.87034  0.46540  0.13757  Biso   1.000  H
  H37      1.0000 0.49688  0.14059  0.70998  Biso   1.000  H
  H38      1.0000 0.50312  0.64059  0.79002  Biso   1.000  H
  H39      1.0000 0.50312  0.85941  0.29002  Biso   1.000  H
  H40      1.0000 0.49688  0.35941  0.20998  Biso   1.000  H
  H41      1.0000 0.15574  0.17589  0.57307  Biso   1.000  H
  H42      1.0000 0.84426  0.67589  0.92693  Biso   1.000  H
  H43      1.0000 0.84426  0.82411  0.42693  Biso   1.000  H
  H44      1.0000 0.15574  0.32411  0.07307  Biso   1.000  H
  H45      1.0000 0.02541  0.14102  0.37028  Biso   1.000  H
  H46      1.0000 0.97459  0.64102  0.12972  Biso   1.000  H
  H47      1.0000 0.97459  0.85898  0.62972  Biso   1.000  H
  H48      1.0000 0.02541  0.35898  0.87028  Biso   1.000  H
  H49      1.0000 0.24532  0.07367  0.30158  Biso   1.000  H
  H50      1.0000 0.75468  0.57367  0.19842  Biso   1.000  H
  H51      1.0000 0.75468  0.92633  0.69842  Biso   1.000  H
  H52      1.0000 0.24532  0.42633  0.80158  Biso   1.000  H
  H53      1.0000 0.58977  0.03873  0.43639  Biso   1.000  H
  H54      1.0000 0.41023  0.53873  0.06361  Biso   1.000  H
  H55      1.0000 0.41023  0.96127  0.56361  Biso   1.000  H
  H56      1.0000 0.58977  0.46127  0.93639  Biso   1.000  H
