data_image0
_cell_length_a       11.08
_cell_length_b       11.08
_cell_length_c       16.0239
_cell_angle_alpha    90
_cell_angle_beta     90
_cell_angle_gamma    90

_symmetry_space_group_name_H-M    "P 1"
_symmetry_int_tables_number       1

loop_
  _symmetry_equiv_pos_as_xyz
  'x, y, z'

loop_
  _atom_site_label
  _atom_site_occupancy
  _atom_site_fract_x
  _atom_site_fract_y
  _atom_site_fract_z
  _atom_site_thermal_displace_type
  _atom_site_B_iso_or_equiv
  _atom_site_type_symbol
  Cu1      1.0000 0.25000  0.75000  0.75000  Biso   1.000  Cu
  Cu2      1.0000 0.25000  0.75000  0.25000  Biso   1.000  Cu
  Cu3      1.0000 0.75000  0.25000  0.25000  Biso   1.000  Cu
  Cu4      1.0000 0.75000  0.25000  0.75000  Biso   1.000  Cu
  Si1      1.0000 0.25000  0.25000  0.30327  Biso   1.000  Si
  Si2      1.0000 0.25000  0.25000  0.80327  Biso   1.000  Si
  Si3      1.0000 0.75000  0.75000  0.69673  Biso   1.000  Si
  Si4      1.0000 0.75000  0.75000  0.19673  Biso   1.000  Si
  F1       1.0000 0.25000  0.25000  0.40730  Biso   1.000  F
  F2       1.0000 0.25000  0.25000  0.90730  Biso   1.000  F
  F3       1.0000 0.75000  0.75000  0.59270  Biso   1.000  F
  F4       1.0000 0.75000  0.75000  0.09270  Biso   1.000  F
  F5       1.0000 0.16350  0.12440  0.30190  Biso   1.000  F
  F6       1.0000 0.33650  0.12440  0.80190  Biso   1.000  F
  F7       1.0000 0.16350  0.37560  0.80190  Biso   1.000  F
  F8       1.0000 0.12440  0.16350  0.80190  Biso   1.000  F
  F9       1.0000 0.37560  0.16350  0.30190  Biso   1.000  F
  F10      1.0000 0.12440  0.33650  0.30190  Biso   1.000  F
  F11      1.0000 0.66350  0.62440  0.69810  Biso   1.000  F
  F12      1.0000 0.62440  0.66350  0.19810  Biso   1.000  F
  F13      1.0000 0.83650  0.87560  0.69810  Biso   1.000  F
  F14      1.0000 0.66350  0.87560  0.19810  Biso   1.000  F
  F15      1.0000 0.83650  0.62440  0.19810  Biso   1.000  F
  F16      1.0000 0.87560  0.83650  0.19810  Biso   1.000  F
  F17      1.0000 0.62440  0.83650  0.69810  Biso   1.000  F
  F18      1.0000 0.87560  0.66350  0.69810  Biso   1.000  F
  F19      1.0000 0.33650  0.37560  0.30190  Biso   1.000  F
  F20      1.0000 0.37560  0.33650  0.80190  Biso   1.000  F
  F21      1.0000 0.25000  0.25000  0.19740  Biso   1.000  F
  F22      1.0000 0.25000  0.25000  0.69740  Biso   1.000  F
  F23      1.0000 0.75000  0.75000  0.80260  Biso   1.000  F
  F24      1.0000 0.75000  0.75000  0.30260  Biso   1.000  F
  O1       1.0000 0.40190  0.90190  0.75000  Biso   1.000  O
  O2       1.0000 0.09810  0.90190  0.25000  Biso   1.000  O
  O3       1.0000 0.40190  0.59810  0.25000  Biso   1.000  O
  O4       1.0000 0.90190  0.40190  0.25000  Biso   1.000  O
  O5       1.0000 0.59810  0.40190  0.75000  Biso   1.000  O
  O6       1.0000 0.90190  0.09810  0.75000  Biso   1.000  O
  O7       1.0000 0.59810  0.09810  0.25000  Biso   1.000  O
  O8       1.0000 0.09810  0.59810  0.75000  Biso   1.000  O
  N1       1.0000 0.15620  0.84160  0.66030  Biso   1.000  N
  N2       1.0000 0.34380  0.84160  0.16030  Biso   1.000  N
  N3       1.0000 0.15620  0.65840  0.16030  Biso   1.000  N
  N4       1.0000 0.84160  0.15620  0.16030  Biso   1.000  N
  N5       1.0000 0.65840  0.15620  0.66030  Biso   1.000  N
  N6       1.0000 0.84160  0.34380  0.66030  Biso   1.000  N
  N7       1.0000 0.65620  0.34160  0.33970  Biso   1.000  N
  N8       1.0000 0.34160  0.65620  0.83970  Biso   1.000  N
  N9       1.0000 0.84380  0.15840  0.33970  Biso   1.000  N
  N10      1.0000 0.65620  0.15840  0.83970  Biso   1.000  N
  N11      1.0000 0.84380  0.34160  0.83970  Biso   1.000  N
  N12      1.0000 0.15840  0.84380  0.83970  Biso   1.000  N
  N13      1.0000 0.34160  0.84380  0.33970  Biso   1.000  N
  N14      1.0000 0.15840  0.65620  0.33970  Biso   1.000  N
  N15      1.0000 0.34380  0.65840  0.66030  Biso   1.000  N
  N16      1.0000 0.65840  0.34380  0.16030  Biso   1.000  N
  C1       1.0000 0.09360  0.78450  0.60160  Biso   1.000  C
  C2       1.0000 0.40640  0.78450  0.10160  Biso   1.000  C
  C3       1.0000 0.09360  0.71550  0.10160  Biso   1.000  C
  C4       1.0000 0.78450  0.09360  0.10160  Biso   1.000  C
  C5       1.0000 0.71550  0.09360  0.60160  Biso   1.000  C
  C6       1.0000 0.78450  0.40640  0.60160  Biso   1.000  C
  C7       1.0000 0.59360  0.28450  0.39840  Biso   1.000  C
  C8       1.0000 0.28450  0.59360  0.89840  Biso   1.000  C
  C9       1.0000 0.90640  0.21550  0.39840  Biso   1.000  C
  C10      1.0000 0.59360  0.21550  0.89840  Biso   1.000  C
  C11      1.0000 0.90640  0.28450  0.89840  Biso   1.000  C
  C12      1.0000 0.21550  0.90640  0.89840  Biso   1.000  C
  C13      1.0000 0.28450  0.90640  0.39840  Biso   1.000  C
  C14      1.0000 0.21550  0.59360  0.39840  Biso   1.000  C
  C15      1.0000 0.40640  0.71550  0.60160  Biso   1.000  C
  C16      1.0000 0.71550  0.40640  0.10160  Biso   1.000  C
  C17      1.0000 0.02860  0.84250  0.53950  Biso   1.000  C
  C18      1.0000 0.47140  0.84250  0.03950  Biso   1.000  C
  C19      1.0000 0.02860  0.65750  0.03950  Biso   1.000  C
  C20      1.0000 0.84250  0.02860  0.03950  Biso   1.000  C
  C21      1.0000 0.65750  0.02860  0.53950  Biso   1.000  C
  C22      1.0000 0.84250  0.47140  0.53950  Biso   1.000  C
  C23      1.0000 0.52860  0.34250  0.46050  Biso   1.000  C
  C24      1.0000 0.34250  0.52860  0.96050  Biso   1.000  C
  C25      1.0000 0.97140  0.15750  0.46050  Biso   1.000  C
  C26      1.0000 0.52860  0.15750  0.96050  Biso   1.000  C
  C27      1.0000 0.97140  0.34250  0.96050  Biso   1.000  C
  C28      1.0000 0.15750  0.97140  0.96050  Biso   1.000  C
  C29      1.0000 0.34250  0.97140  0.46050  Biso   1.000  C
  C30      1.0000 0.15750  0.52860  0.46050  Biso   1.000  C
  C31      1.0000 0.47140  0.65750  0.53950  Biso   1.000  C
  C32      1.0000 0.65750  0.47140  0.03950  Biso   1.000  C
  C33      1.0000 0.03280  0.96730  0.53380  Biso   1.000  C
  C34      1.0000 0.46720  0.96730  0.03380  Biso   1.000  C
  C35      1.0000 0.03280  0.53270  0.03380  Biso   1.000  C
  C36      1.0000 0.96730  0.03280  0.03380  Biso   1.000  C
  C37      1.0000 0.53270  0.03280  0.53380  Biso   1.000  C
  C38      1.0000 0.96730  0.46720  0.53380  Biso   1.000  C
  C39      1.0000 0.53280  0.46730  0.46620  Biso   1.000  C
  C40      1.0000 0.46730  0.53280  0.96620  Biso   1.000  C
  C41      1.0000 0.96720  0.03270  0.46620  Biso   1.000  C
  C42      1.0000 0.53280  0.03270  0.96620  Biso   1.000  C
  C43      1.0000 0.96720  0.46730  0.96620  Biso   1.000  C
  C44      1.0000 0.03270  0.96720  0.96620  Biso   1.000  C
  C45      1.0000 0.46730  0.96720  0.46620  Biso   1.000  C
  C46      1.0000 0.03270  0.53280  0.46620  Biso   1.000  C
  C47      1.0000 0.46720  0.53270  0.53380  Biso   1.000  C
  C48      1.0000 0.53270  0.46720  0.03380  Biso   1.000  C
  C49      1.0000 0.09630  0.02780  0.59620  Biso   1.000  C
  C50      1.0000 0.40370  0.02780  0.09620  Biso   1.000  C
  C51      1.0000 0.09630  0.47220  0.09620  Biso   1.000  C
  C52      1.0000 0.02780  0.09630  0.09620  Biso   1.000  C
  C53      1.0000 0.47220  0.09630  0.59620  Biso   1.000  C
  C54      1.0000 0.02780  0.40370  0.59620  Biso   1.000  C
  C55      1.0000 0.59630  0.52780  0.40380  Biso   1.000  C
  C56      1.0000 0.52780  0.59630  0.90380  Biso   1.000  C
  C57      1.0000 0.90370  0.97220  0.40380  Biso   1.000  C
  C58      1.0000 0.59630  0.97220  0.90380  Biso   1.000  C
  C59      1.0000 0.90370  0.52780  0.90380  Biso   1.000  C
  C60      1.0000 0.97220  0.90370  0.90380  Biso   1.000  C
  C61      1.0000 0.52780  0.90370  0.40380  Biso   1.000  C
  C62      1.0000 0.97220  0.59630  0.40380  Biso   1.000  C
  C63      1.0000 0.40370  0.47220  0.59620  Biso   1.000  C
  C64      1.0000 0.47220  0.40370  0.09620  Biso   1.000  C
  C65      1.0000 0.15580  0.96360  0.65760  Biso   1.000  C
  C66      1.0000 0.34420  0.96360  0.15760  Biso   1.000  C
  C67      1.0000 0.15580  0.53640  0.15760  Biso   1.000  C
  C68      1.0000 0.96360  0.15580  0.15760  Biso   1.000  C
  C69      1.0000 0.53640  0.15580  0.65760  Biso   1.000  C
  C70      1.0000 0.96360  0.34420  0.65760  Biso   1.000  C
  C71      1.0000 0.65580  0.46360  0.34240  Biso   1.000  C
  C72      1.0000 0.46360  0.65580  0.84240  Biso   1.000  C
  C73      1.0000 0.84420  0.03640  0.34240  Biso   1.000  C
  C74      1.0000 0.65580  0.03640  0.84240  Biso   1.000  C
  C75      1.0000 0.84420  0.46360  0.84240  Biso   1.000  C
  C76      1.0000 0.03640  0.84420  0.84240  Biso   1.000  C
  C77      1.0000 0.46360  0.84420  0.34240  Biso   1.000  C
  C78      1.0000 0.03640  0.65580  0.34240  Biso   1.000  C
  C79      1.0000 0.34420  0.53640  0.65760  Biso   1.000  C
  C80      1.0000 0.53640  0.34420  0.15760  Biso   1.000  C
  H1       1.0000 0.09300  0.69840  0.60230  Biso   1.000  H
  H2       1.0000 0.40700  0.69840  0.10230  Biso   1.000  H
  H3       1.0000 0.09300  0.80160  0.10230  Biso   1.000  H
  H4       1.0000 0.69840  0.09300  0.10230  Biso   1.000  H
  H5       1.0000 0.80160  0.09300  0.60230  Biso   1.000  H
  H6       1.0000 0.69840  0.40700  0.60230  Biso   1.000  H
  H7       1.0000 0.59300  0.19840  0.39770  Biso   1.000  H
  H8       1.0000 0.19840  0.59300  0.89770  Biso   1.000  H
  H9       1.0000 0.90700  0.30160  0.39770  Biso   1.000  H
  H10      1.0000 0.59300  0.30160  0.89770  Biso   1.000  H
  H11      1.0000 0.90700  0.19840  0.89770  Biso   1.000  H
  H12      1.0000 0.30160  0.90700  0.89770  Biso   1.000  H
  H13      1.0000 0.19840  0.90700  0.39770  Biso   1.000  H
  H14      1.0000 0.30160  0.59300  0.39770  Biso   1.000  H
  H15      1.0000 0.40700  0.80160  0.60230  Biso   1.000  H
  H16      1.0000 0.80160  0.40700  0.10230  Biso   1.000  H
  H17      1.0000 0.98190  0.79750  0.50090  Biso   1.000  H
  H18      1.0000 0.51810  0.79750  0.00090  Biso   1.000  H
  H19      1.0000 0.98190  0.70250  0.00090  Biso   1.000  H
  H20      1.0000 0.79750  0.98190  0.00090  Biso   1.000  H
  H21      1.0000 0.70250  0.98190  0.50090  Biso   1.000  H
  H22      1.0000 0.79750  0.51810  0.50090  Biso   1.000  H
  H23      1.0000 0.48190  0.29750  0.49910  Biso   1.000  H
  H24      1.0000 0.29750  0.48190  0.99910  Biso   1.000  H
  H25      1.0000 0.01810  0.20250  0.49910  Biso   1.000  H
  H26      1.0000 0.48190  0.20250  0.99910  Biso   1.000  H
  H27      1.0000 0.01810  0.29750  0.99910  Biso   1.000  H
  H28      1.0000 0.20250  0.01810  0.99910  Biso   1.000  H
  H29      1.0000 0.29750  0.01810  0.49910  Biso   1.000  H
  H30      1.0000 0.20250  0.48190  0.49910  Biso   1.000  H
  H31      1.0000 0.51810  0.70250  0.50090  Biso   1.000  H
  H32      1.0000 0.70250  0.51810  0.00090  Biso   1.000  H
  H33      1.0000 0.09940  0.11370  0.59620  Biso   1.000  H
  H34      1.0000 0.40060  0.11370  0.09620  Biso   1.000  H
  H35      1.0000 0.09940  0.38630  0.09620  Biso   1.000  H
  H36      1.0000 0.11370  0.09940  0.09620  Biso   1.000  H
  H37      1.0000 0.38630  0.09940  0.59620  Biso   1.000  H
  H38      1.0000 0.11370  0.40060  0.59620  Biso   1.000  H
  H39      1.0000 0.59940  0.61370  0.40380  Biso   1.000  H
  H40      1.0000 0.61370  0.59940  0.90380  Biso   1.000  H
  H41      1.0000 0.90060  0.88630  0.40380  Biso   1.000  H
  H42      1.0000 0.59940  0.88630  0.90380  Biso   1.000  H
  H43      1.0000 0.90060  0.61370  0.90380  Biso   1.000  H
  H44      1.0000 0.88630  0.90060  0.90380  Biso   1.000  H
  H45      1.0000 0.61370  0.90060  0.40380  Biso   1.000  H
  H46      1.0000 0.88630  0.59940  0.40380  Biso   1.000  H
  H47      1.0000 0.40060  0.38630  0.59620  Biso   1.000  H
  H48      1.0000 0.38630  0.40060  0.09620  Biso   1.000  H
  H49      1.0000 0.19660  0.00670  0.70020  Biso   1.000  H
  H50      1.0000 0.30340  0.00670  0.20020  Biso   1.000  H
  H51      1.0000 0.19660  0.49330  0.20020  Biso   1.000  H
  H52      1.0000 0.00670  0.19660  0.20020  Biso   1.000  H
  H53      1.0000 0.49330  0.19660  0.70020  Biso   1.000  H
  H54      1.0000 0.00670  0.30340  0.70020  Biso   1.000  H
  H55      1.0000 0.69660  0.50670  0.29980  Biso   1.000  H
  H56      1.0000 0.50670  0.69660  0.79980  Biso   1.000  H
  H57      1.0000 0.80340  0.99330  0.29980  Biso   1.000  H
  H58      1.0000 0.69660  0.99330  0.79980  Biso   1.000  H
  H59      1.0000 0.80340  0.50670  0.79980  Biso   1.000  H
  H60      1.0000 0.99330  0.80340  0.79980  Biso   1.000  H
  H61      1.0000 0.50670  0.80340  0.29980  Biso   1.000  H
  H62      1.0000 0.99330  0.69660  0.29980  Biso   1.000  H
  H63      1.0000 0.30340  0.49330  0.70020  Biso   1.000  H
  H64      1.0000 0.49330  0.30340  0.20020  Biso   1.000  H
