data_image0
_cell_length_a       11.113
_cell_length_b       11.113
_cell_length_c       8.263
_cell_angle_alpha    90
_cell_angle_beta     90
_cell_angle_gamma    90

_symmetry_space_group_name_H-M    "P 1"
_symmetry_int_tables_number       1

loop_
  _symmetry_equiv_pos_as_xyz
  'x, y, z'

loop_
  _atom_site_label
  _atom_site_occupancy
  _atom_site_fract_x
  _atom_site_fract_y
  _atom_site_fract_z
  _atom_site_thermal_displace_type
  _atom_site_B_iso_or_equiv
  _atom_site_type_symbol
  Ge1      1.0000 0.00000  0.00000  0.50000  Biso   1.000  Ge
  Cu1      1.0000 0.00000  0.00000  0.00000  Biso   1.000  Cu
  F1       1.0000 0.00000  0.00000  0.70700  Biso   1.000  F
  F2       1.0000 0.00000  0.00000  0.29300  Biso   1.000  F
  F3       1.0000 0.14400  0.00000  0.50000  Biso   1.000  F
  F4       1.0000 0.00000  0.14400  0.50000  Biso   1.000  F
  F5       1.0000 0.00000  0.85600  0.50000  Biso   1.000  F
  F6       1.0000 0.85600  0.00000  0.50000  Biso   1.000  F
  N1       1.0000 0.18100  0.00000  0.00000  Biso   1.000  N
  N2       1.0000 0.00000  0.18100  0.00000  Biso   1.000  N
  N3       1.0000 0.00000  0.81900  0.00000  Biso   1.000  N
  N4       1.0000 0.81900  0.00000  0.00000  Biso   1.000  N
  C1       1.0000 0.23900  0.00000  0.12400  Biso   1.000  C
  C2       1.0000 0.00000  0.23900  0.12400  Biso   1.000  C
  C3       1.0000 0.00000  0.76100  0.12400  Biso   1.000  C
  C4       1.0000 0.00000  0.23900  0.87600  Biso   1.000  C
  C5       1.0000 0.23900  0.00000  0.87600  Biso   1.000  C
  C6       1.0000 0.76100  0.00000  0.87600  Biso   1.000  C
  C7       1.0000 0.00000  0.76100  0.87600  Biso   1.000  C
  C8       1.0000 0.76100  0.00000  0.12400  Biso   1.000  C
  C9       1.0000 0.36900  0.00000  0.13400  Biso   1.000  C
  C10      1.0000 0.00000  0.36900  0.13400  Biso   1.000  C
  C11      1.0000 0.00000  0.63100  0.13400  Biso   1.000  C
  C12      1.0000 0.00000  0.36900  0.86600  Biso   1.000  C
  C13      1.0000 0.36900  0.00000  0.86600  Biso   1.000  C
  C14      1.0000 0.63100  0.00000  0.86600  Biso   1.000  C
  C15      1.0000 0.00000  0.63100  0.86600  Biso   1.000  C
  C16      1.0000 0.63100  0.00000  0.13400  Biso   1.000  C
  C17      1.0000 0.43200  0.00000  0.00000  Biso   1.000  C
  C18      1.0000 0.00000  0.43200  0.00000  Biso   1.000  C
  C19      1.0000 0.00000  0.56800  0.00000  Biso   1.000  C
  C20      1.0000 0.56800  0.00000  0.00000  Biso   1.000  C
  H1       1.0000 0.19580  0.00000  0.22970  Biso   1.000  H
  H2       1.0000 0.00000  0.19580  0.22970  Biso   1.000  H
  H3       1.0000 0.00000  0.80420  0.22970  Biso   1.000  H
  H4       1.0000 0.00000  0.19580  0.77030  Biso   1.000  H
  H5       1.0000 0.19580  0.00000  0.77030  Biso   1.000  H
  H6       1.0000 0.80420  0.00000  0.77030  Biso   1.000  H
  H7       1.0000 0.00000  0.80420  0.77030  Biso   1.000  H
  H8       1.0000 0.80420  0.00000  0.22970  Biso   1.000  H
  H9       1.0000 0.40990  0.00000  0.23520  Biso   1.000  H
  H10      1.0000 0.00000  0.40990  0.23520  Biso   1.000  H
  H11      1.0000 0.00000  0.59010  0.23520  Biso   1.000  H
  H12      1.0000 0.00000  0.40990  0.76480  Biso   1.000  H
  H13      1.0000 0.40990  0.00000  0.76480  Biso   1.000  H
  H14      1.0000 0.59010  0.00000  0.76480  Biso   1.000  H
  H15      1.0000 0.00000  0.59010  0.76480  Biso   1.000  H
  H16      1.0000 0.59010  0.00000  0.23520  Biso   1.000  H
  O1       1.0000 0.50000  0.14300  0.50000  Biso   1.000  O
  O2       1.0000 0.85700  0.50000  0.50000  Biso   1.000  O
  O3       1.0000 0.14300  0.50000  0.50000  Biso   1.000  O
  O4       1.0000 0.50000  0.85700  0.50000  Biso   1.000  O
  O5       1.0000 0.24400  0.24370  0.50000  Biso   1.000  O
  O6       1.0000 0.75630  0.24400  0.50000  Biso   1.000  O
  O7       1.0000 0.24370  0.75600  0.50000  Biso   1.000  O
  O8       1.0000 0.75630  0.75600  0.50000  Biso   1.000  O
  F7       1.0000 0.10600  0.10600  0.50000  Biso   1.000  F
  F8       1.0000 0.89400  0.10600  0.50000  Biso   1.000  F
  F9       1.0000 0.10600  0.89400  0.50000  Biso   1.000  F
  F10      1.0000 0.89400  0.89400  0.50000  Biso   1.000  F
