data_image0
_cell_length_a       11.1611
_cell_length_b       13.1786
_cell_length_c       22.1972
_cell_angle_alpha    90
_cell_angle_beta     92.569
_cell_angle_gamma    90

_symmetry_space_group_name_H-M    "P 1"
_symmetry_int_tables_number       1

loop_
  _symmetry_equiv_pos_as_xyz
  'x, y, z'

loop_
  _atom_site_label
  _atom_site_occupancy
  _atom_site_fract_x
  _atom_site_fract_y
  _atom_site_fract_z
  _atom_site_thermal_displace_type
  _atom_site_B_iso_or_equiv
  _atom_site_type_symbol
  Cu1      1.0000 0.81322  0.23050  0.07794  Biso   1.000  Cu
  Cu2      1.0000 0.81322  0.26950  0.57794  Biso   1.000  Cu
  Cu3      1.0000 0.18678  0.76950  0.92206  Biso   1.000  Cu
  Cu4      1.0000 0.18678  0.73050  0.42206  Biso   1.000  Cu
  P1       1.0000 0.81710  0.54730  0.08317  Biso   1.000  P
  P2       1.0000 0.81710  0.95270  0.58317  Biso   1.000  P
  P3       1.0000 0.18290  0.45270  0.91683  Biso   1.000  P
  P4       1.0000 0.18290  0.04730  0.41683  Biso   1.000  P
  P5       1.0000 0.59790  0.51390  0.75976  Biso   1.000  P
  P6       1.0000 0.59790  0.98610  0.25976  Biso   1.000  P
  P7       1.0000 0.40210  0.48610  0.24024  Biso   1.000  P
  P8       1.0000 0.40210  0.01390  0.74024  Biso   1.000  P
  F1       1.0000 0.90290  0.54860  0.14100  Biso   1.000  F
  F2       1.0000 0.90290  0.95140  0.64100  Biso   1.000  F
  F3       1.0000 0.09710  0.45140  0.85900  Biso   1.000  F
  F4       1.0000 0.09710  0.04860  0.35900  Biso   1.000  F
  F5       1.0000 0.70470  0.54000  0.12320  Biso   1.000  F
  F6       1.0000 0.70470  0.96000  0.62320  Biso   1.000  F
  F7       1.0000 0.29530  0.46000  0.87680  Biso   1.000  F
  F8       1.0000 0.29530  0.04000  0.37680  Biso   1.000  F
  F9       1.0000 0.82030  0.42640  0.08260  Biso   1.000  F
  F10      1.0000 0.82030  0.07360  0.58260  Biso   1.000  F
  F11      1.0000 0.17970  0.57360  0.91740  Biso   1.000  F
  F12      1.0000 0.17970  0.92640  0.41740  Biso   1.000  F
  F13      1.0000 0.73090  0.54250  0.02610  Biso   1.000  F
  F14      1.0000 0.73090  0.95750  0.52610  Biso   1.000  F
  F15      1.0000 0.26910  0.45750  0.97390  Biso   1.000  F
  F16      1.0000 0.26910  0.04250  0.47390  Biso   1.000  F
  F17      1.0000 0.92660  0.55040  0.04250  Biso   1.000  F
  F18      1.0000 0.92660  0.94960  0.54250  Biso   1.000  F
  F19      1.0000 0.07340  0.44960  0.95750  Biso   1.000  F
  F20      1.0000 0.07340  0.05040  0.45750  Biso   1.000  F
  F21      1.0000 0.81120  0.66540  0.08470  Biso   1.000  F
  F22      1.0000 0.81120  0.83460  0.58470  Biso   1.000  F
  F23      1.0000 0.18880  0.33460  0.91530  Biso   1.000  F
  F24      1.0000 0.18880  0.16540  0.41530  Biso   1.000  F
  F25      1.0000 0.48780  0.52030  0.71310  Biso   1.000  F
  F26      1.0000 0.48780  0.97970  0.21310  Biso   1.000  F
  F27      1.0000 0.51220  0.47970  0.28690  Biso   1.000  F
  F28      1.0000 0.51220  0.02030  0.78690  Biso   1.000  F
  F29      1.0000 0.67490  0.47750  0.70970  Biso   1.000  F
  F30      1.0000 0.67490  0.02250  0.20970  Biso   1.000  F
  F31      1.0000 0.32510  0.52250  0.29030  Biso   1.000  F
  F32      1.0000 0.32510  0.97750  0.79030  Biso   1.000  F
  F33      1.0000 0.61820  0.62250  0.75060  Biso   1.000  F
  F34      1.0000 0.61820  0.87750  0.25060  Biso   1.000  F
  F35      1.0000 0.38180  0.37750  0.24940  Biso   1.000  F
  F36      1.0000 0.38180  0.12250  0.74940  Biso   1.000  F
  F37      1.0000 0.70650  0.50640  0.80200  Biso   1.000  F
  F38      1.0000 0.70650  0.99360  0.30200  Biso   1.000  F
  F39      1.0000 0.29350  0.49360  0.19800  Biso   1.000  F
  F40      1.0000 0.29350  0.00640  0.69800  Biso   1.000  F
  F41      1.0000 0.50900  0.54400  0.80330  Biso   1.000  F
  F42      1.0000 0.50900  0.95600  0.30330  Biso   1.000  F
  F43      1.0000 0.49100  0.45600  0.19670  Biso   1.000  F
  F44      1.0000 0.49100  0.04400  0.69670  Biso   1.000  F
  F45      1.0000 0.57790  0.39970  0.76520  Biso   1.000  F
  F46      1.0000 0.57790  0.10030  0.26520  Biso   1.000  F
  F47      1.0000 0.42210  0.60030  0.23480  Biso   1.000  F
  F48      1.0000 0.42210  0.89970  0.73480  Biso   1.000  F
  N1       1.0000 0.99690  0.23840  0.07630  Biso   1.000  N
  N2       1.0000 0.99690  0.26160  0.57630  Biso   1.000  N
  N3       1.0000 0.00310  0.76160  0.92370  Biso   1.000  N
  N4       1.0000 0.00310  0.73840  0.42370  Biso   1.000  N
  N5       1.0000 0.63030  0.23220  0.07530  Biso   1.000  N
  N6       1.0000 0.63030  0.26780  0.57530  Biso   1.000  N
  N7       1.0000 0.36970  0.76780  0.92470  Biso   1.000  N
  N8       1.0000 0.36970  0.73220  0.42470  Biso   1.000  N
  N9       1.0000 0.81630  0.24630  0.16900  Biso   1.000  N
  N10      1.0000 0.81630  0.25370  0.66900  Biso   1.000  N
  N11      1.0000 0.18370  0.75370  0.83100  Biso   1.000  N
  N12      1.0000 0.18370  0.74630  0.33100  Biso   1.000  N
  N13      1.0000 0.80750  0.26530  0.48690  Biso   1.000  N
  N14      1.0000 0.80750  0.23470  0.98690  Biso   1.000  N
  N15      1.0000 0.19250  0.73470  0.51310  Biso   1.000  N
  N16      1.0000 0.19250  0.76530  0.01310  Biso   1.000  N
  N17      1.0000 0.83090  0.04930  0.08340  Biso   1.000  N
  N18      1.0000 0.83090  0.45070  0.58340  Biso   1.000  N
  N19      1.0000 0.16910  0.95070  0.91660  Biso   1.000  N
  N20      1.0000 0.16910  0.54930  0.41660  Biso   1.000  N
  N21      1.0000 0.13650  0.46080  0.68470  Biso   1.000  N
  N22      1.0000 0.13650  0.03920  0.18470  Biso   1.000  N
  N23      1.0000 0.86350  0.53920  0.31530  Biso   1.000  N
  N24      1.0000 0.86350  0.96080  0.81530  Biso   1.000  N
  N25      1.0000 0.57580  0.89180  0.05800  Biso   1.000  N
  N26      1.0000 0.57580  0.60820  0.55800  Biso   1.000  N
  N27      1.0000 0.42420  0.10820  0.94200  Biso   1.000  N
  N28      1.0000 0.42420  0.39180  0.44200  Biso   1.000  N
  C1       1.0000 0.05780  0.16840  0.04560  Biso   1.000  C
  C2       1.0000 0.05780  0.33160  0.54560  Biso   1.000  C
  C3       1.0000 0.94220  0.83160  0.95440  Biso   1.000  C
  C4       1.0000 0.94220  0.66840  0.45440  Biso   1.000  C
  C5       1.0000 0.18130  0.16600  0.04420  Biso   1.000  C
  C6       1.0000 0.18130  0.33400  0.54420  Biso   1.000  C
  C7       1.0000 0.81870  0.83400  0.95580  Biso   1.000  C
  C8       1.0000 0.81870  0.66600  0.45580  Biso   1.000  C
  C9       1.0000 0.24680  0.24140  0.07460  Biso   1.000  C
  C10      1.0000 0.24680  0.25860  0.57460  Biso   1.000  C
  C11      1.0000 0.75320  0.75860  0.92540  Biso   1.000  C
  C12      1.0000 0.75320  0.74140  0.42540  Biso   1.000  C
  C13      1.0000 0.18520  0.31590  0.10370  Biso   1.000  C
  C14      1.0000 0.18520  0.18410  0.60370  Biso   1.000  C
  C15      1.0000 0.81480  0.68410  0.89630  Biso   1.000  C
  C16      1.0000 0.81480  0.81590  0.39630  Biso   1.000  C
  C17      1.0000 0.06100  0.31110  0.10410  Biso   1.000  C
  C18      1.0000 0.06100  0.18890  0.60410  Biso   1.000  C
  C19      1.0000 0.93900  0.68890  0.89590  Biso   1.000  C
  C20      1.0000 0.93900  0.81110  0.39590  Biso   1.000  C
  C21      1.0000 0.56880  0.15170  0.09240  Biso   1.000  C
  C22      1.0000 0.56880  0.34830  0.59240  Biso   1.000  C
  C23      1.0000 0.43120  0.84830  0.90760  Biso   1.000  C
  C24      1.0000 0.43120  0.65170  0.40760  Biso   1.000  C
  C25      1.0000 0.44320  0.15180  0.09180  Biso   1.000  C
  C26      1.0000 0.44320  0.34820  0.59180  Biso   1.000  C
  C27      1.0000 0.55680  0.84820  0.90820  Biso   1.000  C
  C28      1.0000 0.55680  0.65180  0.40820  Biso   1.000  C
  C29      1.0000 0.38080  0.23900  0.07540  Biso   1.000  C
  C30      1.0000 0.38080  0.26100  0.57540  Biso   1.000  C
  C31      1.0000 0.61920  0.76100  0.92460  Biso   1.000  C
  C32      1.0000 0.61920  0.73900  0.42460  Biso   1.000  C
  C33      1.0000 0.44660  0.32320  0.05850  Biso   1.000  C
  C34      1.0000 0.44660  0.17680  0.55850  Biso   1.000  C
  C35      1.0000 0.55340  0.67680  0.94150  Biso   1.000  C
  C36      1.0000 0.55340  0.82320  0.44150  Biso   1.000  C
  C37      1.0000 0.56990  0.31680  0.05840  Biso   1.000  C
  C38      1.0000 0.56990  0.18320  0.55840  Biso   1.000  C
  C39      1.0000 0.43010  0.68320  0.94160  Biso   1.000  C
  C40      1.0000 0.43010  0.81680  0.44160  Biso   1.000  C
  C41      1.0000 0.73900  0.30680  0.19660  Biso   1.000  C
  C42      1.0000 0.73900  0.19320  0.69660  Biso   1.000  C
  C43      1.0000 0.26100  0.69320  0.80340  Biso   1.000  C
  C44      1.0000 0.26100  0.80680  0.30340  Biso   1.000  C
  C45      1.0000 0.73500  0.31360  0.25840  Biso   1.000  C
  C46      1.0000 0.73500  0.18640  0.75840  Biso   1.000  C
  C47      1.0000 0.26500  0.68640  0.74160  Biso   1.000  C
  C48      1.0000 0.26500  0.81360  0.24160  Biso   1.000  C
  C49      1.0000 0.81130  0.25540  0.29400  Biso   1.000  C
  C50      1.0000 0.81130  0.24460  0.79400  Biso   1.000  C
  C51      1.0000 0.18870  0.74460  0.70600  Biso   1.000  C
  C52      1.0000 0.18870  0.75540  0.20600  Biso   1.000  C
  C53      1.0000 0.89230  0.19270  0.26520  Biso   1.000  C
  C54      1.0000 0.89230  0.30730  0.76520  Biso   1.000  C
  C55      1.0000 0.10770  0.80730  0.73480  Biso   1.000  C
  C56      1.0000 0.10770  0.69270  0.23480  Biso   1.000  C
  C57      1.0000 0.89130  0.19040  0.20330  Biso   1.000  C
  C58      1.0000 0.89130  0.30960  0.70330  Biso   1.000  C
  C59      1.0000 0.10870  0.80960  0.79670  Biso   1.000  C
  C60      1.0000 0.10870  0.69040  0.29670  Biso   1.000  C
  C61      1.0000 0.84780  0.18320  0.45780  Biso   1.000  C
  C62      1.0000 0.84780  0.31680  0.95780  Biso   1.000  C
  C63      1.0000 0.15220  0.81680  0.54220  Biso   1.000  C
  C64      1.0000 0.15220  0.68320  0.04220  Biso   1.000  C
  C65      1.0000 0.84920  0.17790  0.39580  Biso   1.000  C
  C66      1.0000 0.84920  0.32210  0.89580  Biso   1.000  C
  C67      1.0000 0.15080  0.82210  0.60420  Biso   1.000  C
  C68      1.0000 0.15080  0.67790  0.10420  Biso   1.000  C
  C69      1.0000 0.80900  0.25900  0.36110  Biso   1.000  C
  C70      1.0000 0.80900  0.24100  0.86110  Biso   1.000  C
  C71      1.0000 0.19100  0.74100  0.63890  Biso   1.000  C
  C72      1.0000 0.19100  0.75900  0.13890  Biso   1.000  C
  C73      1.0000 0.76530  0.34300  0.39140  Biso   1.000  C
  C74      1.0000 0.76530  0.15700  0.89140  Biso   1.000  C
  C75      1.0000 0.23470  0.65700  0.60860  Biso   1.000  C
  C76      1.0000 0.23470  0.84300  0.10860  Biso   1.000  C
  C77      1.0000 0.76440  0.34190  0.45320  Biso   1.000  C
  C78      1.0000 0.76440  0.15810  0.95320  Biso   1.000  C
  C79      1.0000 0.23560  0.65810  0.54680  Biso   1.000  C
  C80      1.0000 0.23560  0.84190  0.04680  Biso   1.000  C
  C81      1.0000 0.85240  0.97770  0.10810  Biso   1.000  C
  C82      1.0000 0.85240  0.52230  0.60810  Biso   1.000  C
  C83      1.0000 0.14760  0.02230  0.89190  Biso   1.000  C
  C84      1.0000 0.14760  0.47770  0.39190  Biso   1.000  C
  C85      1.0000 0.87980  0.88180  0.14130  Biso   1.000  C
  C86      1.0000 0.87980  0.61820  0.64130  Biso   1.000  C
  C87      1.0000 0.12020  0.11820  0.85870  Biso   1.000  C
  C88      1.0000 0.12020  0.38180  0.35870  Biso   1.000  C
  C89      1.0000 0.19700  0.40670  0.71150  Biso   1.000  C
  C90      1.0000 0.19700  0.09330  0.21150  Biso   1.000  C
  C91      1.0000 0.80300  0.59330  0.28850  Biso   1.000  C
  C92      1.0000 0.80300  0.90670  0.78850  Biso   1.000  C
  C93      1.0000 0.27290  0.33760  0.74620  Biso   1.000  C
  C94      1.0000 0.27290  0.16240  0.24620  Biso   1.000  C
  C95      1.0000 0.72710  0.66240  0.25380  Biso   1.000  C
  C96      1.0000 0.72710  0.83760  0.75380  Biso   1.000  C
  C97      1.0000 0.54960  0.82210  0.08460  Biso   1.000  C
  C98      1.0000 0.54960  0.67790  0.58460  Biso   1.000  C
  C99      1.0000 0.45040  0.17790  0.91540  Biso   1.000  C
  C100     1.0000 0.45040  0.32210  0.41540  Biso   1.000  C
  C101     1.0000 0.51850  0.73450  0.11810  Biso   1.000  C
  C102     1.0000 0.51850  0.76550  0.61810  Biso   1.000  C
  C103     1.0000 0.48150  0.26550  0.88190  Biso   1.000  C
  C104     1.0000 0.48150  0.23450  0.38190  Biso   1.000  C
  H1       1.0000 0.01320  0.11790  0.02380  Biso   1.000  H
  H2       1.0000 0.01320  0.38210  0.52380  Biso   1.000  H
  H3       1.0000 0.98680  0.88210  0.97620  Biso   1.000  H
  H4       1.0000 0.98680  0.61790  0.47620  Biso   1.000  H
  H5       1.0000 0.22060  0.11410  0.02290  Biso   1.000  H
  H6       1.0000 0.22060  0.38590  0.52290  Biso   1.000  H
  H7       1.0000 0.77940  0.88590  0.97710  Biso   1.000  H
  H8       1.0000 0.77940  0.61410  0.47710  Biso   1.000  H
  H9       1.0000 0.22730  0.37020  0.12350  Biso   1.000  H
  H10      1.0000 0.22730  0.12980  0.62350  Biso   1.000  H
  H11      1.0000 0.77270  0.62980  0.87650  Biso   1.000  H
  H12      1.0000 0.77270  0.87020  0.37650  Biso   1.000  H
  H13      1.0000 0.01970  0.36210  0.12530  Biso   1.000  H
  H14      1.0000 0.01970  0.13790  0.62530  Biso   1.000  H
  H15      1.0000 0.98030  0.63790  0.87470  Biso   1.000  H
  H16      1.0000 0.98030  0.86210  0.37470  Biso   1.000  H
  H17      1.0000 0.61110  0.09250  0.10540  Biso   1.000  H
  H18      1.0000 0.61110  0.40750  0.60540  Biso   1.000  H
  H19      1.0000 0.38890  0.90750  0.89460  Biso   1.000  H
  H20      1.0000 0.38890  0.59250  0.39460  Biso   1.000  H
  H21      1.0000 0.40100  0.09230  0.10270  Biso   1.000  H
  H22      1.0000 0.40100  0.40770  0.60270  Biso   1.000  H
  H23      1.0000 0.59900  0.90770  0.89730  Biso   1.000  H
  H24      1.0000 0.59900  0.59230  0.39730  Biso   1.000  H
  H25      1.0000 0.40690  0.38450  0.04710  Biso   1.000  H
  H26      1.0000 0.40690  0.11550  0.54710  Biso   1.000  H
  H27      1.0000 0.59310  0.61550  0.95290  Biso   1.000  H
  H28      1.0000 0.59310  0.88450  0.45290  Biso   1.000  H
  H29      1.0000 0.61400  0.37430  0.04600  Biso   1.000  H
  H30      1.0000 0.61400  0.12570  0.54600  Biso   1.000  H
  H31      1.0000 0.38600  0.62570  0.95400  Biso   1.000  H
  H32      1.0000 0.38600  0.87430  0.45400  Biso   1.000  H
  H33      1.0000 0.68460  0.34670  0.17240  Biso   1.000  H
  H34      1.0000 0.68460  0.15330  0.67240  Biso   1.000  H
  H35      1.0000 0.31540  0.65330  0.82760  Biso   1.000  H
  H36      1.0000 0.31540  0.84670  0.32760  Biso   1.000  H
  H37      1.0000 0.67990  0.35830  0.27620  Biso   1.000  H
  H38      1.0000 0.67990  0.14170  0.77620  Biso   1.000  H
  H39      1.0000 0.32010  0.64170  0.72380  Biso   1.000  H
  H40      1.0000 0.32010  0.85830  0.22380  Biso   1.000  H
  H41      1.0000 0.94750  0.15200  0.28830  Biso   1.000  H
  H42      1.0000 0.94750  0.34800  0.78830  Biso   1.000  H
  H43      1.0000 0.05250  0.84800  0.71170  Biso   1.000  H
  H44      1.0000 0.05250  0.65200  0.21170  Biso   1.000  H
  H45      1.0000 0.94630  0.14710  0.18430  Biso   1.000  H
  H46      1.0000 0.94630  0.35290  0.68430  Biso   1.000  H
  H47      1.0000 0.05370  0.85290  0.81570  Biso   1.000  H
  H48      1.0000 0.05370  0.64710  0.31570  Biso   1.000  H
  H49      1.0000 0.87650  0.12670  0.48090  Biso   1.000  H
  H50      1.0000 0.87650  0.37330  0.98090  Biso   1.000  H
  H51      1.0000 0.12350  0.87330  0.51910  Biso   1.000  H
  H52      1.0000 0.12350  0.62670  0.01910  Biso   1.000  H
  H53      1.0000 0.87770  0.11830  0.37690  Biso   1.000  H
  H54      1.0000 0.87770  0.38170  0.87690  Biso   1.000  H
  H55      1.0000 0.12230  0.88170  0.62310  Biso   1.000  H
  H56      1.0000 0.12230  0.61830  0.12310  Biso   1.000  H
  H57      1.0000 0.73650  0.40060  0.36940  Biso   1.000  H
  H58      1.0000 0.73650  0.09940  0.86940  Biso   1.000  H
  H59      1.0000 0.26350  0.59940  0.63060  Biso   1.000  H
  H60      1.0000 0.26350  0.90060  0.13060  Biso   1.000  H
  H61      1.0000 0.73140  0.39880  0.47300  Biso   1.000  H
  H62      1.0000 0.73140  0.10120  0.97300  Biso   1.000  H
  H63      1.0000 0.26860  0.60120  0.52700  Biso   1.000  H
  H64      1.0000 0.26860  0.89880  0.02700  Biso   1.000  H
  H65      1.0000 0.85020  0.88630  0.18080  Biso   1.000  H
  H66      1.0000 0.85020  0.61370  0.68080  Biso   1.000  H
  H67      1.0000 0.14980  0.11370  0.81920  Biso   1.000  H
  H68      1.0000 0.14980  0.38630  0.31920  Biso   1.000  H
  H69      1.0000 0.84240  0.82660  0.12050  Biso   1.000  H
  H70      1.0000 0.84240  0.67340  0.62050  Biso   1.000  H
  H71      1.0000 0.15760  0.17340  0.87950  Biso   1.000  H
  H72      1.0000 0.15760  0.32660  0.37950  Biso   1.000  H
  H73      1.0000 0.96410  0.87150  0.14410  Biso   1.000  H
  H74      1.0000 0.96410  0.62850  0.64410  Biso   1.000  H
  H75      1.0000 0.03590  0.12850  0.85590  Biso   1.000  H
  H76      1.0000 0.03590  0.37150  0.35590  Biso   1.000  H
  H77      1.0000 0.23910  0.27160  0.74420  Biso   1.000  H
  H78      1.0000 0.23910  0.22840  0.24420  Biso   1.000  H
  H79      1.0000 0.76090  0.72840  0.25580  Biso   1.000  H
  H80      1.0000 0.76090  0.77160  0.75580  Biso   1.000  H
  H81      1.0000 0.35020  0.33660  0.73010  Biso   1.000  H
  H82      1.0000 0.35020  0.16340  0.23010  Biso   1.000  H
  H83      1.0000 0.64980  0.66340  0.26990  Biso   1.000  H
  H84      1.0000 0.64980  0.83660  0.76990  Biso   1.000  H
  H85      1.0000 0.27890  0.35960  0.78690  Biso   1.000  H
  H86      1.0000 0.27890  0.14040  0.28690  Biso   1.000  H
  H87      1.0000 0.72110  0.64040  0.21310  Biso   1.000  H
  H88      1.0000 0.72110  0.85960  0.71310  Biso   1.000  H
  H89      1.0000 0.43480  0.72320  0.11320  Biso   1.000  H
  H90      1.0000 0.43480  0.77680  0.61320  Biso   1.000  H
  H91      1.0000 0.56520  0.27680  0.88680  Biso   1.000  H
  H92      1.0000 0.56520  0.22320  0.38680  Biso   1.000  H
  H93      1.0000 0.53980  0.74520  0.15950  Biso   1.000  H
  H94      1.0000 0.53980  0.75480  0.65950  Biso   1.000  H
  H95      1.0000 0.46020  0.25480  0.84050  Biso   1.000  H
  H96      1.0000 0.46020  0.24520  0.34050  Biso   1.000  H
  H97      1.0000 0.56070  0.67760  0.10370  Biso   1.000  H
  H98      1.0000 0.56070  0.82240  0.60370  Biso   1.000  H
  H99      1.0000 0.43930  0.32240  0.89630  Biso   1.000  H
  H100     1.0000 0.43930  0.17760  0.39630  Biso   1.000  H
