data_image0
_cell_length_a       22.184
_cell_length_b       15.313
_cell_length_c       11.1085
_cell_angle_alpha    90
_cell_angle_beta     93.704
_cell_angle_gamma    90

_symmetry_space_group_name_H-M    "P 1"
_symmetry_int_tables_number       1

loop_
  _symmetry_equiv_pos_as_xyz
  'x, y, z'

loop_
  _atom_site_label
  _atom_site_occupancy
  _atom_site_fract_x
  _atom_site_fract_y
  _atom_site_fract_z
  _atom_site_thermal_displace_type
  _atom_site_B_iso_or_equiv
  _atom_site_type_symbol
  Cu1      1.0000 0.50000  0.22225  0.00000  Biso   1.000  Cu
  Cu2      1.0000 0.50000  0.77775  0.00000  Biso   1.000  Cu
  Cu3      1.0000 0.00000  0.72225  0.00000  Biso   1.000  Cu
  Cu4      1.0000 0.00000  0.27775  0.00000  Biso   1.000  Cu
  P1       1.0000 0.50000  0.50000  0.00000  Biso   1.000  P
  P2       1.0000 0.00000  0.00000  0.00000  Biso   1.000  P
  P3       1.0000 0.63160  0.00000  0.66000  Biso   1.000  P
  P4       1.0000 0.13160  0.50000  0.66000  Biso   1.000  P
  P5       1.0000 0.36840  0.00000  0.34000  Biso   1.000  P
  P6       1.0000 0.86840  0.50000  0.34000  Biso   1.000  P
  F1       1.0000 0.50000  0.39730  0.00000  Biso   1.000  F
  F2       1.0000 0.50000  0.60270  0.00000  Biso   1.000  F
  F3       1.0000 0.00000  0.89730  0.00000  Biso   1.000  F
  F4       1.0000 0.00000  0.10270  0.00000  Biso   1.000  F
  F5       1.0000 0.47290  0.50000  0.11750  Biso   1.000  F
  F6       1.0000 0.97290  0.00000  0.11750  Biso   1.000  F
  F7       1.0000 0.52710  0.50000  0.88250  Biso   1.000  F
  F8       1.0000 0.02710  0.00000  0.88250  Biso   1.000  F
  F9       1.0000 0.56310  0.50000  0.05700  Biso   1.000  F
  F10      1.0000 0.06310  0.00000  0.05700  Biso   1.000  F
  F11      1.0000 0.43690  0.50000  0.94300  Biso   1.000  F
  F12      1.0000 0.93690  0.00000  0.94300  Biso   1.000  F
  F13      1.0000 0.62770  0.89670  0.66290  Biso   1.000  F
  F14      1.0000 0.62770  0.10330  0.66290  Biso   1.000  F
  F15      1.0000 0.12770  0.39670  0.66290  Biso   1.000  F
  F16      1.0000 0.12770  0.60330  0.66290  Biso   1.000  F
  F17      1.0000 0.37230  0.10330  0.33710  Biso   1.000  F
  F18      1.0000 0.37230  0.89670  0.33710  Biso   1.000  F
  F19      1.0000 0.87230  0.60330  0.33710  Biso   1.000  F
  F20      1.0000 0.87230  0.39670  0.33710  Biso   1.000  F
  F21      1.0000 0.58210  0.00000  0.75750  Biso   1.000  F
  F22      1.0000 0.08210  0.50000  0.75750  Biso   1.000  F
  F23      1.0000 0.41790  0.00000  0.24250  Biso   1.000  F
  F24      1.0000 0.91790  0.50000  0.24250  Biso   1.000  F
  F25      1.0000 0.58390  0.00000  0.55610  Biso   1.000  F
  F26      1.0000 0.08390  0.50000  0.55610  Biso   1.000  F
  F27      1.0000 0.41610  0.00000  0.44390  Biso   1.000  F
  F28      1.0000 0.91610  0.50000  0.44390  Biso   1.000  F
  F29      1.0000 0.68200  0.00000  0.57090  Biso   1.000  F
  F30      1.0000 0.18200  0.50000  0.57090  Biso   1.000  F
  F31      1.0000 0.31800  0.00000  0.42910  Biso   1.000  F
  F32      1.0000 0.81800  0.50000  0.42910  Biso   1.000  F
  F33      1.0000 0.67590  0.00000  0.77290  Biso   1.000  F
  F34      1.0000 0.17590  0.50000  0.77290  Biso   1.000  F
  F35      1.0000 0.32410  0.00000  0.22710  Biso   1.000  F
  F36      1.0000 0.82410  0.50000  0.22710  Biso   1.000  F
  O1       1.0000 0.50000  0.07160  0.00000  Biso   1.000  O
  O2       1.0000 0.50000  0.92840  0.00000  Biso   1.000  O
  O3       1.0000 0.00000  0.57160  0.00000  Biso   1.000  O
  O4       1.0000 0.00000  0.42840  0.00000  Biso   1.000  O
  O5       1.0000 0.56590  0.00000  0.07250  Biso   1.000  O
  O6       1.0000 0.06590  0.50000  0.07250  Biso   1.000  O
  O7       1.0000 0.43410  0.00000  0.92750  Biso   1.000  O
  O8       1.0000 0.93410  0.50000  0.92750  Biso   1.000  O
  O9       1.0000 0.09900  0.00000  0.41000  Biso   1.000  O
  O10      1.0000 0.59900  0.50000  0.41000  Biso   1.000  O
  O11      1.0000 0.90100  0.00000  0.59000  Biso   1.000  O
  O12      1.0000 0.40100  0.50000  0.59000  Biso   1.000  O
  N1       1.0000 0.49810  0.22730  0.81740  Biso   1.000  N
  N2       1.0000 0.49810  0.77270  0.81740  Biso   1.000  N
  N3       1.0000 0.99810  0.72730  0.81740  Biso   1.000  N
  N4       1.0000 0.99810  0.27270  0.81740  Biso   1.000  N
  N5       1.0000 0.50190  0.77270  0.18260  Biso   1.000  N
  N6       1.0000 0.50190  0.22730  0.18260  Biso   1.000  N
  N7       1.0000 0.00190  0.27270  0.18260  Biso   1.000  N
  N8       1.0000 0.00190  0.72730  0.18260  Biso   1.000  N
  N9       1.0000 0.59110  0.23020  0.00670  Biso   1.000  N
  N10      1.0000 0.59110  0.76980  0.00670  Biso   1.000  N
  N11      1.0000 0.09110  0.73020  0.00670  Biso   1.000  N
  N12      1.0000 0.09110  0.26980  0.00670  Biso   1.000  N
  N13      1.0000 0.40890  0.76980  0.99330  Biso   1.000  N
  N14      1.0000 0.40890  0.23020  0.99330  Biso   1.000  N
  N15      1.0000 0.90890  0.26980  0.99330  Biso   1.000  N
  N16      1.0000 0.90890  0.73020  0.99330  Biso   1.000  N
  N17      1.0000 0.51380  0.00000  0.01900  Biso   1.000  N
  N18      1.0000 0.01380  0.50000  0.01900  Biso   1.000  N
  N19      1.0000 0.48620  0.00000  0.98100  Biso   1.000  N
  N20      1.0000 0.98620  0.50000  0.98100  Biso   1.000  N
  C1       1.0000 0.47420  0.16270  0.75140  Biso   1.000  C
  C2       1.0000 0.47420  0.83730  0.75140  Biso   1.000  C
  C3       1.0000 0.97420  0.66270  0.75140  Biso   1.000  C
  C4       1.0000 0.97420  0.33730  0.75140  Biso   1.000  C
  C5       1.0000 0.52580  0.83730  0.24860  Biso   1.000  C
  C6       1.0000 0.52580  0.16270  0.24860  Biso   1.000  C
  C7       1.0000 0.02580  0.33730  0.24860  Biso   1.000  C
  C8       1.0000 0.02580  0.66270  0.24860  Biso   1.000  C
  C9       1.0000 0.47480  0.16110  0.62530  Biso   1.000  C
  C10      1.0000 0.47480  0.83890  0.62530  Biso   1.000  C
  C11      1.0000 0.97480  0.66110  0.62530  Biso   1.000  C
  C12      1.0000 0.97480  0.33890  0.62530  Biso   1.000  C
  C13      1.0000 0.52520  0.83890  0.37470  Biso   1.000  C
  C14      1.0000 0.52520  0.16110  0.37470  Biso   1.000  C
  C15      1.0000 0.02520  0.33890  0.37470  Biso   1.000  C
  C16      1.0000 0.02520  0.66110  0.37470  Biso   1.000  C
  C17      1.0000 0.49890  0.23100  0.56690  Biso   1.000  C
  C18      1.0000 0.49890  0.76900  0.56690  Biso   1.000  C
  C19      1.0000 0.99890  0.73100  0.56690  Biso   1.000  C
  C20      1.0000 0.99890  0.26900  0.56690  Biso   1.000  C
  C21      1.0000 0.50110  0.76900  0.43310  Biso   1.000  C
  C22      1.0000 0.50110  0.23100  0.43310  Biso   1.000  C
  C23      1.0000 0.00110  0.26900  0.43310  Biso   1.000  C
  C24      1.0000 0.00110  0.73100  0.43310  Biso   1.000  C
  C25      1.0000 0.52230  0.29730  0.63680  Biso   1.000  C
  C26      1.0000 0.52230  0.70270  0.63680  Biso   1.000  C
  C27      1.0000 0.02230  0.79730  0.63680  Biso   1.000  C
  C28      1.0000 0.02230  0.20270  0.63680  Biso   1.000  C
  C29      1.0000 0.47770  0.70270  0.36320  Biso   1.000  C
  C30      1.0000 0.47770  0.29730  0.36320  Biso   1.000  C
  C31      1.0000 0.97770  0.20270  0.36320  Biso   1.000  C
  C32      1.0000 0.97770  0.79730  0.36320  Biso   1.000  C
  C33      1.0000 0.52180  0.29470  0.75980  Biso   1.000  C
  C34      1.0000 0.52180  0.70530  0.75980  Biso   1.000  C
  C35      1.0000 0.02180  0.79470  0.75980  Biso   1.000  C
  C36      1.0000 0.02180  0.20530  0.75980  Biso   1.000  C
  C37      1.0000 0.47820  0.70530  0.24020  Biso   1.000  C
  C38      1.0000 0.47820  0.29470  0.24020  Biso   1.000  C
  C39      1.0000 0.97820  0.20530  0.24020  Biso   1.000  C
  C40      1.0000 0.97820  0.79470  0.24020  Biso   1.000  C
  C41      1.0000 0.62280  0.17500  0.94410  Biso   1.000  C
  C42      1.0000 0.62280  0.82500  0.94410  Biso   1.000  C
  C43      1.0000 0.12280  0.67500  0.94410  Biso   1.000  C
  C44      1.0000 0.12280  0.32500  0.94410  Biso   1.000  C
  C45      1.0000 0.37720  0.82500  0.05590  Biso   1.000  C
  C46      1.0000 0.37720  0.17500  0.05590  Biso   1.000  C
  C47      1.0000 0.87720  0.32500  0.05590  Biso   1.000  C
  C48      1.0000 0.87720  0.67500  0.05590  Biso   1.000  C
  C49      1.0000 0.68520  0.18220  0.93900  Biso   1.000  C
  C50      1.0000 0.68520  0.81780  0.93900  Biso   1.000  C
  C51      1.0000 0.18520  0.68220  0.93900  Biso   1.000  C
  C52      1.0000 0.18520  0.31780  0.93900  Biso   1.000  C
  C53      1.0000 0.31480  0.81780  0.06100  Biso   1.000  C
  C54      1.0000 0.31480  0.18220  0.06100  Biso   1.000  C
  C55      1.0000 0.81480  0.31780  0.06100  Biso   1.000  C
  C56      1.0000 0.81480  0.68220  0.06100  Biso   1.000  C
  C57      1.0000 0.71610  0.24570  0.00100  Biso   1.000  C
  C58      1.0000 0.71610  0.75430  0.00100  Biso   1.000  C
  C59      1.0000 0.21610  0.74570  0.00100  Biso   1.000  C
  C60      1.0000 0.21610  0.25430  0.00100  Biso   1.000  C
  C61      1.0000 0.28390  0.75430  0.99900  Biso   1.000  C
  C62      1.0000 0.28390  0.24570  0.99900  Biso   1.000  C
  C63      1.0000 0.78390  0.25430  0.99900  Biso   1.000  C
  C64      1.0000 0.78390  0.74570  0.99900  Biso   1.000  C
  C65      1.0000 0.68320  0.30110  0.06890  Biso   1.000  C
  C66      1.0000 0.68320  0.69890  0.06890  Biso   1.000  C
  C67      1.0000 0.18320  0.80110  0.06890  Biso   1.000  C
  C68      1.0000 0.18320  0.19890  0.06890  Biso   1.000  C
  C69      1.0000 0.31680  0.69890  0.93110  Biso   1.000  C
  C70      1.0000 0.31680  0.30110  0.93110  Biso   1.000  C
  C71      1.0000 0.81680  0.19890  0.93110  Biso   1.000  C
  C72      1.0000 0.81680  0.80110  0.93110  Biso   1.000  C
  C73      1.0000 0.62160  0.29240  0.06890  Biso   1.000  C
  C74      1.0000 0.62160  0.70760  0.06890  Biso   1.000  C
  C75      1.0000 0.12160  0.79240  0.06890  Biso   1.000  C
  C76      1.0000 0.12160  0.20760  0.06890  Biso   1.000  C
  C77      1.0000 0.37840  0.70760  0.93110  Biso   1.000  C
  C78      1.0000 0.37840  0.29240  0.93110  Biso   1.000  C
  C79      1.0000 0.87840  0.20760  0.93110  Biso   1.000  C
  C80      1.0000 0.87840  0.79240  0.93110  Biso   1.000  C
  H1       1.0000 0.45570  0.11490  0.79230  Biso   1.000  H
  H2       1.0000 0.45570  0.88510  0.79230  Biso   1.000  H
  H3       1.0000 0.95570  0.61490  0.79230  Biso   1.000  H
  H4       1.0000 0.95570  0.38510  0.79230  Biso   1.000  H
  H5       1.0000 0.54430  0.88510  0.20770  Biso   1.000  H
  H6       1.0000 0.54430  0.11490  0.20770  Biso   1.000  H
  H7       1.0000 0.04430  0.38510  0.20770  Biso   1.000  H
  H8       1.0000 0.04430  0.61490  0.20770  Biso   1.000  H
  H9       1.0000 0.45860  0.11100  0.57900  Biso   1.000  H
  H10      1.0000 0.45860  0.88900  0.57900  Biso   1.000  H
  H11      1.0000 0.95860  0.61100  0.57900  Biso   1.000  H
  H12      1.0000 0.95860  0.38900  0.57900  Biso   1.000  H
  H13      1.0000 0.54140  0.88900  0.42100  Biso   1.000  H
  H14      1.0000 0.54140  0.11100  0.42100  Biso   1.000  H
  H15      1.0000 0.04140  0.38900  0.42100  Biso   1.000  H
  H16      1.0000 0.04140  0.61100  0.42100  Biso   1.000  H
  H17      1.0000 0.53850  0.34850  0.59750  Biso   1.000  H
  H18      1.0000 0.53850  0.65150  0.59750  Biso   1.000  H
  H19      1.0000 0.03850  0.84850  0.59750  Biso   1.000  H
  H20      1.0000 0.03850  0.15150  0.59750  Biso   1.000  H
  H21      1.0000 0.46150  0.65150  0.40250  Biso   1.000  H
  H22      1.0000 0.46150  0.34850  0.40250  Biso   1.000  H
  H23      1.0000 0.96150  0.15150  0.40250  Biso   1.000  H
  H24      1.0000 0.96150  0.84850  0.40250  Biso   1.000  H
  H25      1.0000 0.53860  0.34330  0.80760  Biso   1.000  H
  H26      1.0000 0.53860  0.65670  0.80760  Biso   1.000  H
  H27      1.0000 0.03860  0.84330  0.80760  Biso   1.000  H
  H28      1.0000 0.03860  0.15670  0.80760  Biso   1.000  H
  H29      1.0000 0.46140  0.65670  0.19240  Biso   1.000  H
  H30      1.0000 0.46140  0.34330  0.19240  Biso   1.000  H
  H31      1.0000 0.96140  0.15670  0.19240  Biso   1.000  H
  H32      1.0000 0.96140  0.84330  0.19240  Biso   1.000  H
  H33      1.0000 0.60140  0.12940  0.89890  Biso   1.000  H
  H34      1.0000 0.60140  0.87060  0.89890  Biso   1.000  H
  H35      1.0000 0.10140  0.62940  0.89890  Biso   1.000  H
  H36      1.0000 0.10140  0.37060  0.89890  Biso   1.000  H
  H37      1.0000 0.39860  0.87060  0.10110  Biso   1.000  H
  H38      1.0000 0.39860  0.12940  0.10110  Biso   1.000  H
  H39      1.0000 0.89860  0.37060  0.10110  Biso   1.000  H
  H40      1.0000 0.89860  0.62940  0.10110  Biso   1.000  H
  H41      1.0000 0.70660  0.14070  0.89110  Biso   1.000  H
  H42      1.0000 0.70660  0.85930  0.89110  Biso   1.000  H
  H43      1.0000 0.20660  0.64070  0.89110  Biso   1.000  H
  H44      1.0000 0.20660  0.35930  0.89110  Biso   1.000  H
  H45      1.0000 0.29340  0.85930  0.10890  Biso   1.000  H
  H46      1.0000 0.29340  0.14070  0.10890  Biso   1.000  H
  H47      1.0000 0.79340  0.35930  0.10890  Biso   1.000  H
  H48      1.0000 0.79340  0.64070  0.10890  Biso   1.000  H
  H49      1.0000 0.70330  0.34840  0.11460  Biso   1.000  H
  H50      1.0000 0.70330  0.65160  0.11460  Biso   1.000  H
  H51      1.0000 0.20330  0.84840  0.11460  Biso   1.000  H
  H52      1.0000 0.20330  0.15160  0.11460  Biso   1.000  H
  H53      1.0000 0.29670  0.65160  0.88540  Biso   1.000  H
  H54      1.0000 0.29670  0.34840  0.88540  Biso   1.000  H
  H55      1.0000 0.79670  0.15160  0.88540  Biso   1.000  H
  H56      1.0000 0.79670  0.84840  0.88540  Biso   1.000  H
  H57      1.0000 0.59880  0.33210  0.11530  Biso   1.000  H
  H58      1.0000 0.59880  0.66790  0.11530  Biso   1.000  H
  H59      1.0000 0.09880  0.83210  0.11530  Biso   1.000  H
  H60      1.0000 0.09880  0.16790  0.11530  Biso   1.000  H
  H61      1.0000 0.40120  0.66790  0.88470  Biso   1.000  H
  H62      1.0000 0.40120  0.33210  0.88470  Biso   1.000  H
  H63      1.0000 0.90120  0.16790  0.88470  Biso   1.000  H
  H64      1.0000 0.90120  0.83210  0.88470  Biso   1.000  H
