data_image0
_cell_length_a       11.146
_cell_length_b       11.146
_cell_length_c       15.941
_cell_angle_alpha    90
_cell_angle_beta     90
_cell_angle_gamma    90

_symmetry_space_group_name_H-M    "P 1"
_symmetry_int_tables_number       1

loop_
  _symmetry_equiv_pos_as_xyz
  'x, y, z'

loop_
  _atom_site_label
  _atom_site_occupancy
  _atom_site_fract_x
  _atom_site_fract_y
  _atom_site_fract_z
  _atom_site_thermal_displace_type
  _atom_site_B_iso_or_equiv
  _atom_site_type_symbol
  Ge1      1.0000 0.25000  0.25000  0.30590  Biso   1.000  Ge
  Ge2      1.0000 0.25000  0.25000  0.80590  Biso   1.000  Ge
  Ge3      1.0000 0.75000  0.75000  0.69410  Biso   1.000  Ge
  Ge4      1.0000 0.75000  0.75000  0.19410  Biso   1.000  Ge
  Cu1      1.0000 0.25000  0.75000  0.75000  Biso   1.000  Cu
  Cu2      1.0000 0.25000  0.75000  0.25000  Biso   1.000  Cu
  Cu3      1.0000 0.75000  0.25000  0.25000  Biso   1.000  Cu
  Cu4      1.0000 0.75000  0.25000  0.75000  Biso   1.000  Cu
  F1       1.0000 0.25000  0.25000  0.41120  Biso   1.000  F
  F2       1.0000 0.25000  0.25000  0.91120  Biso   1.000  F
  F3       1.0000 0.75000  0.75000  0.58880  Biso   1.000  F
  F4       1.0000 0.75000  0.75000  0.08880  Biso   1.000  F
  F5       1.0000 0.34030  0.37860  0.30200  Biso   1.000  F
  F6       1.0000 0.15970  0.37860  0.80200  Biso   1.000  F
  F7       1.0000 0.34030  0.12140  0.80200  Biso   1.000  F
  F8       1.0000 0.37860  0.34030  0.80200  Biso   1.000  F
  F9       1.0000 0.12140  0.34030  0.30200  Biso   1.000  F
  F10      1.0000 0.37860  0.15970  0.30200  Biso   1.000  F
  F11      1.0000 0.84030  0.87860  0.69800  Biso   1.000  F
  F12      1.0000 0.87860  0.84030  0.19800  Biso   1.000  F
  F13      1.0000 0.65970  0.62140  0.69800  Biso   1.000  F
  F14      1.0000 0.84030  0.62140  0.19800  Biso   1.000  F
  F15      1.0000 0.65970  0.87860  0.19800  Biso   1.000  F
  F16      1.0000 0.62140  0.65970  0.19800  Biso   1.000  F
  F17      1.0000 0.87860  0.65970  0.69800  Biso   1.000  F
  F18      1.0000 0.62140  0.84030  0.69800  Biso   1.000  F
  F19      1.0000 0.15970  0.12140  0.30200  Biso   1.000  F
  F20      1.0000 0.12140  0.15970  0.80200  Biso   1.000  F
  F21      1.0000 0.25000  0.25000  0.19660  Biso   1.000  F
  F22      1.0000 0.25000  0.25000  0.69660  Biso   1.000  F
  F23      1.0000 0.75000  0.75000  0.80340  Biso   1.000  F
  F24      1.0000 0.75000  0.75000  0.30340  Biso   1.000  F
  O1       1.0000 0.09880  0.59880  0.75000  Biso   1.000  O
  O2       1.0000 0.40120  0.59880  0.25000  Biso   1.000  O
  O3       1.0000 0.09880  0.90120  0.25000  Biso   1.000  O
  O4       1.0000 0.59880  0.09880  0.25000  Biso   1.000  O
  O5       1.0000 0.90120  0.09880  0.75000  Biso   1.000  O
  O6       1.0000 0.59880  0.40120  0.75000  Biso   1.000  O
  O7       1.0000 0.90120  0.40120  0.25000  Biso   1.000  O
  O8       1.0000 0.40120  0.90120  0.75000  Biso   1.000  O
  N1       1.0000 0.65600  0.34000  0.33950  Biso   1.000  N
  N2       1.0000 0.84400  0.34000  0.83950  Biso   1.000  N
  N3       1.0000 0.65600  0.16000  0.83950  Biso   1.000  N
  N4       1.0000 0.34000  0.65600  0.83950  Biso   1.000  N
  N5       1.0000 0.16000  0.65600  0.33950  Biso   1.000  N
  N6       1.0000 0.34000  0.84400  0.33950  Biso   1.000  N
  N7       1.0000 0.15600  0.84000  0.66050  Biso   1.000  N
  N8       1.0000 0.84000  0.15600  0.16050  Biso   1.000  N
  N9       1.0000 0.34400  0.66000  0.66050  Biso   1.000  N
  N10      1.0000 0.15600  0.66000  0.16050  Biso   1.000  N
  N11      1.0000 0.34400  0.84000  0.16050  Biso   1.000  N
  N12      1.0000 0.66000  0.34400  0.16050  Biso   1.000  N
  N13      1.0000 0.84000  0.34400  0.66050  Biso   1.000  N
  N14      1.0000 0.66000  0.15600  0.66050  Biso   1.000  N
  N15      1.0000 0.84400  0.16000  0.33950  Biso   1.000  N
  N16      1.0000 0.16000  0.84400  0.83950  Biso   1.000  N
  C1       1.0000 0.65500  0.46400  0.34450  Biso   1.000  C
  C2       1.0000 0.84500  0.46400  0.84450  Biso   1.000  C
  C3       1.0000 0.65500  0.03600  0.84450  Biso   1.000  C
  C4       1.0000 0.46400  0.65500  0.84450  Biso   1.000  C
  C5       1.0000 0.03600  0.65500  0.34450  Biso   1.000  C
  C6       1.0000 0.46400  0.84500  0.34450  Biso   1.000  C
  C7       1.0000 0.15500  0.96400  0.65550  Biso   1.000  C
  C8       1.0000 0.96400  0.15500  0.15550  Biso   1.000  C
  C9       1.0000 0.34500  0.53600  0.65550  Biso   1.000  C
  C10      1.0000 0.15500  0.53600  0.15550  Biso   1.000  C
  C11      1.0000 0.34500  0.96400  0.15550  Biso   1.000  C
  C12      1.0000 0.53600  0.34500  0.15550  Biso   1.000  C
  C13      1.0000 0.96400  0.34500  0.65550  Biso   1.000  C
  C14      1.0000 0.53600  0.15500  0.65550  Biso   1.000  C
  C15      1.0000 0.84500  0.03600  0.34450  Biso   1.000  C
  C16      1.0000 0.03600  0.84500  0.84450  Biso   1.000  C
  C17      1.0000 0.59900  0.52900  0.40300  Biso   1.000  C
  C18      1.0000 0.90100  0.52900  0.90300  Biso   1.000  C
  C19      1.0000 0.59900  0.97100  0.90300  Biso   1.000  C
  C20      1.0000 0.52900  0.59900  0.90300  Biso   1.000  C
  C21      1.0000 0.97100  0.59900  0.40300  Biso   1.000  C
  C22      1.0000 0.52900  0.90100  0.40300  Biso   1.000  C
  C23      1.0000 0.09900  0.02900  0.59700  Biso   1.000  C
  C24      1.0000 0.02900  0.09900  0.09700  Biso   1.000  C
  C25      1.0000 0.40100  0.47100  0.59700  Biso   1.000  C
  C26      1.0000 0.09900  0.47100  0.09700  Biso   1.000  C
  C27      1.0000 0.40100  0.02900  0.09700  Biso   1.000  C
  C28      1.0000 0.47100  0.40100  0.09700  Biso   1.000  C
  C29      1.0000 0.02900  0.40100  0.59700  Biso   1.000  C
  C30      1.0000 0.47100  0.09900  0.59700  Biso   1.000  C
  C31      1.0000 0.90100  0.97100  0.40300  Biso   1.000  C
  C32      1.0000 0.97100  0.90100  0.90300  Biso   1.000  C
  C33      1.0000 0.53200  0.46600  0.46600  Biso   1.000  C
  C34      1.0000 0.96800  0.46600  0.96600  Biso   1.000  C
  C35      1.0000 0.53200  0.03400  0.96600  Biso   1.000  C
  C36      1.0000 0.46600  0.53200  0.96600  Biso   1.000  C
  C37      1.0000 0.03400  0.53200  0.46600  Biso   1.000  C
  C38      1.0000 0.46600  0.96800  0.46600  Biso   1.000  C
  C39      1.0000 0.03200  0.96600  0.53400  Biso   1.000  C
  C40      1.0000 0.96600  0.03200  0.03400  Biso   1.000  C
  C41      1.0000 0.46800  0.53400  0.53400  Biso   1.000  C
  C42      1.0000 0.03200  0.53400  0.03400  Biso   1.000  C
  C43      1.0000 0.46800  0.96600  0.03400  Biso   1.000  C
  C44      1.0000 0.53400  0.46800  0.03400  Biso   1.000  C
  C45      1.0000 0.96600  0.46800  0.53400  Biso   1.000  C
  C46      1.0000 0.53400  0.03200  0.53400  Biso   1.000  C
  C47      1.0000 0.96800  0.03400  0.46600  Biso   1.000  C
  C48      1.0000 0.03400  0.96800  0.96600  Biso   1.000  C
  C49      1.0000 0.52900  0.34500  0.46150  Biso   1.000  C
  C50      1.0000 0.97100  0.34500  0.96150  Biso   1.000  C
  C51      1.0000 0.52900  0.15500  0.96150  Biso   1.000  C
  C52      1.0000 0.34500  0.52900  0.96150  Biso   1.000  C
  C53      1.0000 0.15500  0.52900  0.46150  Biso   1.000  C
  C54      1.0000 0.34500  0.97100  0.46150  Biso   1.000  C
  C55      1.0000 0.02900  0.84500  0.53850  Biso   1.000  C
  C56      1.0000 0.84500  0.02900  0.03850  Biso   1.000  C
  C57      1.0000 0.47100  0.65500  0.53850  Biso   1.000  C
  C58      1.0000 0.02900  0.65500  0.03850  Biso   1.000  C
  C59      1.0000 0.47100  0.84500  0.03850  Biso   1.000  C
  C60      1.0000 0.65500  0.47100  0.03850  Biso   1.000  C
  C61      1.0000 0.84500  0.47100  0.53850  Biso   1.000  C
  C62      1.0000 0.65500  0.02900  0.53850  Biso   1.000  C
  C63      1.0000 0.97100  0.15500  0.46150  Biso   1.000  C
  C64      1.0000 0.15500  0.97100  0.96150  Biso   1.000  C
  C65      1.0000 0.59500  0.28600  0.39760  Biso   1.000  C
  C66      1.0000 0.90500  0.28600  0.89760  Biso   1.000  C
  C67      1.0000 0.59500  0.21400  0.89760  Biso   1.000  C
  C68      1.0000 0.28600  0.59500  0.89760  Biso   1.000  C
  C69      1.0000 0.21400  0.59500  0.39760  Biso   1.000  C
  C70      1.0000 0.28600  0.90500  0.39760  Biso   1.000  C
  C71      1.0000 0.09500  0.78600  0.60240  Biso   1.000  C
  C72      1.0000 0.78600  0.09500  0.10240  Biso   1.000  C
  C73      1.0000 0.40500  0.71400  0.60240  Biso   1.000  C
  C74      1.0000 0.09500  0.71400  0.10240  Biso   1.000  C
  C75      1.0000 0.40500  0.78600  0.10240  Biso   1.000  C
  C76      1.0000 0.71400  0.40500  0.10240  Biso   1.000  C
  C77      1.0000 0.78600  0.40500  0.60240  Biso   1.000  C
  C78      1.0000 0.71400  0.09500  0.60240  Biso   1.000  C
  C79      1.0000 0.90500  0.21400  0.39760  Biso   1.000  C
  C80      1.0000 0.21400  0.90500  0.89760  Biso   1.000  C
  H1       1.0000 0.69740  0.50730  0.30240  Biso   1.000  H
  H2       1.0000 0.80260  0.50730  0.80240  Biso   1.000  H
  H3       1.0000 0.69740  0.99270  0.80240  Biso   1.000  H
  H4       1.0000 0.50730  0.69740  0.80240  Biso   1.000  H
  H5       1.0000 0.99270  0.69740  0.30240  Biso   1.000  H
  H6       1.0000 0.50730  0.80260  0.30240  Biso   1.000  H
  H7       1.0000 0.19740  0.00730  0.69760  Biso   1.000  H
  H8       1.0000 0.00730  0.19740  0.19760  Biso   1.000  H
  H9       1.0000 0.30260  0.49270  0.69760  Biso   1.000  H
  H10      1.0000 0.19740  0.49270  0.19760  Biso   1.000  H
  H11      1.0000 0.30260  0.00730  0.19760  Biso   1.000  H
  H12      1.0000 0.49270  0.30260  0.19760  Biso   1.000  H
  H13      1.0000 0.00730  0.30260  0.69760  Biso   1.000  H
  H14      1.0000 0.49270  0.19740  0.69760  Biso   1.000  H
  H15      1.0000 0.80260  0.99270  0.30240  Biso   1.000  H
  H16      1.0000 0.99270  0.80260  0.80240  Biso   1.000  H
  H17      1.0000 0.60420  0.61410  0.40320  Biso   1.000  H
  H18      1.0000 0.89580  0.61410  0.90320  Biso   1.000  H
  H19      1.0000 0.60420  0.88590  0.90320  Biso   1.000  H
  H20      1.0000 0.61410  0.60420  0.90320  Biso   1.000  H
  H21      1.0000 0.88590  0.60420  0.40320  Biso   1.000  H
  H22      1.0000 0.61410  0.89580  0.40320  Biso   1.000  H
  H23      1.0000 0.10420  0.11410  0.59680  Biso   1.000  H
  H24      1.0000 0.11410  0.10420  0.09680  Biso   1.000  H
  H25      1.0000 0.39580  0.38590  0.59680  Biso   1.000  H
  H26      1.0000 0.10420  0.38590  0.09680  Biso   1.000  H
  H27      1.0000 0.39580  0.11410  0.09680  Biso   1.000  H
  H28      1.0000 0.38590  0.39580  0.09680  Biso   1.000  H
  H29      1.0000 0.11410  0.39580  0.59680  Biso   1.000  H
  H30      1.0000 0.38590  0.10420  0.59680  Biso   1.000  H
  H31      1.0000 0.89580  0.88590  0.40320  Biso   1.000  H
  H32      1.0000 0.88590  0.89580  0.90320  Biso   1.000  H
  H33      1.0000 0.48390  0.29990  0.50080  Biso   1.000  H
  H34      1.0000 0.01610  0.29990  0.00080  Biso   1.000  H
  H35      1.0000 0.48390  0.20010  0.00080  Biso   1.000  H
  H36      1.0000 0.29990  0.48390  0.00080  Biso   1.000  H
  H37      1.0000 0.20010  0.48390  0.50080  Biso   1.000  H
  H38      1.0000 0.29990  0.01610  0.50080  Biso   1.000  H
  H39      1.0000 0.98390  0.79990  0.49920  Biso   1.000  H
  H40      1.0000 0.79990  0.98390  0.99920  Biso   1.000  H
  H41      1.0000 0.51610  0.70010  0.49920  Biso   1.000  H
  H42      1.0000 0.98390  0.70010  0.99920  Biso   1.000  H
  H43      1.0000 0.51610  0.79990  0.99920  Biso   1.000  H
  H44      1.0000 0.70010  0.51610  0.99920  Biso   1.000  H
  H45      1.0000 0.79990  0.51610  0.49920  Biso   1.000  H
  H46      1.0000 0.70010  0.98390  0.49920  Biso   1.000  H
  H47      1.0000 0.01610  0.20010  0.50080  Biso   1.000  H
  H48      1.0000 0.20010  0.01610  0.00080  Biso   1.000  H
  H49      1.0000 0.59480  0.20080  0.39740  Biso   1.000  H
  H50      1.0000 0.90520  0.20080  0.89740  Biso   1.000  H
  H51      1.0000 0.59480  0.29920  0.89740  Biso   1.000  H
  H52      1.0000 0.20080  0.59480  0.89740  Biso   1.000  H
  H53      1.0000 0.29920  0.59480  0.39740  Biso   1.000  H
  H54      1.0000 0.20080  0.90520  0.39740  Biso   1.000  H
  H55      1.0000 0.09480  0.70080  0.60260  Biso   1.000  H
  H56      1.0000 0.70080  0.09480  0.10260  Biso   1.000  H
  H57      1.0000 0.40520  0.79920  0.60260  Biso   1.000  H
  H58      1.0000 0.09480  0.79920  0.10260  Biso   1.000  H
  H59      1.0000 0.40520  0.70080  0.10260  Biso   1.000  H
  H60      1.0000 0.79920  0.40520  0.10260  Biso   1.000  H
  H61      1.0000 0.70080  0.40520  0.60260  Biso   1.000  H
  H62      1.0000 0.79920  0.09480  0.60260  Biso   1.000  H
  H63      1.0000 0.90520  0.29920  0.39740  Biso   1.000  H
  H64      1.0000 0.29920  0.90520  0.89740  Biso   1.000  H
