data_image0
_cell_length_a       9.894
_cell_length_b       21.385
_cell_length_c       9.291
_cell_angle_alpha    90
_cell_angle_beta     112.235
_cell_angle_gamma    90

_symmetry_space_group_name_H-M    "P 1"
_symmetry_int_tables_number       1

loop_
  _symmetry_equiv_pos_as_xyz
  'x, y, z'

loop_
  _atom_site_label
  _atom_site_occupancy
  _atom_site_fract_x
  _atom_site_fract_y
  _atom_site_fract_z
  _atom_site_thermal_displace_type
  _atom_site_B_iso_or_equiv
  _atom_site_type_symbol
  Cu1      1.0000 0.05125  0.10920  0.88312  Biso   1.000  Cu
  Cu2      1.0000 0.05125  0.39080  0.38312  Biso   1.000  Cu
  Cu3      1.0000 0.94875  0.89080  0.11688  Biso   1.000  Cu
  Cu4      1.0000 0.94875  0.60920  0.61688  Biso   1.000  Cu
  N1       1.0000 0.13014  0.02631  0.83533  Biso   1.000  N
  N2       1.0000 0.13014  0.47369  0.33533  Biso   1.000  N
  N3       1.0000 0.86986  0.97369  0.16467  Biso   1.000  N
  N4       1.0000 0.86986  0.52631  0.66467  Biso   1.000  N
  C1       1.0000 0.28100  0.02288  0.95200  Biso   1.000  C
  C2       1.0000 0.28100  0.47712  0.45200  Biso   1.000  C
  C3       1.0000 0.71900  0.97712  0.04800  Biso   1.000  C
  C4       1.0000 0.71900  0.52288  0.54800  Biso   1.000  C
  H1       1.0000 0.34310  0.05420  0.92780  Biso   1.000  H
  H2       1.0000 0.34310  0.44580  0.42780  Biso   1.000  H
  H3       1.0000 0.65690  0.94580  0.07220  Biso   1.000  H
  H4       1.0000 0.65690  0.55420  0.57220  Biso   1.000  H
  H5       1.0000 0.32230  0.98090  0.95010  Biso   1.000  H
  H6       1.0000 0.32230  0.51910  0.45010  Biso   1.000  H
  H7       1.0000 0.67770  0.01910  0.04990  Biso   1.000  H
  H8       1.0000 0.67770  0.48090  0.54990  Biso   1.000  H
  C5       1.0000 0.27830  0.03574  0.11180  Biso   1.000  C
  C6       1.0000 0.27830  0.46426  0.61180  Biso   1.000  C
  C7       1.0000 0.72170  0.96426  0.88820  Biso   1.000  C
  C8       1.0000 0.72170  0.53574  0.38820  Biso   1.000  C
  H9       1.0000 0.22200  0.00270  0.13890  Biso   1.000  H
  H10      1.0000 0.22200  0.49730  0.63890  Biso   1.000  H
  H11      1.0000 0.77800  0.99730  0.86110  Biso   1.000  H
  H12      1.0000 0.77800  0.50270  0.36110  Biso   1.000  H
  H13      1.0000 0.37910  0.03550  0.19090  Biso   1.000  H
  H14      1.0000 0.37910  0.46450  0.69090  Biso   1.000  H
  H15      1.0000 0.62090  0.96450  0.80910  Biso   1.000  H
  H16      1.0000 0.62090  0.53550  0.30910  Biso   1.000  H
  N5       1.0000 0.21036  0.09706  0.11084  Biso   1.000  N
  N6       1.0000 0.21036  0.40294  0.61084  Biso   1.000  N
  N7       1.0000 0.78964  0.90294  0.88916  Biso   1.000  N
  N8       1.0000 0.78964  0.59706  0.38916  Biso   1.000  N
  C9       1.0000 0.27280  0.13255  0.22680  Biso   1.000  C
  C10      1.0000 0.27280  0.36745  0.72680  Biso   1.000  C
  C11      1.0000 0.72720  0.86745  0.77320  Biso   1.000  C
  C12      1.0000 0.72720  0.63255  0.27320  Biso   1.000  C
  H17      1.0000 0.36100  0.11820  0.30490  Biso   1.000  H
  H18      1.0000 0.36100  0.38180  0.80490  Biso   1.000  H
  H19      1.0000 0.63900  0.88180  0.69510  Biso   1.000  H
  H20      1.0000 0.63900  0.61820  0.19510  Biso   1.000  H
  C13      1.0000 0.21770  0.19472  0.24880  Biso   1.000  C
  C14      1.0000 0.21770  0.30528  0.74880  Biso   1.000  C
  C15      1.0000 0.78230  0.80528  0.75120  Biso   1.000  C
  C16      1.0000 0.78230  0.69472  0.25120  Biso   1.000  C
  C17      1.0000 0.07530  0.21503  0.16820  Biso   1.000  C
  C18      1.0000 0.07530  0.28497  0.66820  Biso   1.000  C
  C19      1.0000 0.92470  0.78497  0.83180  Biso   1.000  C
  C20      1.0000 0.92470  0.71503  0.33180  Biso   1.000  C
  H21      1.0000 0.00840  0.18940  0.09000  Biso   1.000  H
  H22      1.0000 0.00840  0.31060  0.59000  Biso   1.000  H
  H23      1.0000 0.99160  0.81060  0.91000  Biso   1.000  H
  H24      1.0000 0.99160  0.68940  0.41000  Biso   1.000  H
  C21      1.0000 0.03160  0.27271  0.20250  Biso   1.000  C
  C22      1.0000 0.03160  0.22729  0.70250  Biso   1.000  C
  C23      1.0000 0.96840  0.72729  0.79750  Biso   1.000  C
  C24      1.0000 0.96840  0.77271  0.29750  Biso   1.000  C
  H25      1.0000 0.93390  0.28580  0.14660  Biso   1.000  H
  H26      1.0000 0.93390  0.21420  0.64660  Biso   1.000  H
  H27      1.0000 0.06610  0.71420  0.85340  Biso   1.000  H
  H28      1.0000 0.06610  0.78580  0.35340  Biso   1.000  H
  N9       1.0000 0.12192  0.31112  0.31220  Biso   1.000  N
  N10      1.0000 0.12192  0.18888  0.81220  Biso   1.000  N
  N11      1.0000 0.87808  0.68888  0.68780  Biso   1.000  N
  N12      1.0000 0.87808  0.81112  0.18780  Biso   1.000  N
  C25      1.0000 0.25970  0.29145  0.38860  Biso   1.000  C
  C26      1.0000 0.25970  0.20855  0.88860  Biso   1.000  C
  C27      1.0000 0.74030  0.70855  0.61140  Biso   1.000  C
  C28      1.0000 0.74030  0.79145  0.11140  Biso   1.000  C
  H29      1.0000 0.32510  0.31820  0.46510  Biso   1.000  H
  H30      1.0000 0.32510  0.18180  0.96510  Biso   1.000  H
  H31      1.0000 0.67490  0.68180  0.53490  Biso   1.000  H
  H32      1.0000 0.67490  0.81820  0.03490  Biso   1.000  H
  C29      1.0000 0.31120  0.23430  0.36170  Biso   1.000  C
  C30      1.0000 0.31120  0.26570  0.86170  Biso   1.000  C
  C31      1.0000 0.68880  0.76570  0.63830  Biso   1.000  C
  C32      1.0000 0.68880  0.73430  0.13830  Biso   1.000  C
  H33      1.0000 0.40920  0.22220  0.41960  Biso   1.000  H
  H34      1.0000 0.40920  0.27780  0.91960  Biso   1.000  H
  H35      1.0000 0.59080  0.77780  0.58040  Biso   1.000  H
  H36      1.0000 0.59080  0.72220  0.08040  Biso   1.000  H
  C33      1.0000 0.08500  0.97856  0.74720  Biso   1.000  C
  C34      1.0000 0.08500  0.52144  0.24720  Biso   1.000  C
  C35      1.0000 0.91500  0.02144  0.25280  Biso   1.000  C
  C36      1.0000 0.91500  0.47856  0.75280  Biso   1.000  C
  H37      1.0000 0.15180  0.94510  0.76090  Biso   1.000  H
  H38      1.0000 0.15180  0.55490  0.26090  Biso   1.000  H
  H39      1.0000 0.84820  0.05490  0.23910  Biso   1.000  H
  H40      1.0000 0.84820  0.44510  0.73910  Biso   1.000  H
  C37      1.0000 0.93800  0.97131  0.62660  Biso   1.000  C
  C38      1.0000 0.93800  0.52869  0.12660  Biso   1.000  C
  C39      1.0000 0.06200  0.02869  0.37340  Biso   1.000  C
  C40      1.0000 0.06200  0.47131  0.87340  Biso   1.000  C
  C41      1.0000 0.83120  0.01769  0.58280  Biso   1.000  C
  C42      1.0000 0.83120  0.48231  0.08280  Biso   1.000  C
  C43      1.0000 0.16880  0.98231  0.41720  Biso   1.000  C
  C44      1.0000 0.16880  0.51769  0.91720  Biso   1.000  C
  H41      1.0000 0.85160  0.05810  0.62860  Biso   1.000  H
  H42      1.0000 0.85160  0.44190  0.12860  Biso   1.000  H
  H43      1.0000 0.14840  0.94190  0.37140  Biso   1.000  H
  H44      1.0000 0.14840  0.55810  0.87140  Biso   1.000  H
  C45      1.0000 0.69490  0.00404  0.47150  Biso   1.000  C
  C46      1.0000 0.69490  0.49596  0.97150  Biso   1.000  C
  C47      1.0000 0.30510  0.99596  0.52850  Biso   1.000  C
  C48      1.0000 0.30510  0.50404  0.02850  Biso   1.000  C
  H45      1.0000 0.62250  0.03580  0.44440  Biso   1.000  H
  H46      1.0000 0.62250  0.46420  0.94440  Biso   1.000  H
  H47      1.0000 0.37750  0.96420  0.55560  Biso   1.000  H
  H48      1.0000 0.37750  0.53580  0.05560  Biso   1.000  H
  N13      1.0000 0.65910  0.94848  0.39960  Biso   1.000  N
  N14      1.0000 0.65910  0.55152  0.89960  Biso   1.000  N
  N15      1.0000 0.34090  0.05152  0.60040  Biso   1.000  N
  N16      1.0000 0.34090  0.44848  0.10040  Biso   1.000  N
  C49      1.0000 0.76400  0.90511  0.43880  Biso   1.000  C
  C50      1.0000 0.76400  0.59489  0.93880  Biso   1.000  C
  C51      1.0000 0.23600  0.09489  0.56120  Biso   1.000  C
  C52      1.0000 0.23600  0.40511  0.06120  Biso   1.000  C
  H49      1.0000 0.74200  0.86590  0.38710  Biso   1.000  H
  H50      1.0000 0.74200  0.63410  0.88710  Biso   1.000  H
  H51      1.0000 0.25800  0.13410  0.61290  Biso   1.000  H
  H52      1.0000 0.25800  0.36590  0.11290  Biso   1.000  H
  C53      1.0000 0.90300  0.91378  0.55020  Biso   1.000  C
  C54      1.0000 0.90300  0.58622  0.05020  Biso   1.000  C
  C55      1.0000 0.09700  0.08622  0.44980  Biso   1.000  C
  C56      1.0000 0.09700  0.41378  0.94980  Biso   1.000  C
  H53      1.0000 0.97330  0.88120  0.57430  Biso   1.000  H
  H54      1.0000 0.97330  0.61880  0.07430  Biso   1.000  H
  H55      1.0000 0.02670  0.11880  0.42570  Biso   1.000  H
  H56      1.0000 0.02670  0.38120  0.92570  Biso   1.000  H
  N17      1.0000 0.85090  0.12258  0.86430  Biso   1.000  N
  N18      1.0000 0.85090  0.37742  0.36430  Biso   1.000  N
  N19      1.0000 0.14910  0.87742  0.13570  Biso   1.000  N
  N20      1.0000 0.14910  0.62258  0.63570  Biso   1.000  N
  C57      1.0000 0.73450  0.13505  0.85050  Biso   1.000  C
  C58      1.0000 0.73450  0.36495  0.35050  Biso   1.000  C
  C59      1.0000 0.26550  0.86495  0.14950  Biso   1.000  C
  C60      1.0000 0.26550  0.63505  0.64950  Biso   1.000  C
  C61      1.0000 0.58640  0.14959  0.83470  Biso   1.000  C
  C62      1.0000 0.58640  0.35041  0.33470  Biso   1.000  C
  C63      1.0000 0.41360  0.85041  0.16530  Biso   1.000  C
  C64      1.0000 0.41360  0.64959  0.66530  Biso   1.000  C
  H57      1.0000 0.52130  0.11530  0.78050  Biso   1.000  H
  H58      1.0000 0.52130  0.38470  0.28050  Biso   1.000  H
  H59      1.0000 0.47870  0.88470  0.21950  Biso   1.000  H
  H60      1.0000 0.47870  0.61530  0.71950  Biso   1.000  H
  H61      1.0000 0.55460  0.18830  0.77480  Biso   1.000  H
  H62      1.0000 0.55460  0.31170  0.27480  Biso   1.000  H
  H63      1.0000 0.44540  0.81170  0.22520  Biso   1.000  H
  H64      1.0000 0.44540  0.68830  0.72520  Biso   1.000  H
  H65      1.0000 0.58310  0.15500  0.93800  Biso   1.000  H
  H66      1.0000 0.58310  0.34500  0.43800  Biso   1.000  H
  H67      1.0000 0.41690  0.84500  0.06200  Biso   1.000  H
  H68      1.0000 0.41690  0.65500  0.56200  Biso   1.000  H
  Cl1      1.0000 0.65356  0.16625  0.27325  Biso   1.000  Cl
  Cl2      1.0000 0.65356  0.33375  0.77325  Biso   1.000  Cl
  Cl3      1.0000 0.34644  0.83375  0.72675  Biso   1.000  Cl
  Cl4      1.0000 0.34644  0.66625  0.22675  Biso   1.000  Cl
  O1       1.0000 0.60160  0.10744  0.19630  Biso   1.000  O
  O2       1.0000 0.60160  0.39256  0.69630  Biso   1.000  O
  O3       1.0000 0.39840  0.89256  0.80370  Biso   1.000  O
  O4       1.0000 0.39840  0.60744  0.30370  Biso   1.000  O
  O5       1.0000 0.55510  0.21429  0.18860  Biso   1.000  O
  O6       1.0000 0.55510  0.28571  0.68860  Biso   1.000  O
  O7       1.0000 0.44490  0.78571  0.81140  Biso   1.000  O
  O8       1.0000 0.44490  0.71429  0.31140  Biso   1.000  O
  O9       1.0000 0.65590  0.16342  0.42880  Biso   1.000  O
  O10      1.0000 0.65590  0.33658  0.92880  Biso   1.000  O
  O11      1.0000 0.34410  0.83658  0.57120  Biso   1.000  O
  O12      1.0000 0.34410  0.66342  0.07120  Biso   1.000  O
  O13      1.0000 0.79650  0.17764  0.27610  Biso   1.000  O
  O14      1.0000 0.79650  0.32236  0.77610  Biso   1.000  O
  O15      1.0000 0.20350  0.82236  0.72390  Biso   1.000  O
  O16      1.0000 0.20350  0.67764  0.22390  Biso   1.000  O
