data_image0
_cell_length_a       10.2056
_cell_length_b       7.9516
_cell_length_c       18.2418
_cell_angle_alpha    90
_cell_angle_beta     101.454
_cell_angle_gamma    90

_symmetry_space_group_name_H-M    "P 1"
_symmetry_int_tables_number       1

loop_
  _symmetry_equiv_pos_as_xyz
  'x, y, z'

loop_
  _atom_site_label
  _atom_site_occupancy
  _atom_site_fract_x
  _atom_site_fract_y
  _atom_site_fract_z
  _atom_site_thermal_displace_type
  _atom_site_B_iso_or_equiv
  _atom_site_type_symbol
  Cu1      1.0000 0.80075  0.71834  0.97059  Biso   1.000  Cu
  Cu2      1.0000 0.19925  0.21834  0.02941  Biso   1.000  Cu
  Cu3      1.0000 0.77148  0.72681  0.80034  Biso   1.000  Cu
  Cu4      1.0000 0.22852  0.22681  0.19966  Biso   1.000  Cu
  Cu5      1.0000 0.01437  0.81103  0.12245  Biso   1.000  Cu
  Cu6      1.0000 0.98563  0.31103  0.87755  Biso   1.000  Cu
  O1       1.0000 0.16620  0.70200  0.09420  Biso   1.000  O
  O2       1.0000 0.83380  0.20200  0.90580  Biso   1.000  O
  O3       1.0000 0.95430  0.84680  0.01560  Biso   1.000  O
  O4       1.0000 0.04570  0.34680  0.98440  Biso   1.000  O
  O5       1.0000 0.89630  0.66700  0.89090  Biso   1.000  O
  O6       1.0000 0.10370  0.16700  0.10910  Biso   1.000  O
  O7       1.0000 0.84910  0.90560  0.14260  Biso   1.000  O
  O8       1.0000 0.15090  0.40560  0.85740  Biso   1.000  O
  O9       1.0000 0.70590  0.77050  0.05020  Biso   1.000  O
  O10      1.0000 0.29410  0.27050  0.94980  Biso   1.000  O
  O11      1.0000 0.33670  0.05070  0.06240  Biso   1.000  O
  O12      1.0000 0.66330  0.55070  0.93760  Biso   1.000  O
  O13      1.0000 0.35440  0.04870  0.18830  Biso   1.000  O
  O14      1.0000 0.64560  0.54870  0.81170  Biso   1.000  O
  O15      1.0000 0.90360  0.88730  0.78440  Biso   1.000  O
  O16      1.0000 0.09640  0.38730  0.21560  Biso   1.000  O
  O17      1.0000 0.27090  0.67930  0.99940  Biso   1.000  O
  O18      1.0000 0.72910  0.17930  0.00060  Biso   1.000  O
  O19      1.0000 0.08730  0.01550  0.84580  Biso   1.000  O
  O20      1.0000 0.91270  0.51550  0.15420  Biso   1.000  O
  O21      1.0000 0.65700  0.11380  0.16930  Biso   1.000  O
  O22      1.0000 0.34300  0.61380  0.83070  Biso   1.000  O
  H1       1.0000 0.62940  0.20500  0.15180  Biso   1.000  H
  H2       1.0000 0.37060  0.70500  0.84820  Biso   1.000  H
  O23      1.0000 0.54100  0.81310  0.20700  Biso   1.000  O
  O24      1.0000 0.45900  0.31310  0.79300  Biso   1.000  O
  H3       1.0000 0.51200  0.71680  0.20630  Biso   1.000  H
  H4       1.0000 0.48800  0.21680  0.79370  Biso   1.000  H
  O25      1.0000 0.66310  0.91060  0.87860  Biso   1.000  O
  O26      1.0000 0.33690  0.41060  0.12140  Biso   1.000  O
  H5       1.0000 0.56700  0.89790  0.87260  Biso   1.000  H
  H6       1.0000 0.43300  0.39790  0.12740  Biso   1.000  H
  H7       1.0000 0.69110  0.02740  0.88110  Biso   1.000  H
  H8       1.0000 0.30890  0.52740  0.11890  Biso   1.000  H
  N1       1.0000 0.10670  0.82120  0.23000  Biso   1.000  N
  N2       1.0000 0.89330  0.32120  0.77000  Biso   1.000  N
  N3       1.0000 0.66140  0.78070  0.70020  Biso   1.000  N
  N4       1.0000 0.33860  0.28070  0.29980  Biso   1.000  N
  C1       1.0000 0.22130  0.74310  0.25370  Biso   1.000  C
  C2       1.0000 0.77870  0.24310  0.74630  Biso   1.000  C
  H9       1.0000 0.25950  0.68630  0.21870  Biso   1.000  H
  H10      1.0000 0.74050  0.18630  0.78130  Biso   1.000  H
  C3       1.0000 0.28650  0.74030  0.32590  Biso   1.000  C
  C4       1.0000 0.71350  0.24030  0.67410  Biso   1.000  C
  H11      1.0000 0.36800  0.68470  0.33870  Biso   1.000  H
  H12      1.0000 0.63200  0.18470  0.66130  Biso   1.000  H
  C5       1.0000 0.17510  0.72890  0.02510  Biso   1.000  C
  C6       1.0000 0.82490  0.22890  0.97490  Biso   1.000  C
  C7       1.0000 0.06320  0.83060  0.97870  Biso   1.000  C
  C8       1.0000 0.93680  0.33060  0.02130  Biso   1.000  C
  H13      1.0000 0.09820  0.94400  0.97390  Biso   1.000  H
  H14      1.0000 0.90180  0.44400  0.02610  Biso   1.000  H
  C9       1.0000 0.01620  0.76100  0.89810  Biso   1.000  C
  C10      1.0000 0.98380  0.26100  0.10190  Biso   1.000  C
  H15      1.0000 0.08570  0.68420  0.88820  Biso   1.000  H
  H16      1.0000 0.91430  0.18420  0.11180  Biso   1.000  H
  C11      1.0000 0.00180  0.89960  0.84020  Biso   1.000  C
  C12      1.0000 0.99820  0.39960  0.15980  Biso   1.000  C
  C13      1.0000 0.71720  0.80340  0.64110  Biso   1.000  C
  C14      1.0000 0.28280  0.30340  0.35890  Biso   1.000  C
  H17      1.0000 0.80990  0.79780  0.64790  Biso   1.000  H
  H18      1.0000 0.19010  0.29780  0.35210  Biso   1.000  H
  C15      1.0000 0.64510  0.83500  0.57020  Biso   1.000  C
  C16      1.0000 0.35490  0.33500  0.42980  Biso   1.000  C
  H19      1.0000 0.68950  0.84920  0.53080  Biso   1.000  H
  H20      1.0000 0.31050  0.34920  0.46920  Biso   1.000  H
  C17      1.0000 0.51270  0.84520  0.55770  Biso   1.000  C
  C18      1.0000 0.48730  0.34520  0.44230  Biso   1.000  C
  C19      1.0000 0.45330  0.82230  0.61900  Biso   1.000  C
  C20      1.0000 0.54670  0.32230  0.38100  Biso   1.000  C
  H21      1.0000 0.36080  0.82750  0.61290  Biso   1.000  H
  H22      1.0000 0.63920  0.32750  0.38710  Biso   1.000  H
  C21      1.0000 0.52940  0.79200  0.68870  Biso   1.000  C
  C22      1.0000 0.47060  0.29200  0.31130  Biso   1.000  C
  H23      1.0000 0.48710  0.77900  0.72900  Biso   1.000  H
  H24      1.0000 0.51290  0.27900  0.27100  Biso   1.000  H
  C23      1.0000 0.05500  0.89820  0.28170  Biso   1.000  C
  C24      1.0000 0.94500  0.39820  0.71830  Biso   1.000  C
  H25      1.0000 0.97350  0.95280  0.26670  Biso   1.000  H
  H26      1.0000 0.02650  0.45280  0.73330  Biso   1.000  H
  C25      1.0000 0.23350  0.81900  0.38020  Biso   1.000  C
  C26      1.0000 0.76650  0.31900  0.61980  Biso   1.000  C
  C27      1.0000 0.30010  0.81590  0.46260  Biso   1.000  C
  C28      1.0000 0.69990  0.31590  0.53740  Biso   1.000  C
  H27      1.0000 0.24770  0.88420  0.49010  Biso   1.000  H
  H28      1.0000 0.75230  0.38420  0.50990  Biso   1.000  H
  H29      1.0000 0.29860  0.70140  0.48070  Biso   1.000  H
  H30      1.0000 0.70140  0.20140  0.51930  Biso   1.000  H
  C29      1.0000 0.73500  0.87810  0.10230  Biso   1.000  C
  C30      1.0000 0.26500  0.37810  0.89770  Biso   1.000  C
  C31      1.0000 0.38530  0.00490  0.12870  Biso   1.000  C
  C32      1.0000 0.61470  0.50490  0.87130  Biso   1.000  C
  C33      1.0000 0.61990  0.98560  0.11410  Biso   1.000  C
  C34      1.0000 0.38010  0.48560  0.88590  Biso   1.000  C
  H31      1.0000 0.58430  0.04200  0.06650  Biso   1.000  H
  H32      1.0000 0.41570  0.54200  0.93350  Biso   1.000  H
  C35      1.0000 0.50620  0.88320  0.13490  Biso   1.000  C
  C36      1.0000 0.49380  0.38320  0.86510  Biso   1.000  C
  H33      1.0000 0.48240  0.79220  0.09840  Biso   1.000  H
  H34      1.0000 0.51760  0.29220  0.90160  Biso   1.000  H
  C37      1.0000 0.11280  0.90290  0.35530  Biso   1.000  C
  C38      1.0000 0.88720  0.40290  0.64470  Biso   1.000  C
  H35      1.0000 0.07230  0.96160  0.38890  Biso   1.000  H
  H36      1.0000 0.92770  0.46160  0.61110  Biso   1.000  H
  C39      1.0000 0.43620  0.87520  0.47880  Biso   1.000  C
  C40      1.0000 0.56380  0.37520  0.52120  Biso   1.000  C
  H37      1.0000 0.43570  0.99510  0.46900  Biso   1.000  H
  H38      1.0000 0.56430  0.49510  0.53100  Biso   1.000  H
  H39      1.0000 0.48440  0.82140  0.44440  Biso   1.000  H
  H40      1.0000 0.51560  0.32140  0.55560  Biso   1.000  H
  O27      1.0000 0.76790  0.58810  0.26730  Biso   1.000  O
  O28      1.0000 0.23210  0.08810  0.73270  Biso   1.000  O
  H41      1.0000 0.70230  0.65240  0.25040  Biso   1.000  H
  H42      1.0000 0.29770  0.15240  0.74960  Biso   1.000  H
  H43      1.0000 0.81210  0.56570  0.23370  Biso   1.000  H
  H44      1.0000 0.18790  0.06570  0.76630  Biso   1.000  H
  O29      1.0000 0.80480  0.15500  0.31300  Biso   1.000  O
  O30      1.0000 0.19520  0.65500  0.68700  Biso   1.000  O
  H45      1.0000 0.84670  0.17700  0.28080  Biso   1.000  H
  H46      1.0000 0.15330  0.67700  0.71920  Biso   1.000  H
  H47      1.0000 0.78270  0.05670  0.31590  Biso   1.000  H
  H48      1.0000 0.21730  0.55670  0.68410  Biso   1.000  H
  O31      1.0000 0.59960  0.42100  0.09030  Biso   1.000  O
  O32      1.0000 0.40040  0.92100  0.90970  Biso   1.000  O
  H49      1.0000 0.65270  0.34490  0.08510  Biso   1.000  H
  H50      1.0000 0.34730  0.84490  0.91490  Biso   1.000  H
  H51      1.0000 0.63940  0.50340  0.11210  Biso   1.000  H
  H52      1.0000 0.36060  0.00340  0.88790  Biso   1.000  H
