data_image0
_cell_length_a       6.4551
_cell_length_b       8.7249
_cell_length_c       19.436
_cell_angle_alpha    90
_cell_angle_beta     91.218
_cell_angle_gamma    90

_symmetry_space_group_name_H-M    "P 1"
_symmetry_int_tables_number       1

loop_
  _symmetry_equiv_pos_as_xyz
  'x, y, z'

loop_
  _atom_site_label
  _atom_site_occupancy
  _atom_site_fract_x
  _atom_site_fract_y
  _atom_site_fract_z
  _atom_site_thermal_displace_type
  _atom_site_B_iso_or_equiv
  _atom_site_type_symbol
  Cu1      1.0000 0.00000  0.00000  0.00000  Biso   1.000  Cu
  Cu2      1.0000 0.50000  0.50000  0.50000  Biso   1.000  Cu
  Cu3      1.0000 0.00529  0.24996  0.29729  Biso   1.000  Cu
  Cu4      1.0000 0.49471  0.74996  0.20271  Biso   1.000  Cu
  Cu5      1.0000 0.99471  0.75004  0.70271  Biso   1.000  Cu
  Cu6      1.0000 0.50529  0.25004  0.79729  Biso   1.000  Cu
  C1       1.0000 0.10550  0.14090  0.14900  Biso   1.000  C
  C2       1.0000 0.39450  0.64090  0.35100  Biso   1.000  C
  C3       1.0000 0.89450  0.85910  0.85100  Biso   1.000  C
  C4       1.0000 0.60550  0.35910  0.64900  Biso   1.000  C
  C5       1.0000 0.84460  0.99030  0.13310  Biso   1.000  C
  C6       1.0000 0.65540  0.49030  0.36690  Biso   1.000  C
  C7       1.0000 0.15540  0.00970  0.86690  Biso   1.000  C
  C8       1.0000 0.34460  0.50970  0.63310  Biso   1.000  C
  C9       1.0000 0.84450  0.04170  0.19970  Biso   1.000  C
  C10      1.0000 0.65550  0.54170  0.30030  Biso   1.000  C
  C11      1.0000 0.15550  0.95830  0.80030  Biso   1.000  C
  C12      1.0000 0.34450  0.45830  0.69970  Biso   1.000  C
  C13      1.0000 0.69650  0.03280  0.25750  Biso   1.000  C
  C14      1.0000 0.80350  0.53280  0.24250  Biso   1.000  C
  C15      1.0000 0.30350  0.96720  0.74250  Biso   1.000  C
  C16      1.0000 0.19650  0.46720  0.75750  Biso   1.000  C
  C17      1.0000 0.28860  0.24060  0.13480  Biso   1.000  C
  C18      1.0000 0.21140  0.74060  0.36520  Biso   1.000  C
  C19      1.0000 0.71140  0.75940  0.86520  Biso   1.000  C
  C20      1.0000 0.78860  0.25940  0.63480  Biso   1.000  C
  N1       1.0000 0.01280  0.05360  0.10010  Biso   1.000  N
  N2       1.0000 0.48720  0.55360  0.39990  Biso   1.000  N
  N3       1.0000 0.98720  0.94640  0.89990  Biso   1.000  N
  N4       1.0000 0.51280  0.44640  0.60010  Biso   1.000  N
  N5       1.0000 0.01120  0.13650  0.20890  Biso   1.000  N
  N6       1.0000 0.48880  0.63650  0.29110  Biso   1.000  N
  N7       1.0000 0.98880  0.86350  0.79110  Biso   1.000  N
  N8       1.0000 0.51120  0.36350  0.70890  Biso   1.000  N
  O1       1.0000 0.74100  0.11670  0.30830  Biso   1.000  O
  O2       1.0000 0.75900  0.61670  0.19170  Biso   1.000  O
  O3       1.0000 0.25900  0.88330  0.69170  Biso   1.000  O
  O4       1.0000 0.24100  0.38330  0.80830  Biso   1.000  O
  O5       1.0000 0.74920  0.89060  0.02647  Biso   1.000  O
  O6       1.0000 0.75080  0.39060  0.47353  Biso   1.000  O
  O7       1.0000 0.25080  0.10940  0.97353  Biso   1.000  O
  O8       1.0000 0.24920  0.60940  0.52647  Biso   1.000  O
  F1       1.0000 0.23570  0.35630  0.09318  Biso   1.000  F
  F2       1.0000 0.26430  0.85630  0.40682  Biso   1.000  F
  F3       1.0000 0.76430  0.64370  0.90682  Biso   1.000  F
  F4       1.0000 0.73570  0.14370  0.59318  Biso   1.000  F
  F5       1.0000 0.44100  0.16700  0.10497  Biso   1.000  F
  F6       1.0000 0.05900  0.66700  0.39503  Biso   1.000  F
  F7       1.0000 0.55900  0.83300  0.89503  Biso   1.000  F
  F8       1.0000 0.94100  0.33300  0.60497  Biso   1.000  F
  F9       1.0000 0.36290  0.30050  0.19284  Biso   1.000  F
  F10      1.0000 0.13710  0.80050  0.30716  Biso   1.000  F
  F11      1.0000 0.63710  0.69950  0.80716  Biso   1.000  F
  F12      1.0000 0.86290  0.19950  0.69284  Biso   1.000  F
  C21      1.0000 0.70330  0.89610  0.08950  Biso   1.000  C
  C22      1.0000 0.79670  0.39610  0.41050  Biso   1.000  C
  C23      1.0000 0.29670  0.10390  0.91050  Biso   1.000  C
  C24      1.0000 0.20330  0.60390  0.58950  Biso   1.000  C
  O9       1.0000 0.54560  0.83000  0.11187  Biso   1.000  O
  O10      1.0000 0.95440  0.33000  0.38813  Biso   1.000  O
  O11      1.0000 0.45440  0.17000  0.88813  Biso   1.000  O
  O12      1.0000 0.04560  0.67000  0.61187  Biso   1.000  O
  O13      1.0000 0.53570  0.95280  0.25384  Biso   1.000  O
  O14      1.0000 0.96430  0.45280  0.24616  Biso   1.000  O
  O15      1.0000 0.46430  0.04720  0.74616  Biso   1.000  O
  O16      1.0000 0.03570  0.54720  0.75384  Biso   1.000  O
  O17      1.0000 0.28490  0.19100  0.33450  Biso   1.000  O
  O18      1.0000 0.21510  0.69100  0.16550  Biso   1.000  O
  O19      1.0000 0.71510  0.80900  0.66550  Biso   1.000  O
  O20      1.0000 0.78490  0.30900  0.83450  Biso   1.000  O
  H1       1.0000 0.41340  0.20110  0.32630  Biso   1.000  H
  H2       1.0000 0.08660  0.70110  0.17370  Biso   1.000  H
  H3       1.0000 0.58660  0.79890  0.67370  Biso   1.000  H
  H4       1.0000 0.91340  0.29890  0.82630  Biso   1.000  H
  H5       1.0000 0.27630  0.13470  0.37030  Biso   1.000  H
  H6       1.0000 0.22370  0.63470  0.12970  Biso   1.000  H
  H7       1.0000 0.72370  0.86530  0.62970  Biso   1.000  H
  H8       1.0000 0.77630  0.36530  0.87030  Biso   1.000  H
  O21      1.0000 0.20020  0.76080  0.02530  Biso   1.000  O
  O22      1.0000 0.29980  0.26080  0.47470  Biso   1.000  O
  O23      1.0000 0.79980  0.23920  0.97470  Biso   1.000  O
  O24      1.0000 0.70020  0.73920  0.52530  Biso   1.000  O
  H9       1.0000 0.31220  0.71220  0.01540  Biso   1.000  H
  H10      1.0000 0.18780  0.21220  0.48460  Biso   1.000  H
  H11      1.0000 0.68780  0.28780  0.98460  Biso   1.000  H
  H12      1.0000 0.81220  0.78780  0.51540  Biso   1.000  H
  H13      1.0000 0.10440  0.69580  0.02480  Biso   1.000  H
  H14      1.0000 0.39560  0.19580  0.47520  Biso   1.000  H
  H15      1.0000 0.89560  0.30420  0.97520  Biso   1.000  H
  H16      1.0000 0.60440  0.80420  0.52480  Biso   1.000  H
  O25      1.0000 0.73600  0.00240  0.44910  Biso   1.000  O
  O26      1.0000 0.76400  0.50240  0.05090  Biso   1.000  O
  O27      1.0000 0.26400  0.99760  0.55090  Biso   1.000  O
  O28      1.0000 0.23600  0.49760  0.94910  Biso   1.000  O
  H17      1.0000 0.60860  0.96710  0.43800  Biso   1.000  H
  H18      1.0000 0.89140  0.46710  0.06200  Biso   1.000  H
  H19      1.0000 0.39140  0.03290  0.56200  Biso   1.000  H
  H20      1.0000 0.10860  0.53290  0.93800  Biso   1.000  H
  H21      1.0000 0.75110  0.06450  0.41570  Biso   1.000  H
  H22      1.0000 0.74890  0.56450  0.08430  Biso   1.000  H
  H23      1.0000 0.24890  0.93550  0.58430  Biso   1.000  H
  H24      1.0000 0.25110  0.43550  0.91570  Biso   1.000  H
