data_image0
_cell_length_a       11.9289
_cell_length_b       10.438
_cell_length_c       16.1295
_cell_angle_alpha    90
_cell_angle_beta     108.594
_cell_angle_gamma    90

_symmetry_space_group_name_H-M    "P 1"
_symmetry_int_tables_number       1

loop_
  _symmetry_equiv_pos_as_xyz
  'x, y, z'

loop_
  _atom_site_label
  _atom_site_occupancy
  _atom_site_fract_x
  _atom_site_fract_y
  _atom_site_fract_z
  _atom_site_thermal_displace_type
  _atom_site_B_iso_or_equiv
  _atom_site_type_symbol
  Cu1      1.0000 0.51038  0.15391  0.02391  Biso   1.000  Cu
  Cu2      1.0000 0.48962  0.65391  0.47609  Biso   1.000  Cu
  Cu3      1.0000 0.48962  0.84609  0.97609  Biso   1.000  Cu
  Cu4      1.0000 0.51038  0.34609  0.52391  Biso   1.000  Cu
  C1       1.0000 0.71810  0.15020  0.95230  Biso   1.000  C
  C2       1.0000 0.28190  0.65020  0.54770  Biso   1.000  C
  C3       1.0000 0.28190  0.84980  0.04770  Biso   1.000  C
  C4       1.0000 0.71810  0.34980  0.45230  Biso   1.000  C
  H1       1.0000 0.73880  0.07180  0.98040  Biso   1.000  H
  H2       1.0000 0.26120  0.57180  0.51960  Biso   1.000  H
  H3       1.0000 0.26120  0.92820  0.01960  Biso   1.000  H
  H4       1.0000 0.73880  0.42820  0.48040  Biso   1.000  H
  C5       1.0000 0.78780  0.20020  0.90630  Biso   1.000  C
  C6       1.0000 0.21220  0.70020  0.59370  Biso   1.000  C
  C7       1.0000 0.21220  0.79980  0.09370  Biso   1.000  C
  C8       1.0000 0.78780  0.29980  0.40630  Biso   1.000  C
  H5       1.0000 0.85360  0.15570  0.90270  Biso   1.000  H
  H6       1.0000 0.14640  0.65570  0.59730  Biso   1.000  H
  H7       1.0000 0.14640  0.84430  0.09730  Biso   1.000  H
  H8       1.0000 0.85360  0.34430  0.40270  Biso   1.000  H
  C9       1.0000 0.75810  0.31700  0.86570  Biso   1.000  C
  C10      1.0000 0.24190  0.81700  0.63430  Biso   1.000  C
  C11      1.0000 0.24190  0.68300  0.13430  Biso   1.000  C
  C12      1.0000 0.75810  0.18300  0.36570  Biso   1.000  C
  H9       1.0000 0.80420  0.35290  0.83490  Biso   1.000  H
  H10      1.0000 0.19580  0.85290  0.66510  Biso   1.000  H
  H11      1.0000 0.19580  0.64710  0.16510  Biso   1.000  H
  H12      1.0000 0.80420  0.14710  0.33490  Biso   1.000  H
  C13      1.0000 0.65960  0.38000  0.87120  Biso   1.000  C
  C14      1.0000 0.34040  0.88000  0.62880  Biso   1.000  C
  C15      1.0000 0.34040  0.62000  0.12880  Biso   1.000  C
  C16      1.0000 0.65960  0.12000  0.37120  Biso   1.000  C
  H13      1.0000 0.63830  0.45910  0.84430  Biso   1.000  H
  H14      1.0000 0.36170  0.95910  0.65570  Biso   1.000  H
  H15      1.0000 0.36170  0.54090  0.15570  Biso   1.000  H
  H16      1.0000 0.63830  0.04090  0.34430  Biso   1.000  H
  C17      1.0000 0.59280  0.32440  0.91690  Biso   1.000  C
  C18      1.0000 0.40720  0.82440  0.58310  Biso   1.000  C
  C19      1.0000 0.40720  0.67560  0.08310  Biso   1.000  C
  C20      1.0000 0.59280  0.17560  0.41690  Biso   1.000  C
  C21      1.0000 0.48260  0.37370  0.92300  Biso   1.000  C
  C22      1.0000 0.51740  0.87370  0.57700  Biso   1.000  C
  C23      1.0000 0.51740  0.62630  0.07700  Biso   1.000  C
  C24      1.0000 0.48260  0.12630  0.42300  Biso   1.000  C
  C25      1.0000 0.31840  0.48120  0.90460  Biso   1.000  C
  C26      1.0000 0.68160  0.98120  0.59540  Biso   1.000  C
  C27      1.0000 0.68160  0.51880  0.09540  Biso   1.000  C
  C28      1.0000 0.31840  0.01880  0.40460  Biso   1.000  C
  C29      1.0000 0.22290  0.56550  0.88140  Biso   1.000  C
  C30      1.0000 0.77710  0.06550  0.61860  Biso   1.000  C
  C31      1.0000 0.77710  0.43450  0.11860  Biso   1.000  C
  C32      1.0000 0.22290  0.93450  0.38140  Biso   1.000  C
  H17      1.0000 0.22400  0.63990  0.84990  Biso   1.000  H
  H18      1.0000 0.77600  0.13990  0.65010  Biso   1.000  H
  H19      1.0000 0.77600  0.36010  0.15010  Biso   1.000  H
  H20      1.0000 0.22400  0.86010  0.34990  Biso   1.000  H
  C33      1.0000 0.12810  0.53480  0.90680  Biso   1.000  C
  C34      1.0000 0.87190  0.03480  0.59320  Biso   1.000  C
  C35      1.0000 0.87190  0.46520  0.09320  Biso   1.000  C
  C36      1.0000 0.12810  0.96520  0.40680  Biso   1.000  C
  H21      1.0000 0.06310  0.58930  0.89210  Biso   1.000  H
  H22      1.0000 0.93690  0.08930  0.60790  Biso   1.000  H
  H23      1.0000 0.93690  0.41070  0.10790  Biso   1.000  H
  H24      1.0000 0.06310  0.91070  0.39210  Biso   1.000  H
  C37      1.0000 0.12560  0.42320  0.95430  Biso   1.000  C
  C38      1.0000 0.87440  0.92320  0.54570  Biso   1.000  C
  C39      1.0000 0.87440  0.57680  0.04570  Biso   1.000  C
  C40      1.0000 0.12560  0.07680  0.45430  Biso   1.000  C
  H25      1.0000 0.05870  0.40520  0.97010  Biso   1.000  H
  H26      1.0000 0.94130  0.90520  0.52990  Biso   1.000  H
  H27      1.0000 0.94130  0.59480  0.02990  Biso   1.000  H
  H28      1.0000 0.05870  0.09480  0.47010  Biso   1.000  H
  C41      1.0000 0.22030  0.33890  0.97850  Biso   1.000  C
  C42      1.0000 0.77970  0.83890  0.52150  Biso   1.000  C
  C43      1.0000 0.77970  0.66110  0.02150  Biso   1.000  C
  C44      1.0000 0.22030  0.16110  0.47850  Biso   1.000  C
  H29      1.0000 0.21860  0.26480  0.01010  Biso   1.000  H
  H30      1.0000 0.78140  0.76480  0.48990  Biso   1.000  H
  H31      1.0000 0.78140  0.73520  0.98990  Biso   1.000  H
  H32      1.0000 0.21860  0.23520  0.51010  Biso   1.000  H
  C45      1.0000 0.31750  0.37010  0.95340  Biso   1.000  C
  C46      1.0000 0.68250  0.87010  0.54660  Biso   1.000  C
  C47      1.0000 0.68250  0.62990  0.04660  Biso   1.000  C
  C48      1.0000 0.31750  0.12990  0.45340  Biso   1.000  C
  C49      1.0000 0.71590  0.88620  0.19750  Biso   1.000  C
  C50      1.0000 0.28410  0.38620  0.30250  Biso   1.000  C
  C51      1.0000 0.28410  0.11380  0.80250  Biso   1.000  C
  C52      1.0000 0.71590  0.61380  0.69750  Biso   1.000  C
  C53      1.0000 0.82380  0.82290  0.22200  Biso   1.000  C
  C54      1.0000 0.17620  0.32290  0.27800  Biso   1.000  C
  C55      1.0000 0.17620  0.17710  0.77800  Biso   1.000  C
  C56      1.0000 0.82380  0.67710  0.72200  Biso   1.000  C
  H33      1.0000 0.88410  0.85080  0.20140  Biso   1.000  H
  H34      1.0000 0.11590  0.35080  0.29860  Biso   1.000  H
  H35      1.0000 0.11590  0.14920  0.79860  Biso   1.000  H
  H36      1.0000 0.88410  0.64920  0.70140  Biso   1.000  H
  C57      1.0000 0.84120  0.71760  0.27750  Biso   1.000  C
  C58      1.0000 0.15880  0.21760  0.22250  Biso   1.000  C
  C59      1.0000 0.15880  0.28240  0.72250  Biso   1.000  C
  C60      1.0000 0.84120  0.78240  0.77750  Biso   1.000  C
  C61      1.0000 0.75410  0.68240  0.31310  Biso   1.000  C
  C62      1.0000 0.24590  0.18240  0.18690  Biso   1.000  C
  C63      1.0000 0.24590  0.31760  0.68690  Biso   1.000  C
  C64      1.0000 0.75410  0.81760  0.81310  Biso   1.000  C
  H37      1.0000 0.76700  0.61330  0.35150  Biso   1.000  H
  H38      1.0000 0.23300  0.11330  0.14850  Biso   1.000  H
  H39      1.0000 0.23300  0.38670  0.64850  Biso   1.000  H
  H40      1.0000 0.76700  0.88670  0.85150  Biso   1.000  H
  C65      1.0000 0.64810  0.74890  0.29230  Biso   1.000  C
  C66      1.0000 0.35190  0.24890  0.20770  Biso   1.000  C
  C67      1.0000 0.35190  0.25110  0.70770  Biso   1.000  C
  C68      1.0000 0.64810  0.75110  0.79230  Biso   1.000  C
  C69      1.0000 0.62790  0.84740  0.23124  Biso   1.000  C
  C70      1.0000 0.37210  0.34740  0.26876  Biso   1.000  C
  C71      1.0000 0.37210  0.15260  0.76876  Biso   1.000  C
  C72      1.0000 0.62790  0.65260  0.73124  Biso   1.000  C
  H41      1.0000 0.55460  0.88780  0.21280  Biso   1.000  H
  H42      1.0000 0.44540  0.38780  0.28720  Biso   1.000  H
  H43      1.0000 0.44540  0.11220  0.78720  Biso   1.000  H
  H44      1.0000 0.55460  0.61220  0.71280  Biso   1.000  H
  C73      1.0000 0.69210  0.00100  0.13860  Biso   1.000  C
  C74      1.0000 0.30790  0.50100  0.36140  Biso   1.000  C
  C75      1.0000 0.30790  0.99900  0.86140  Biso   1.000  C
  C76      1.0000 0.69210  0.49900  0.63860  Biso   1.000  C
  C77      1.0000 0.95280  0.64190  0.30350  Biso   1.000  C
  C78      1.0000 0.04720  0.14190  0.19650  Biso   1.000  C
  C79      1.0000 0.04720  0.35810  0.69650  Biso   1.000  C
  C80      1.0000 0.95280  0.85810  0.80350  Biso   1.000  C
  C81      1.0000 0.56100  0.72490  0.34020  Biso   1.000  C
  C82      1.0000 0.43900  0.22490  0.15980  Biso   1.000  C
  C83      1.0000 0.43900  0.27510  0.65980  Biso   1.000  C
  C84      1.0000 0.56100  0.77510  0.84020  Biso   1.000  C
  N1       1.0000 0.62240  0.21050  0.95788  Biso   1.000  N
  N2       1.0000 0.37760  0.71050  0.54212  Biso   1.000  N
  N3       1.0000 0.37760  0.78950  0.04212  Biso   1.000  N
  N4       1.0000 0.62240  0.28950  0.45788  Biso   1.000  N
  N5       1.0000 0.42250  0.30530  0.96398  Biso   1.000  N
  N6       1.0000 0.57750  0.80530  0.53602  Biso   1.000  N
  N7       1.0000 0.57750  0.69470  0.03602  Biso   1.000  N
  N8       1.0000 0.42250  0.19470  0.46398  Biso   1.000  N
  N9       1.0000 0.42300  0.48050  0.88674  Biso   1.000  N
  N10      1.0000 0.57700  0.98050  0.61326  Biso   1.000  N
  N11      1.0000 0.57700  0.51950  0.11326  Biso   1.000  N
  N12      1.0000 0.42300  0.01950  0.38674  Biso   1.000  N
  H45      1.0000 0.44660  0.53770  0.85770  Biso   1.000  H
  H46      1.0000 0.55340  0.03770  0.64230  Biso   1.000  H
  H47      1.0000 0.55340  0.46230  0.14230  Biso   1.000  H
  H48      1.0000 0.44660  0.96230  0.35770  Biso   1.000  H
  O1       1.0000 0.59425  0.99910  0.07531  Biso   1.000  O
  O2       1.0000 0.40575  0.49910  0.42469  Biso   1.000  O
  O3       1.0000 0.40575  0.00090  0.92469  Biso   1.000  O
  O4       1.0000 0.59425  0.50090  0.57531  Biso   1.000  O
  O5       1.0000 0.76010  0.09250  0.15389  Biso   1.000  O
  O6       1.0000 0.23990  0.59250  0.34611  Biso   1.000  O
  O7       1.0000 0.23990  0.90750  0.84611  Biso   1.000  O
  O8       1.0000 0.76010  0.40750  0.65389  Biso   1.000  O
  O9       1.0000 0.03130  0.68440  0.26954  Biso   1.000  O
  O10      1.0000 0.96870  0.18440  0.23046  Biso   1.000  O
  O11      1.0000 0.96870  0.31560  0.73046  Biso   1.000  O
  O12      1.0000 0.03130  0.81560  0.76954  Biso   1.000  O
  H49      1.0000 0.09100  0.64000  0.28630  Biso   1.000  H
  H50      1.0000 0.90900  0.14000  0.21370  Biso   1.000  H
  H51      1.0000 0.90900  0.36000  0.71370  Biso   1.000  H
  H52      1.0000 0.09100  0.86000  0.78630  Biso   1.000  H
  O13      1.0000 0.96880  0.54960  0.35060  Biso   1.000  O
  O14      1.0000 0.03120  0.04960  0.14940  Biso   1.000  O
  O15      1.0000 0.03120  0.45040  0.64940  Biso   1.000  O
  O16      1.0000 0.96880  0.95040  0.85060  Biso   1.000  O
  O17      1.0000 0.47220  0.79480  0.32468  Biso   1.000  O
  O18      1.0000 0.52780  0.29480  0.17532  Biso   1.000  O
  O19      1.0000 0.52780  0.20520  0.67532  Biso   1.000  O
  O20      1.0000 0.47220  0.70520  0.82468  Biso   1.000  O
  O21      1.0000 0.58660  0.63730  0.39825  Biso   1.000  O
  O22      1.0000 0.41340  0.13730  0.10175  Biso   1.000  O
  O23      1.0000 0.41340  0.36270  0.60175  Biso   1.000  O
  O24      1.0000 0.58660  0.86270  0.89825  Biso   1.000  O
