data_image0
_cell_length_a       7.2848
_cell_length_b       20.769
_cell_length_c       11.4072
_cell_angle_alpha    90
_cell_angle_beta     96.021
_cell_angle_gamma    90

_symmetry_space_group_name_H-M    "P 1"
_symmetry_int_tables_number       1

loop_
  _symmetry_equiv_pos_as_xyz
  'x, y, z'

loop_
  _atom_site_label
  _atom_site_occupancy
  _atom_site_fract_x
  _atom_site_fract_y
  _atom_site_fract_z
  _atom_site_thermal_displace_type
  _atom_site_B_iso_or_equiv
  _atom_site_type_symbol
  Cu1      1.0000 0.26391  0.38999  0.84296  Biso   1.000  Cu
  Cu2      1.0000 0.73609  0.88999  0.65704  Biso   1.000  Cu
  Cu3      1.0000 0.73609  0.61001  0.15704  Biso   1.000  Cu
  Cu4      1.0000 0.26391  0.11001  0.34296  Biso   1.000  Cu
  C1       1.0000 0.28280  0.50865  0.68940  Biso   1.000  C
  C2       1.0000 0.71720  0.00865  0.81060  Biso   1.000  C
  C3       1.0000 0.71720  0.49135  0.31060  Biso   1.000  C
  C4       1.0000 0.28280  0.99135  0.18940  Biso   1.000  C
  H1       1.0000 0.29450  0.48040  0.62730  Biso   1.000  H
  H2       1.0000 0.70550  0.98040  0.87270  Biso   1.000  H
  H3       1.0000 0.70550  0.51960  0.37270  Biso   1.000  H
  H4       1.0000 0.29450  0.01960  0.12730  Biso   1.000  H
  C5       1.0000 0.27690  0.57420  0.66720  Biso   1.000  C
  C6       1.0000 0.72310  0.07420  0.83280  Biso   1.000  C
  C7       1.0000 0.72310  0.42580  0.33280  Biso   1.000  C
  C8       1.0000 0.27690  0.92580  0.16720  Biso   1.000  C
  H5       1.0000 0.28730  0.58980  0.59180  Biso   1.000  H
  H6       1.0000 0.71270  0.08980  0.90820  Biso   1.000  H
  H7       1.0000 0.71270  0.41020  0.40820  Biso   1.000  H
  H8       1.0000 0.28730  0.91020  0.09180  Biso   1.000  H
  C9       1.0000 0.25540  0.61552  0.75820  Biso   1.000  C
  C10      1.0000 0.74460  0.11552  0.74180  Biso   1.000  C
  C11      1.0000 0.74460  0.38448  0.24180  Biso   1.000  C
  C12      1.0000 0.25540  0.88448  0.25820  Biso   1.000  C
  H9       1.0000 0.24780  0.65970  0.74480  Biso   1.000  H
  H10      1.0000 0.75220  0.15970  0.75520  Biso   1.000  H
  H11      1.0000 0.75220  0.34030  0.25520  Biso   1.000  H
  H12      1.0000 0.24780  0.84030  0.24480  Biso   1.000  H
  C13      1.0000 0.24540  0.59159  0.86870  Biso   1.000  C
  C14      1.0000 0.75460  0.09159  0.63130  Biso   1.000  C
  C15      1.0000 0.75460  0.40841  0.13130  Biso   1.000  C
  C16      1.0000 0.24540  0.90841  0.36870  Biso   1.000  C
  H13      1.0000 0.23190  0.61920  0.93140  Biso   1.000  H
  H14      1.0000 0.76810  0.11920  0.56860  Biso   1.000  H
  H15      1.0000 0.76810  0.38080  0.06860  Biso   1.000  H
  H16      1.0000 0.23190  0.88080  0.43140  Biso   1.000  H
  C17      1.0000 0.25540  0.52609  0.88620  Biso   1.000  C
  C18      1.0000 0.74460  0.02609  0.61380  Biso   1.000  C
  C19      1.0000 0.74460  0.47391  0.11380  Biso   1.000  C
  C20      1.0000 0.25540  0.97391  0.38620  Biso   1.000  C
  C21      1.0000 0.24970  0.49315  0.99780  Biso   1.000  C
  C22      1.0000 0.75030  0.99315  0.50220  Biso   1.000  C
  C23      1.0000 0.75030  0.50685  0.00220  Biso   1.000  C
  C24      1.0000 0.24970  0.00685  0.49780  Biso   1.000  C
  C25      1.0000 0.23580  0.46861  0.18430  Biso   1.000  C
  C26      1.0000 0.76420  0.96861  0.31570  Biso   1.000  C
  C27      1.0000 0.76420  0.53139  0.81570  Biso   1.000  C
  C28      1.0000 0.23580  0.03139  0.68430  Biso   1.000  C
  C29      1.0000 0.22360  0.46616  0.30500  Biso   1.000  C
  C30      1.0000 0.77640  0.96616  0.19500  Biso   1.000  C
  C31      1.0000 0.77640  0.53384  0.69500  Biso   1.000  C
  C32      1.0000 0.22360  0.03384  0.80500  Biso   1.000  C
  H17      1.0000 0.21360  0.50350  0.34890  Biso   1.000  H
  H18      1.0000 0.78640  0.00350  0.15110  Biso   1.000  H
  H19      1.0000 0.78640  0.49650  0.65110  Biso   1.000  H
  H20      1.0000 0.21360  0.99650  0.84890  Biso   1.000  H
  C33      1.0000 0.22710  0.40669  0.35650  Biso   1.000  C
  C34      1.0000 0.77290  0.90669  0.14350  Biso   1.000  C
  C35      1.0000 0.77290  0.59331  0.64350  Biso   1.000  C
  C36      1.0000 0.22710  0.09331  0.85650  Biso   1.000  C
  H21      1.0000 0.22120  0.40370  0.43740  Biso   1.000  H
  H22      1.0000 0.77880  0.90370  0.06260  Biso   1.000  H
  H23      1.0000 0.77880  0.59630  0.56260  Biso   1.000  H
  H24      1.0000 0.22120  0.09630  0.93740  Biso   1.000  H
  C37      1.0000 0.23920  0.35048  0.29100  Biso   1.000  C
  C38      1.0000 0.76080  0.85048  0.20900  Biso   1.000  C
  C39      1.0000 0.76080  0.64952  0.70900  Biso   1.000  C
  C40      1.0000 0.23920  0.14952  0.79100  Biso   1.000  C
  H25      1.0000 0.23920  0.31090  0.32910  Biso   1.000  H
  H26      1.0000 0.76080  0.81090  0.17090  Biso   1.000  H
  H27      1.0000 0.76080  0.68910  0.67090  Biso   1.000  H
  H28      1.0000 0.23920  0.18910  0.82910  Biso   1.000  H
  C41      1.0000 0.25110  0.35218  0.17190  Biso   1.000  C
  C42      1.0000 0.74890  0.85218  0.32810  Biso   1.000  C
  C43      1.0000 0.74890  0.64782  0.82810  Biso   1.000  C
  C44      1.0000 0.25110  0.14782  0.67190  Biso   1.000  C
  H29      1.0000 0.26060  0.31450  0.12890  Biso   1.000  H
  H30      1.0000 0.73940  0.81450  0.37110  Biso   1.000  H
  H31      1.0000 0.73940  0.68550  0.87110  Biso   1.000  H
  H32      1.0000 0.26060  0.18550  0.62890  Biso   1.000  H
  C45      1.0000 0.24870  0.41218  0.11780  Biso   1.000  C
  C46      1.0000 0.75130  0.91218  0.38220  Biso   1.000  C
  C47      1.0000 0.75130  0.58782  0.88220  Biso   1.000  C
  C48      1.0000 0.24870  0.08782  0.61780  Biso   1.000  C
  C49      1.0000 0.01040  0.35683  0.69050  Biso   1.000  C
  C50      1.0000 0.98960  0.85683  0.80950  Biso   1.000  C
  C51      1.0000 0.98960  0.64317  0.30950  Biso   1.000  C
  C52      1.0000 0.01040  0.14317  0.19050  Biso   1.000  C
  C53      1.0000 0.88000  0.32018  0.60420  Biso   1.000  C
  C54      1.0000 0.12000  0.82018  0.89580  Biso   1.000  C
  C55      1.0000 0.12000  0.67982  0.39580  Biso   1.000  C
  C56      1.0000 0.88000  0.17982  0.10420  Biso   1.000  C
  C57      1.0000 0.69230  0.32392  0.61480  Biso   1.000  C
  C58      1.0000 0.30770  0.82392  0.88520  Biso   1.000  C
  C59      1.0000 0.30770  0.67608  0.38520  Biso   1.000  C
  C60      1.0000 0.69230  0.17608  0.11480  Biso   1.000  C
  H33      1.0000 0.64920  0.35290  0.66760  Biso   1.000  H
  H34      1.0000 0.35080  0.85290  0.83240  Biso   1.000  H
  H35      1.0000 0.35080  0.64710  0.33240  Biso   1.000  H
  H36      1.0000 0.64920  0.14710  0.16760  Biso   1.000  H
  C61      1.0000 0.56850  0.28467  0.54720  Biso   1.000  C
  C62      1.0000 0.43150  0.78467  0.95280  Biso   1.000  C
  C63      1.0000 0.43150  0.71533  0.45280  Biso   1.000  C
  C64      1.0000 0.56850  0.21533  0.04720  Biso   1.000  C
  H37      1.0000 0.44260  0.28800  0.55350  Biso   1.000  H
  H38      1.0000 0.55740  0.78800  0.94650  Biso   1.000  H
  H39      1.0000 0.55740  0.71200  0.44650  Biso   1.000  H
  H40      1.0000 0.44260  0.21200  0.05350  Biso   1.000  H
  C65      1.0000 0.63330  0.24037  0.47000  Biso   1.000  C
  C66      1.0000 0.36670  0.74037  0.03000  Biso   1.000  C
  C67      1.0000 0.36670  0.75963  0.53000  Biso   1.000  C
  C68      1.0000 0.63330  0.25963  0.97000  Biso   1.000  C
  C69      1.0000 0.82080  0.23844  0.45670  Biso   1.000  C
  C70      1.0000 0.17920  0.73844  0.04330  Biso   1.000  C
  C71      1.0000 0.17920  0.76156  0.54330  Biso   1.000  C
  C72      1.0000 0.82080  0.26156  0.95670  Biso   1.000  C
  H41      1.0000 0.86410  0.21000  0.40300  Biso   1.000  H
  H42      1.0000 0.13590  0.71000  0.09700  Biso   1.000  H
  H43      1.0000 0.13590  0.79000  0.59700  Biso   1.000  H
  H44      1.0000 0.86410  0.29000  0.90300  Biso   1.000  H
  C73      1.0000 0.94370  0.27851  0.52260  Biso   1.000  C
  C74      1.0000 0.05630  0.77851  0.97740  Biso   1.000  C
  C75      1.0000 0.05630  0.72149  0.47740  Biso   1.000  C
  C76      1.0000 0.94370  0.22149  0.02260  Biso   1.000  C
  H45      1.0000 0.06850  0.27750  0.51210  Biso   1.000  H
  H46      1.0000 0.93150  0.77750  0.98790  Biso   1.000  H
  H47      1.0000 0.93150  0.72250  0.48790  Biso   1.000  H
  H48      1.0000 0.06850  0.22250  0.01210  Biso   1.000  H
  C77      1.0000 0.50690  0.19014  0.41050  Biso   1.000  C
  C78      1.0000 0.49310  0.69014  0.08950  Biso   1.000  C
  C79      1.0000 0.49310  0.80986  0.58950  Biso   1.000  C
  C80      1.0000 0.50690  0.30986  0.91050  Biso   1.000  C
  N1       1.0000 0.27240  0.48479  0.79600  Biso   1.000  N
  N2       1.0000 0.72760  0.98479  0.70400  Biso   1.000  N
  N3       1.0000 0.72760  0.51521  0.20400  Biso   1.000  N
  N4       1.0000 0.27240  0.01521  0.29600  Biso   1.000  N
  N5       1.0000 0.25650  0.42941  0.00110  Biso   1.000  N
  N6       1.0000 0.74350  0.92941  0.49890  Biso   1.000  N
  N7       1.0000 0.74350  0.57059  0.99890  Biso   1.000  N
  N8       1.0000 0.25650  0.07059  0.50110  Biso   1.000  N
  N9       1.0000 0.23730  0.51849  0.10550  Biso   1.000  N
  N10      1.0000 0.76270  0.01849  0.39450  Biso   1.000  N
  N11      1.0000 0.76270  0.48151  0.89450  Biso   1.000  N
  N12      1.0000 0.23730  0.98151  0.60550  Biso   1.000  N
  H49      1.0000 0.23140  0.55880  0.12190  Biso   1.000  H
  H50      1.0000 0.76860  0.05880  0.37810  Biso   1.000  H
  H51      1.0000 0.76860  0.44120  0.87810  Biso   1.000  H
  H52      1.0000 0.23140  0.94120  0.62190  Biso   1.000  H
  O1       1.0000 0.94810  0.38567  0.77344  Biso   1.000  O
  O2       1.0000 0.05190  0.88567  0.72656  Biso   1.000  O
  O3       1.0000 0.05190  0.61433  0.22656  Biso   1.000  O
  O4       1.0000 0.94810  0.11433  0.27344  Biso   1.000  O
  O5       1.0000 0.18170  0.35514  0.68134  Biso   1.000  O
  O6       1.0000 0.81830  0.85514  0.81866  Biso   1.000  O
  O7       1.0000 0.81830  0.64486  0.31866  Biso   1.000  O
  O8       1.0000 0.18170  0.14486  0.18134  Biso   1.000  O
  O9       1.0000 0.33390  0.19779  0.40736  Biso   1.000  O
  O10      1.0000 0.66610  0.69779  0.09264  Biso   1.000  O
  O11      1.0000 0.66610  0.80221  0.59264  Biso   1.000  O
  O12      1.0000 0.33390  0.30221  0.90736  Biso   1.000  O
  O13      1.0000 0.57490  0.14061  0.37109  Biso   1.000  O
  O14      1.0000 0.42510  0.64061  0.12891  Biso   1.000  O
  O15      1.0000 0.42510  0.85939  0.62891  Biso   1.000  O
  O16      1.0000 0.57490  0.35939  0.87109  Biso   1.000  O
