data_image0
_cell_length_a       24.66
_cell_length_b       15.8459
_cell_length_c       7.7808
_cell_angle_alpha    90
_cell_angle_beta     95.485
_cell_angle_gamma    90

_symmetry_space_group_name_H-M    "P 1"
_symmetry_int_tables_number       1

loop_
  _symmetry_equiv_pos_as_xyz
  'x, y, z'

loop_
  _atom_site_label
  _atom_site_occupancy
  _atom_site_fract_x
  _atom_site_fract_y
  _atom_site_fract_z
  _atom_site_thermal_displace_type
  _atom_site_B_iso_or_equiv
  _atom_site_type_symbol
  Cu1      1.0000 0.28546  0.24900  0.13946  Biso   1.000  Cu
  Cu2      1.0000 0.71454  0.74900  0.36054  Biso   1.000  Cu
  Cu3      1.0000 0.71454  0.75100  0.86054  Biso   1.000  Cu
  Cu4      1.0000 0.28546  0.25100  0.63946  Biso   1.000  Cu
  N1       1.0000 0.28268  0.14600  0.30070  Biso   1.000  N
  N2       1.0000 0.71732  0.64600  0.19930  Biso   1.000  N
  N3       1.0000 0.71732  0.85400  0.69930  Biso   1.000  N
  N4       1.0000 0.28268  0.35400  0.80070  Biso   1.000  N
  N5       1.0000 0.28549  0.14680  0.47980  Biso   1.000  N
  N6       1.0000 0.71451  0.64680  0.02020  Biso   1.000  N
  N7       1.0000 0.71451  0.85320  0.52020  Biso   1.000  N
  N8       1.0000 0.28549  0.35320  0.97980  Biso   1.000  N
  N9       1.0000 0.27814  0.01660  0.39190  Biso   1.000  N
  N10      1.0000 0.72186  0.51660  0.10810  Biso   1.000  N
  N11      1.0000 0.72186  0.98340  0.60810  Biso   1.000  N
  N12      1.0000 0.27814  0.48340  0.89190  Biso   1.000  N
  N13      1.0000 0.22520  0.53660  0.32350  Biso   1.000  N
  N14      1.0000 0.77480  0.03660  0.17650  Biso   1.000  N
  N15      1.0000 0.77480  0.46340  0.67650  Biso   1.000  N
  N16      1.0000 0.22520  0.96340  0.82350  Biso   1.000  N
  N17      1.0000 0.27800  0.53010  0.39230  Biso   1.000  N
  N18      1.0000 0.72200  0.03010  0.10770  Biso   1.000  N
  N19      1.0000 0.72200  0.46990  0.60770  Biso   1.000  N
  N20      1.0000 0.27800  0.96990  0.89230  Biso   1.000  N
  N21      1.0000 0.25822  0.66400  0.37460  Biso   1.000  N
  N22      1.0000 0.74178  0.16400  0.12540  Biso   1.000  N
  N23      1.0000 0.74178  0.33600  0.62540  Biso   1.000  N
  N24      1.0000 0.25822  0.83600  0.87460  Biso   1.000  N
  N25      1.0000 0.22406  0.18910  0.92880  Biso   1.000  N
  N26      1.0000 0.77594  0.68910  0.57120  Biso   1.000  N
  N27      1.0000 0.77594  0.81090  0.07120  Biso   1.000  N
  N28      1.0000 0.22406  0.31090  0.42880  Biso   1.000  N
  N29      1.0000 0.22292  0.19930  0.75220  Biso   1.000  N
  N30      1.0000 0.77708  0.69930  0.74780  Biso   1.000  N
  N31      1.0000 0.77708  0.80070  0.24780  Biso   1.000  N
  N32      1.0000 0.22292  0.30070  0.25220  Biso   1.000  N
  N33      1.0000 0.14788  0.13670  0.80530  Biso   1.000  N
  N34      1.0000 0.85212  0.63670  0.69470  Biso   1.000  N
  N35      1.0000 0.85212  0.86330  0.19470  Biso   1.000  N
  N36      1.0000 0.14788  0.36330  0.30530  Biso   1.000  N
  N37      1.0000 0.86154  0.93730  0.66810  Biso   1.000  N
  N38      1.0000 0.13846  0.43730  0.83190  Biso   1.000  N
  N39      1.0000 0.13846  0.06270  0.33190  Biso   1.000  N
  N40      1.0000 0.86154  0.56270  0.16810  Biso   1.000  N
  N41      1.0000 0.88844  0.86290  0.70630  Biso   1.000  N
  N42      1.0000 0.11156  0.36290  0.79370  Biso   1.000  N
  N43      1.0000 0.11156  0.13710  0.29370  Biso   1.000  N
  N44      1.0000 0.88844  0.63710  0.20630  Biso   1.000  N
  N45      1.0000 0.94863  0.96490  0.71920  Biso   1.000  N
  N46      1.0000 0.05137  0.46490  0.78080  Biso   1.000  N
  N47      1.0000 0.05137  0.03510  0.28080  Biso   1.000  N
  N48      1.0000 0.94863  0.53510  0.21920  Biso   1.000  N
  N49      1.0000 0.34610  0.30850  0.34610  Biso   1.000  N
  N50      1.0000 0.65390  0.80850  0.15390  Biso   1.000  N
  N51      1.0000 0.65390  0.69150  0.65390  Biso   1.000  N
  N52      1.0000 0.34610  0.19150  0.84610  Biso   1.000  N
  N53      1.0000 0.34607  0.30540  0.52450  Biso   1.000  N
  N54      1.0000 0.65393  0.80540  0.97550  Biso   1.000  N
  N55      1.0000 0.65393  0.69460  0.47550  Biso   1.000  N
  N56      1.0000 0.34607  0.19460  0.02450  Biso   1.000  N
  N57      1.0000 0.41351  0.38550  0.46410  Biso   1.000  N
  N58      1.0000 0.58649  0.88550  0.03590  Biso   1.000  N
  N59      1.0000 0.58649  0.61450  0.53590  Biso   1.000  N
  N60      1.0000 0.41351  0.11450  0.96410  Biso   1.000  N
  C1       1.0000 0.27851  0.06730  0.25260  Biso   1.000  C
  C2       1.0000 0.72149  0.56730  0.24740  Biso   1.000  C
  C3       1.0000 0.72149  0.93270  0.74740  Biso   1.000  C
  C4       1.0000 0.27851  0.43270  0.75260  Biso   1.000  C
  H1       1.0000 0.27610  0.04860  0.13750  Biso   1.000  H
  H2       1.0000 0.72390  0.54860  0.36250  Biso   1.000  H
  H3       1.0000 0.72390  0.95140  0.86250  Biso   1.000  H
  H4       1.0000 0.27610  0.45140  0.63750  Biso   1.000  H
  C5       1.0000 0.28279  0.06930  0.52940  Biso   1.000  C
  C6       1.0000 0.71721  0.56930  0.97060  Biso   1.000  C
  C7       1.0000 0.71721  0.93070  0.47060  Biso   1.000  C
  C8       1.0000 0.28279  0.43070  0.02940  Biso   1.000  C
  H5       1.0000 0.28390  0.05190  0.64520  Biso   1.000  H
  H6       1.0000 0.71610  0.55190  0.85480  Biso   1.000  H
  H7       1.0000 0.71610  0.94810  0.35480  Biso   1.000  H
  H8       1.0000 0.28390  0.44810  0.14520  Biso   1.000  H
  C9       1.0000 0.21440  0.61790  0.31340  Biso   1.000  C
  C10      1.0000 0.78560  0.11790  0.18660  Biso   1.000  C
  C11      1.0000 0.78560  0.38210  0.68660  Biso   1.000  C
  C12      1.0000 0.21440  0.88210  0.81340  Biso   1.000  C
  H9       1.0000 0.18070  0.64090  0.26950  Biso   1.000  H
  H10      1.0000 0.81930  0.14090  0.23050  Biso   1.000  H
  H11      1.0000 0.81930  0.35910  0.73050  Biso   1.000  H
  H12      1.0000 0.18070  0.85910  0.76950  Biso   1.000  H
  C13      1.0000 0.29620  0.60650  0.42130  Biso   1.000  C
  C14      1.0000 0.70380  0.10650  0.07870  Biso   1.000  C
  C15      1.0000 0.70380  0.39350  0.57870  Biso   1.000  C
  C16      1.0000 0.29620  0.89350  0.92130  Biso   1.000  C
  H13      1.0000 0.33170  0.61940  0.46910  Biso   1.000  H
  H14      1.0000 0.66830  0.11940  0.03090  Biso   1.000  H
  H15      1.0000 0.66830  0.38060  0.53090  Biso   1.000  H
  H16      1.0000 0.33170  0.88060  0.96910  Biso   1.000  H
  C17      1.0000 0.27217  0.92650  0.39170  Biso   1.000  C
  C18      1.0000 0.72783  0.42650  0.10830  Biso   1.000  C
  C19      1.0000 0.72783  0.07350  0.60830  Biso   1.000  C
  C20      1.0000 0.27217  0.57350  0.89170  Biso   1.000  C
  C21      1.0000 0.31130  0.87820  0.48610  Biso   1.000  C
  C22      1.0000 0.68870  0.37820  0.01390  Biso   1.000  C
  C23      1.0000 0.68870  0.12180  0.51390  Biso   1.000  C
  C24      1.0000 0.31130  0.62180  0.98610  Biso   1.000  C
  H17      1.0000 0.34090  0.90400  0.55090  Biso   1.000  H
  H18      1.0000 0.65910  0.40400  0.94910  Biso   1.000  H
  H19      1.0000 0.65910  0.09600  0.44910  Biso   1.000  H
  H20      1.0000 0.34090  0.59600  0.05090  Biso   1.000  H
  C25      1.0000 0.30590  0.79040  0.48320  Biso   1.000  C
  C26      1.0000 0.69410  0.29040  0.01680  Biso   1.000  C
  C27      1.0000 0.69410  0.20960  0.51680  Biso   1.000  C
  C28      1.0000 0.30590  0.70960  0.98320  Biso   1.000  C
  H21      1.0000 0.33160  0.75610  0.54730  Biso   1.000  H
  H22      1.0000 0.66840  0.25610  0.95270  Biso   1.000  H
  H23      1.0000 0.66840  0.24390  0.45270  Biso   1.000  H
  H24      1.0000 0.33160  0.74390  0.04730  Biso   1.000  H
  C29      1.0000 0.26213  0.75480  0.38390  Biso   1.000  C
  C30      1.0000 0.73787  0.25480  0.11610  Biso   1.000  C
  C31      1.0000 0.73787  0.24520  0.61610  Biso   1.000  C
  C32      1.0000 0.26213  0.74520  0.88390  Biso   1.000  C
  C33      1.0000 0.22380  0.80320  0.29050  Biso   1.000  C
  C34      1.0000 0.77620  0.30320  0.20950  Biso   1.000  C
  C35      1.0000 0.77620  0.19680  0.70950  Biso   1.000  C
  C36      1.0000 0.22380  0.69680  0.79050  Biso   1.000  C
  H25      1.0000 0.19440  0.77770  0.22440  Biso   1.000  H
  H26      1.0000 0.80560  0.27770  0.27560  Biso   1.000  H
  H27      1.0000 0.80560  0.22230  0.77560  Biso   1.000  H
  H28      1.0000 0.19440  0.72230  0.72440  Biso   1.000  H
  C37      1.0000 0.22910  0.88980  0.29500  Biso   1.000  C
  C38      1.0000 0.77090  0.38980  0.20500  Biso   1.000  C
  C39      1.0000 0.77090  0.11020  0.70500  Biso   1.000  C
  C40      1.0000 0.22910  0.61020  0.79500  Biso   1.000  C
  H29      1.0000 0.20310  0.92380  0.23160  Biso   1.000  H
  H30      1.0000 0.79690  0.42380  0.26840  Biso   1.000  H
  H31      1.0000 0.79690  0.07620  0.76840  Biso   1.000  H
  H32      1.0000 0.20310  0.57620  0.73160  Biso   1.000  H
  C41      1.0000 0.17899  0.15090  0.95500  Biso   1.000  C
  C42      1.0000 0.82101  0.65090  0.54500  Biso   1.000  C
  C43      1.0000 0.82101  0.84910  0.04500  Biso   1.000  C
  C44      1.0000 0.17899  0.34910  0.45500  Biso   1.000  C
  H33      1.0000 0.16920  0.13520  0.06440  Biso   1.000  H
  H34      1.0000 0.83080  0.63520  0.43560  Biso   1.000  H
  H35      1.0000 0.83080  0.86480  0.93560  Biso   1.000  H
  H36      1.0000 0.16920  0.36480  0.56440  Biso   1.000  H
  C45      1.0000 0.17753  0.16770  0.68180  Biso   1.000  C
  C46      1.0000 0.82247  0.66770  0.81820  Biso   1.000  C
  C47      1.0000 0.82247  0.83230  0.31820  Biso   1.000  C
  C48      1.0000 0.17753  0.33230  0.18180  Biso   1.000  C
  H37      1.0000 0.16680  0.16660  0.56260  Biso   1.000  H
  H38      1.0000 0.83320  0.66660  0.93740  Biso   1.000  H
  H39      1.0000 0.83320  0.83340  0.43740  Biso   1.000  H
  H40      1.0000 0.16680  0.33340  0.06260  Biso   1.000  H
  C49      1.0000 0.89840  0.99690  0.67430  Biso   1.000  C
  C50      1.0000 0.10160  0.49690  0.82570  Biso   1.000  C
  C51      1.0000 0.10160  0.00310  0.32570  Biso   1.000  C
  C52      1.0000 0.89840  0.50310  0.17430  Biso   1.000  C
  H41      1.0000 0.89090  0.05410  0.65080  Biso   1.000  H
  H42      1.0000 0.10910  0.55410  0.84920  Biso   1.000  H
  H43      1.0000 0.10910  0.94590  0.34920  Biso   1.000  H
  H44      1.0000 0.89090  0.44590  0.15080  Biso   1.000  H
  C53      1.0000 0.94090  0.88070  0.73570  Biso   1.000  C
  C54      1.0000 0.05910  0.38070  0.76430  Biso   1.000  C
  C55      1.0000 0.05910  0.11930  0.26430  Biso   1.000  C
  C56      1.0000 0.94090  0.61930  0.23570  Biso   1.000  C
  H45      1.0000 0.96860  0.84090  0.76380  Biso   1.000  H
  H46      1.0000 0.03140  0.34090  0.73620  Biso   1.000  H
  H47      1.0000 0.03140  0.15910  0.23620  Biso   1.000  H
  H48      1.0000 0.96860  0.65910  0.26380  Biso   1.000  H
  C57      1.0000 0.09633  0.09330  0.78380  Biso   1.000  C
  C58      1.0000 0.90367  0.59330  0.71620  Biso   1.000  C
  C59      1.0000 0.90367  0.90670  0.21620  Biso   1.000  C
  C60      1.0000 0.09633  0.40670  0.28380  Biso   1.000  C
  C61      1.0000 0.09251  0.01470  0.85750  Biso   1.000  C
  C62      1.0000 0.90749  0.51470  0.64250  Biso   1.000  C
  C63      1.0000 0.90749  0.98530  0.14250  Biso   1.000  C
  C64      1.0000 0.09251  0.48530  0.35750  Biso   1.000  C
  H49      1.0000 0.12290  0.99030  0.92090  Biso   1.000  H
  H50      1.0000 0.87710  0.49030  0.57910  Biso   1.000  H
  H51      1.0000 0.87710  0.00970  0.07910  Biso   1.000  H
  H52      1.0000 0.12290  0.50970  0.42090  Biso   1.000  H
  C65      1.0000 0.04340  0.97230  0.83700  Biso   1.000  C
  C66      1.0000 0.95660  0.47230  0.66300  Biso   1.000  C
  C67      1.0000 0.95660  0.02770  0.16300  Biso   1.000  C
  C68      1.0000 0.04340  0.52770  0.33700  Biso   1.000  C
  H53      1.0000 0.03990  0.91900  0.88760  Biso   1.000  H
  H54      1.0000 0.96010  0.41900  0.61240  Biso   1.000  H
  H55      1.0000 0.96010  0.08100  0.11240  Biso   1.000  H
  H56      1.0000 0.03990  0.58100  0.38760  Biso   1.000  H
  C69      1.0000 0.99940  0.00900  0.74110  Biso   1.000  C
  C70      1.0000 0.00060  0.50900  0.75890  Biso   1.000  C
  C71      1.0000 0.00060  0.99100  0.25890  Biso   1.000  C
  C72      1.0000 0.99940  0.49100  0.24110  Biso   1.000  C
  C73      1.0000 0.00320  0.08830  0.66770  Biso   1.000  C
  C74      1.0000 0.99680  0.58830  0.83230  Biso   1.000  C
  C75      1.0000 0.99680  0.91170  0.33230  Biso   1.000  C
  C76      1.0000 0.00320  0.41170  0.16770  Biso   1.000  C
  H57      1.0000 0.97290  0.11260  0.60350  Biso   1.000  H
  H58      1.0000 0.02710  0.61260  0.89650  Biso   1.000  H
  H59      1.0000 0.02710  0.88740  0.39650  Biso   1.000  H
  H60      1.0000 0.97290  0.38740  0.10350  Biso   1.000  H
  C77      1.0000 0.05194  0.13100  0.69060  Biso   1.000  C
  C78      1.0000 0.94806  0.63100  0.80940  Biso   1.000  C
  C79      1.0000 0.94806  0.86900  0.30940  Biso   1.000  C
  C80      1.0000 0.05194  0.36900  0.19060  Biso   1.000  C
  H61      1.0000 0.05520  0.18520  0.64340  Biso   1.000  H
  H62      1.0000 0.94480  0.68520  0.85660  Biso   1.000  H
  H63      1.0000 0.94480  0.81480  0.35660  Biso   1.000  H
  H64      1.0000 0.05520  0.31480  0.14340  Biso   1.000  H
  C81      1.0000 0.38678  0.35700  0.31400  Biso   1.000  C
  C82      1.0000 0.61322  0.85700  0.18600  Biso   1.000  C
  C83      1.0000 0.61322  0.64300  0.68600  Biso   1.000  C
  C84      1.0000 0.38678  0.14300  0.81400  Biso   1.000  C
  H65      1.0000 0.39630  0.37040  0.20310  Biso   1.000  H
  H66      1.0000 0.60370  0.87040  0.29690  Biso   1.000  H
  H67      1.0000 0.60370  0.62960  0.79690  Biso   1.000  H
  H68      1.0000 0.39630  0.12960  0.70310  Biso   1.000  H
  C85      1.0000 0.38616  0.35120  0.59090  Biso   1.000  C
  C86      1.0000 0.61384  0.85120  0.90910  Biso   1.000  C
  C87      1.0000 0.61384  0.64880  0.40910  Biso   1.000  C
  C88      1.0000 0.38616  0.14880  0.09090  Biso   1.000  C
  H69      1.0000 0.39510  0.35960  0.70980  Biso   1.000  H
  H70      1.0000 0.60490  0.85960  0.79020  Biso   1.000  H
  H71      1.0000 0.60490  0.64040  0.29020  Biso   1.000  H
  H72      1.0000 0.39510  0.14040  0.20980  Biso   1.000  H
  C89      1.0000 0.50011  0.42980  0.61160  Biso   1.000  C
  C90      1.0000 0.49989  0.92980  0.88840  Biso   1.000  C
  C91      1.0000 0.49989  0.57020  0.38840  Biso   1.000  C
  C92      1.0000 0.50011  0.07020  0.11160  Biso   1.000  C
  H73      1.0000 0.50030  0.38250  0.68470  Biso   1.000  H
  H74      1.0000 0.49970  0.88250  0.81530  Biso   1.000  H
  H75      1.0000 0.49970  0.61750  0.31530  Biso   1.000  H
  H76      1.0000 0.50030  0.11750  0.18470  Biso   1.000  H
  C93      1.0000 0.45802  0.44290  0.48240  Biso   1.000  C
  C94      1.0000 0.54198  0.94290  0.01760  Biso   1.000  C
  C95      1.0000 0.54198  0.55710  0.51760  Biso   1.000  C
  C96      1.0000 0.45802  0.05710  0.98240  Biso   1.000  C
  C97      1.0000 0.45830  0.51140  0.37110  Biso   1.000  C
  C98      1.0000 0.54170  0.01140  0.12890  Biso   1.000  C
  C99      1.0000 0.54170  0.48860  0.62890  Biso   1.000  C
  C100     1.0000 0.45830  0.98860  0.87110  Biso   1.000  C
  H77      1.0000 0.42980  0.51790  0.28280  Biso   1.000  H
  H78      1.0000 0.57020  0.01790  0.21720  Biso   1.000  H
  H79      1.0000 0.57020  0.48210  0.71720  Biso   1.000  H
  H80      1.0000 0.42980  0.98210  0.78280  Biso   1.000  H
  N61      1.0000 0.08370  0.76460  0.04450  Biso   1.000  N
  N62      1.0000 0.91630  0.26460  0.45550  Biso   1.000  N
  N63      1.0000 0.91630  0.23540  0.95550  Biso   1.000  N
  N64      1.0000 0.08370  0.73540  0.54450  Biso   1.000  N
  O1       1.0000 0.03380  0.76930  0.00140  Biso   1.000  O
  O2       1.0000 0.96620  0.26930  0.49860  Biso   1.000  O
  O3       1.0000 0.96620  0.23070  0.99860  Biso   1.000  O
  O4       1.0000 0.03380  0.73070  0.50140  Biso   1.000  O
  O5       1.0000 0.10650  0.69490  0.06520  Biso   1.000  O
  O6       1.0000 0.89350  0.19490  0.43480  Biso   1.000  O
  O7       1.0000 0.89350  0.30510  0.93480  Biso   1.000  O
  O8       1.0000 0.10650  0.80510  0.56520  Biso   1.000  O
  O9       1.0000 0.11070  0.83160  0.06930  Biso   1.000  O
  O10      1.0000 0.88930  0.33160  0.43070  Biso   1.000  O
  O11      1.0000 0.88930  0.16840  0.93070  Biso   1.000  O
  O12      1.0000 0.11070  0.66840  0.56930  Biso   1.000  O
  N65      1.0000 0.41080  0.90540  0.25560  Biso   1.000  N
  N66      1.0000 0.58920  0.40540  0.24440  Biso   1.000  N
  N67      1.0000 0.58920  0.09460  0.74440  Biso   1.000  N
  N68      1.0000 0.41080  0.59460  0.75560  Biso   1.000  N
  O13      1.0000 0.38060  0.96250  0.20440  Biso   1.000  O
  O14      1.0000 0.61940  0.46250  0.29560  Biso   1.000  O
  O15      1.0000 0.61940  0.03750  0.79560  Biso   1.000  O
  O16      1.0000 0.38060  0.53750  0.70440  Biso   1.000  O
  O17      1.0000 0.44370  0.91460  0.40220  Biso   1.000  O
  O18      1.0000 0.55630  0.41460  0.09780  Biso   1.000  O
  O19      1.0000 0.55630  0.08540  0.59780  Biso   1.000  O
  O20      1.0000 0.44370  0.58540  0.90220  Biso   1.000  O
  O21      1.0000 0.40970  0.83940  0.18050  Biso   1.000  O
  O22      1.0000 0.59030  0.33940  0.31950  Biso   1.000  O
  O23      1.0000 0.59030  0.16060  0.81950  Biso   1.000  O
  O24      1.0000 0.40970  0.66060  0.68050  Biso   1.000  O
  O25      1.0000 0.42890  0.40640  0.96960  Biso   1.000  O
  O26      1.0000 0.57110  0.90640  0.53040  Biso   1.000  O
  O27      1.0000 0.57110  0.59360  0.03040  Biso   1.000  O
  O28      1.0000 0.42890  0.09360  0.46960  Biso   1.000  O
  O29      1.0000 0.41300  0.44630  0.95080  Biso   1.000  O
  O30      1.0000 0.58700  0.94630  0.54920  Biso   1.000  O
  O31      1.0000 0.58700  0.55370  0.04920  Biso   1.000  O
  O32      1.0000 0.41300  0.05370  0.45080  Biso   1.000  O
