data_image0
_cell_length_a       16.0657
_cell_length_b       16.0657
_cell_length_c       7.772
_cell_angle_alpha    90
_cell_angle_beta     90
_cell_angle_gamma    120

_symmetry_space_group_name_H-M    "P 1"
_symmetry_int_tables_number       1

loop_
  _symmetry_equiv_pos_as_xyz
  'x, y, z'

loop_
  _atom_site_label
  _atom_site_occupancy
  _atom_site_fract_x
  _atom_site_fract_y
  _atom_site_fract_z
  _atom_site_thermal_displace_type
  _atom_site_B_iso_or_equiv
  _atom_site_type_symbol
  Cu1      1.0000 0.00000  0.00000  0.00000  Biso   1.000  Cu
  Cu2      1.0000 0.00000  0.00000  0.50000  Biso   1.000  Cu
  N1       1.0000 0.00000  0.10646  0.16250  Biso   1.000  N
  N2       1.0000 0.89354  0.89354  0.16250  Biso   1.000  N
  N3       1.0000 0.10646  0.00000  0.16250  Biso   1.000  N
  N4       1.0000 0.10646  0.10646  0.66250  Biso   1.000  N
  N5       1.0000 0.89354  0.00000  0.66250  Biso   1.000  N
  N6       1.0000 0.10646  0.00000  0.33750  Biso   1.000  N
  N7       1.0000 0.10646  0.10646  0.83750  Biso   1.000  N
  N8       1.0000 0.00000  0.89354  0.83750  Biso   1.000  N
  N9       1.0000 0.00000  0.89354  0.66250  Biso   1.000  N
  N10      1.0000 0.89354  0.89354  0.33750  Biso   1.000  N
  N11      1.0000 0.00000  0.10646  0.33750  Biso   1.000  N
  N12      1.0000 0.89354  0.00000  0.83750  Biso   1.000  N
  N13      1.0000 0.00000  0.23390  0.25000  Biso   1.000  N
  N14      1.0000 0.76610  0.76610  0.25000  Biso   1.000  N
  N15      1.0000 0.23390  0.00000  0.25000  Biso   1.000  N
  N16      1.0000 0.23390  0.23390  0.75000  Biso   1.000  N
  N17      1.0000 0.76610  0.00000  0.75000  Biso   1.000  N
  N18      1.0000 0.00000  0.76610  0.75000  Biso   1.000  N
  N19      1.0000 0.00000  0.58290  0.25000  Biso   1.000  N
  N20      1.0000 0.41710  0.41710  0.25000  Biso   1.000  N
  N21      1.0000 0.58290  0.00000  0.25000  Biso   1.000  N
  N22      1.0000 0.58290  0.58290  0.75000  Biso   1.000  N
  N23      1.0000 0.41710  0.00000  0.75000  Biso   1.000  N
  N24      1.0000 0.00000  0.41710  0.75000  Biso   1.000  N
  N25      1.0000 0.95110  0.68830  0.25000  Biso   1.000  N
  N26      1.0000 0.31170  0.26280  0.25000  Biso   1.000  N
  N27      1.0000 0.73720  0.04890  0.25000  Biso   1.000  N
  N28      1.0000 0.68830  0.73720  0.75000  Biso   1.000  N
  N29      1.0000 0.26280  0.95110  0.75000  Biso   1.000  N
  N30      1.0000 0.68830  0.95110  0.25000  Biso   1.000  N
  N31      1.0000 0.73720  0.68830  0.75000  Biso   1.000  N
  N32      1.0000 0.95110  0.26280  0.75000  Biso   1.000  N
  N33      1.0000 0.04890  0.31170  0.75000  Biso   1.000  N
  N34      1.0000 0.26280  0.31170  0.25000  Biso   1.000  N
  N35      1.0000 0.04890  0.73720  0.25000  Biso   1.000  N
  N36      1.0000 0.31170  0.04890  0.75000  Biso   1.000  N
  C1       1.0000 0.00000  0.18370  0.11200  Biso   1.000  C
  C2       1.0000 0.81630  0.81630  0.11200  Biso   1.000  C
  C3       1.0000 0.18370  0.00000  0.11200  Biso   1.000  C
  C4       1.0000 0.18370  0.18370  0.61200  Biso   1.000  C
  C5       1.0000 0.81630  0.00000  0.61200  Biso   1.000  C
  C6       1.0000 0.18370  0.00000  0.38800  Biso   1.000  C
  C7       1.0000 0.18370  0.18370  0.88800  Biso   1.000  C
  C8       1.0000 0.00000  0.81630  0.88800  Biso   1.000  C
  C9       1.0000 0.00000  0.81630  0.61200  Biso   1.000  C
  C10      1.0000 0.81630  0.81630  0.38800  Biso   1.000  C
  C11      1.0000 0.00000  0.18370  0.38800  Biso   1.000  C
  C12      1.0000 0.81630  0.00000  0.88800  Biso   1.000  C
  H1       1.0000 0.00000  0.20160  0.99680  Biso   1.000  H
  H2       1.0000 0.79840  0.79840  0.99680  Biso   1.000  H
  H3       1.0000 0.20160  0.00000  0.99680  Biso   1.000  H
  H4       1.0000 0.20160  0.20160  0.49680  Biso   1.000  H
  H5       1.0000 0.79840  0.00000  0.49680  Biso   1.000  H
  H6       1.0000 0.20160  0.00000  0.50320  Biso   1.000  H
  H7       1.0000 0.20160  0.20160  0.00320  Biso   1.000  H
  H8       1.0000 0.00000  0.79840  0.00320  Biso   1.000  H
  H9       1.0000 0.00000  0.79840  0.49680  Biso   1.000  H
  H10      1.0000 0.79840  0.79840  0.50320  Biso   1.000  H
  H11      1.0000 0.00000  0.20160  0.50320  Biso   1.000  H
  H12      1.0000 0.79840  0.00000  0.00320  Biso   1.000  H
  C13      1.0000 0.00000  0.32290  0.25000  Biso   1.000  C
  C14      1.0000 0.67710  0.67710  0.25000  Biso   1.000  C
  C15      1.0000 0.32290  0.00000  0.25000  Biso   1.000  C
  C16      1.0000 0.32290  0.32290  0.75000  Biso   1.000  C
  C17      1.0000 0.67710  0.00000  0.75000  Biso   1.000  C
  C18      1.0000 0.00000  0.67710  0.75000  Biso   1.000  C
  C19      1.0000 0.07680  0.40440  0.17980  Biso   1.000  C
  C20      1.0000 0.59560  0.67240  0.17980  Biso   1.000  C
  C21      1.0000 0.32760  0.92320  0.17980  Biso   1.000  C
  C22      1.0000 0.40440  0.32760  0.67980  Biso   1.000  C
  C23      1.0000 0.67240  0.07680  0.67980  Biso   1.000  C
  C24      1.0000 0.40440  0.07680  0.32020  Biso   1.000  C
  C25      1.0000 0.32760  0.40440  0.82020  Biso   1.000  C
  C26      1.0000 0.07680  0.67240  0.82020  Biso   1.000  C
  C27      1.0000 0.92320  0.59560  0.67980  Biso   1.000  C
  C28      1.0000 0.67240  0.59560  0.32020  Biso   1.000  C
  C29      1.0000 0.92320  0.32760  0.32020  Biso   1.000  C
  C30      1.0000 0.59560  0.92320  0.82020  Biso   1.000  C
  C31      1.0000 0.92320  0.59560  0.82020  Biso   1.000  C
  C32      1.0000 0.40440  0.32760  0.82020  Biso   1.000  C
  C33      1.0000 0.67240  0.07680  0.82020  Biso   1.000  C
  C34      1.0000 0.59560  0.67240  0.32020  Biso   1.000  C
  C35      1.0000 0.32760  0.92320  0.32020  Biso   1.000  C
  C36      1.0000 0.59560  0.92320  0.67980  Biso   1.000  C
  C37      1.0000 0.67240  0.59560  0.17980  Biso   1.000  C
  C38      1.0000 0.92320  0.32760  0.17980  Biso   1.000  C
  C39      1.0000 0.07680  0.40440  0.32020  Biso   1.000  C
  C40      1.0000 0.32760  0.40440  0.67980  Biso   1.000  C
  C41      1.0000 0.07680  0.67240  0.67980  Biso   1.000  C
  C42      1.0000 0.40440  0.07680  0.17980  Biso   1.000  C
  H13      1.0000 0.13020  0.40010  0.12940  Biso   1.000  H
  H14      1.0000 0.59990  0.73010  0.12940  Biso   1.000  H
  H15      1.0000 0.26990  0.86980  0.12940  Biso   1.000  H
  H16      1.0000 0.40010  0.26990  0.62940  Biso   1.000  H
  H17      1.0000 0.73010  0.13020  0.62940  Biso   1.000  H
  H18      1.0000 0.40010  0.13020  0.37060  Biso   1.000  H
  H19      1.0000 0.26990  0.40010  0.87060  Biso   1.000  H
  H20      1.0000 0.13020  0.73010  0.87060  Biso   1.000  H
  H21      1.0000 0.86980  0.59990  0.62940  Biso   1.000  H
  H22      1.0000 0.73010  0.59990  0.37060  Biso   1.000  H
  H23      1.0000 0.86980  0.26990  0.37060  Biso   1.000  H
  H24      1.0000 0.59990  0.86980  0.87060  Biso   1.000  H
  H25      1.0000 0.86980  0.59990  0.87060  Biso   1.000  H
  H26      1.0000 0.40010  0.26990  0.87060  Biso   1.000  H
  H27      1.0000 0.73010  0.13020  0.87060  Biso   1.000  H
  H28      1.0000 0.59990  0.73010  0.37060  Biso   1.000  H
  H29      1.0000 0.26990  0.86980  0.37060  Biso   1.000  H
  H30      1.0000 0.59990  0.86980  0.62940  Biso   1.000  H
  H31      1.0000 0.73010  0.59990  0.12940  Biso   1.000  H
  H32      1.0000 0.86980  0.26990  0.12940  Biso   1.000  H
  H33      1.0000 0.13020  0.40010  0.37060  Biso   1.000  H
  H34      1.0000 0.26990  0.40010  0.62940  Biso   1.000  H
  H35      1.0000 0.13020  0.73010  0.62940  Biso   1.000  H
  H36      1.0000 0.40010  0.13020  0.12940  Biso   1.000  H
  C43      1.0000 0.07730  0.49040  0.18360  Biso   1.000  C
  C44      1.0000 0.50960  0.58690  0.18360  Biso   1.000  C
  C45      1.0000 0.41310  0.92270  0.18360  Biso   1.000  C
  C46      1.0000 0.49040  0.41310  0.68360  Biso   1.000  C
  C47      1.0000 0.58690  0.07730  0.68360  Biso   1.000  C
  C48      1.0000 0.49040  0.07730  0.31640  Biso   1.000  C
  C49      1.0000 0.41310  0.49040  0.81640  Biso   1.000  C
  C50      1.0000 0.07730  0.58690  0.81640  Biso   1.000  C
  C51      1.0000 0.92270  0.50960  0.68360  Biso   1.000  C
  C52      1.0000 0.58690  0.50960  0.31640  Biso   1.000  C
  C53      1.0000 0.92270  0.41310  0.31640  Biso   1.000  C
  C54      1.0000 0.50960  0.92270  0.81640  Biso   1.000  C
  C55      1.0000 0.92270  0.50960  0.81640  Biso   1.000  C
  C56      1.0000 0.49040  0.41310  0.81640  Biso   1.000  C
  C57      1.0000 0.58690  0.07730  0.81640  Biso   1.000  C
  C58      1.0000 0.50960  0.58690  0.31640  Biso   1.000  C
  C59      1.0000 0.41310  0.92270  0.31640  Biso   1.000  C
  C60      1.0000 0.50960  0.92270  0.68360  Biso   1.000  C
  C61      1.0000 0.58690  0.50960  0.18360  Biso   1.000  C
  C62      1.0000 0.92270  0.41310  0.18360  Biso   1.000  C
  C63      1.0000 0.07730  0.49040  0.31640  Biso   1.000  C
  C64      1.0000 0.41310  0.49040  0.68360  Biso   1.000  C
  C65      1.0000 0.07730  0.58690  0.68360  Biso   1.000  C
  C66      1.0000 0.49040  0.07730  0.18360  Biso   1.000  C
  H37      1.0000 0.12890  0.54900  0.13770  Biso   1.000  H
  H38      1.0000 0.45100  0.57990  0.13770  Biso   1.000  H
  H39      1.0000 0.42010  0.87110  0.13770  Biso   1.000  H
  H40      1.0000 0.54900  0.42010  0.63770  Biso   1.000  H
  H41      1.0000 0.57990  0.12890  0.63770  Biso   1.000  H
  H42      1.0000 0.54900  0.12890  0.36230  Biso   1.000  H
  H43      1.0000 0.42010  0.54900  0.86230  Biso   1.000  H
  H44      1.0000 0.12890  0.57990  0.86230  Biso   1.000  H
  H45      1.0000 0.87110  0.45100  0.63770  Biso   1.000  H
  H46      1.0000 0.57990  0.45100  0.36230  Biso   1.000  H
  H47      1.0000 0.87110  0.42010  0.36230  Biso   1.000  H
  H48      1.0000 0.45100  0.87110  0.86230  Biso   1.000  H
  H49      1.0000 0.87110  0.45100  0.86230  Biso   1.000  H
  H50      1.0000 0.54900  0.42010  0.86230  Biso   1.000  H
  H51      1.0000 0.57990  0.12890  0.86230  Biso   1.000  H
  H52      1.0000 0.45100  0.57990  0.36230  Biso   1.000  H
  H53      1.0000 0.42010  0.87110  0.36230  Biso   1.000  H
  H54      1.0000 0.45100  0.87110  0.63770  Biso   1.000  H
  H55      1.0000 0.57990  0.45100  0.13770  Biso   1.000  H
  H56      1.0000 0.87110  0.42010  0.13770  Biso   1.000  H
  H57      1.0000 0.12890  0.54900  0.36230  Biso   1.000  H
  H58      1.0000 0.42010  0.54900  0.63770  Biso   1.000  H
  H59      1.0000 0.12890  0.57990  0.63770  Biso   1.000  H
  H60      1.0000 0.54900  0.12890  0.13770  Biso   1.000  H
  C67      1.0000 0.00000  0.49240  0.25000  Biso   1.000  C
  C68      1.0000 0.50760  0.50760  0.25000  Biso   1.000  C
  C69      1.0000 0.49240  0.00000  0.25000  Biso   1.000  C
  C70      1.0000 0.49240  0.49240  0.75000  Biso   1.000  C
  C71      1.0000 0.50760  0.00000  0.75000  Biso   1.000  C
  C72      1.0000 0.00000  0.50760  0.75000  Biso   1.000  C
  C73      1.0000 0.92560  0.59870  0.25000  Biso   1.000  C
  C74      1.0000 0.40130  0.32690  0.25000  Biso   1.000  C
  C75      1.0000 0.67310  0.07440  0.25000  Biso   1.000  C
  C76      1.0000 0.59870  0.67310  0.75000  Biso   1.000  C
  C77      1.0000 0.32690  0.92560  0.75000  Biso   1.000  C
  C78      1.0000 0.59870  0.92560  0.25000  Biso   1.000  C
  C79      1.0000 0.67310  0.59870  0.75000  Biso   1.000  C
  C80      1.0000 0.92560  0.32690  0.75000  Biso   1.000  C
  C81      1.0000 0.07440  0.40130  0.75000  Biso   1.000  C
  C82      1.0000 0.32690  0.40130  0.25000  Biso   1.000  C
  C83      1.0000 0.07440  0.67310  0.25000  Biso   1.000  C
  C84      1.0000 0.40130  0.07440  0.75000  Biso   1.000  C
  H61      1.0000 0.86100  0.54910  0.25000  Biso   1.000  H
  H62      1.0000 0.45090  0.31190  0.25000  Biso   1.000  H
  H63      1.0000 0.68810  0.13900  0.25000  Biso   1.000  H
  H64      1.0000 0.54910  0.68810  0.75000  Biso   1.000  H
  H65      1.0000 0.31190  0.86100  0.75000  Biso   1.000  H
  H66      1.0000 0.54910  0.86100  0.25000  Biso   1.000  H
  H67      1.0000 0.68810  0.54910  0.75000  Biso   1.000  H
  H68      1.0000 0.86100  0.31190  0.75000  Biso   1.000  H
  H69      1.0000 0.13900  0.45090  0.75000  Biso   1.000  H
  H70      1.0000 0.31190  0.45090  0.25000  Biso   1.000  H
  H71      1.0000 0.13900  0.68810  0.25000  Biso   1.000  H
  H72      1.0000 0.45090  0.13900  0.75000  Biso   1.000  H
  P1       1.0000 0.33330  0.66670  0.06270  Biso   1.000  P
  P2       1.0000 0.66670  0.33340  0.56270  Biso   1.000  P
  P3       1.0000 0.66670  0.33330  0.43730  Biso   1.000  P
  P4       1.0000 0.33340  0.66670  0.93730  Biso   1.000  P
  P5       1.0000 0.66670  0.33330  0.93730  Biso   1.000  P
  P6       1.0000 0.33330  0.66660  0.43730  Biso   1.000  P
  P7       1.0000 0.33330  0.66670  0.56270  Biso   1.000  P
  P8       1.0000 0.66660  0.33330  0.06270  Biso   1.000  P
  O1       1.0000 0.28500  0.57000  0.00000  Biso   1.000  O
  O2       1.0000 0.43000  0.71500  0.00000  Biso   1.000  O
  O3       1.0000 0.28500  0.71500  0.00000  Biso   1.000  O
  O4       1.0000 0.57000  0.28500  0.50000  Biso   1.000  O
  O5       1.0000 0.71500  0.28500  0.50000  Biso   1.000  O
  O6       1.0000 0.71500  0.43000  0.50000  Biso   1.000  O
  O7       1.0000 0.71500  0.43000  0.00000  Biso   1.000  O
  O8       1.0000 0.57000  0.28500  0.00000  Biso   1.000  O
  O9       1.0000 0.71500  0.28500  0.00000  Biso   1.000  O
  O10      1.0000 0.43000  0.71500  0.50000  Biso   1.000  O
  O11      1.0000 0.28500  0.71500  0.50000  Biso   1.000  O
  O12      1.0000 0.28500  0.57000  0.50000  Biso   1.000  O
  O13      1.0000 0.33330  0.66670  0.25000  Biso   1.000  O
  O14      1.0000 0.66670  0.33340  0.75000  Biso   1.000  O
  O15      1.0000 0.66670  0.33330  0.25000  Biso   1.000  O
  O16      1.0000 0.33340  0.66670  0.75000  Biso   1.000  O
