data_image0
_cell_length_a       28.331
_cell_length_b       16.147
_cell_length_c       7.176
_cell_angle_alpha    90
_cell_angle_beta     90
_cell_angle_gamma    90

_symmetry_space_group_name_H-M    "P 1"
_symmetry_int_tables_number       1

loop_
  _symmetry_equiv_pos_as_xyz
  'x, y, z'

loop_
  _atom_site_label
  _atom_site_occupancy
  _atom_site_fract_x
  _atom_site_fract_y
  _atom_site_fract_z
  _atom_site_thermal_displace_type
  _atom_site_B_iso_or_equiv
  _atom_site_type_symbol
  Cu1      1.0000 0.00000  0.00000  0.50000  Biso   1.000  Cu
  Cu2      1.0000 0.50000  0.50000  0.50000  Biso   1.000  Cu
  Cu3      1.0000 0.00000  0.00000  0.00000  Biso   1.000  Cu
  Cu4      1.0000 0.50000  0.50000  0.00000  Biso   1.000  Cu
  Cl1      1.0000 0.00000  0.12312  0.25000  Biso   1.000  Cl
  Cl2      1.0000 0.50000  0.62312  0.25000  Biso   1.000  Cl
  Cl3      1.0000 0.00000  0.87688  0.75000  Biso   1.000  Cl
  Cl4      1.0000 0.50000  0.37688  0.75000  Biso   1.000  Cl
  N1       1.0000 0.04992  0.05646  0.65440  Biso   1.000  N
  N2       1.0000 0.54992  0.55646  0.65440  Biso   1.000  N
  N3       1.0000 0.95008  0.94354  0.15440  Biso   1.000  N
  N4       1.0000 0.95008  0.05646  0.84560  Biso   1.000  N
  N5       1.0000 0.04992  0.94354  0.34560  Biso   1.000  N
  N6       1.0000 0.45008  0.44354  0.15440  Biso   1.000  N
  N7       1.0000 0.45008  0.55646  0.84560  Biso   1.000  N
  N8       1.0000 0.54992  0.44354  0.34560  Biso   1.000  N
  N9       1.0000 0.95008  0.94354  0.34560  Biso   1.000  N
  N10      1.0000 0.45008  0.44354  0.34560  Biso   1.000  N
  N11      1.0000 0.04992  0.05646  0.84560  Biso   1.000  N
  N12      1.0000 0.04992  0.94354  0.15440  Biso   1.000  N
  N13      1.0000 0.95008  0.05646  0.65440  Biso   1.000  N
  N14      1.0000 0.54992  0.55646  0.84560  Biso   1.000  N
  N15      1.0000 0.54992  0.44354  0.15440  Biso   1.000  N
  N16      1.0000 0.45008  0.55646  0.65440  Biso   1.000  N
  N17      1.0000 0.10990  0.12802  0.75000  Biso   1.000  N
  N18      1.0000 0.60990  0.62802  0.75000  Biso   1.000  N
  N19      1.0000 0.89010  0.87198  0.25000  Biso   1.000  N
  N20      1.0000 0.89010  0.12802  0.75000  Biso   1.000  N
  N21      1.0000 0.10990  0.87198  0.25000  Biso   1.000  N
  N22      1.0000 0.39010  0.37198  0.25000  Biso   1.000  N
  N23      1.0000 0.39010  0.62802  0.75000  Biso   1.000  N
  N24      1.0000 0.60990  0.37198  0.25000  Biso   1.000  N
  N25      1.0000 0.32434  0.42570  0.78450  Biso   1.000  N
  N26      1.0000 0.82434  0.92570  0.78450  Biso   1.000  N
  N27      1.0000 0.67566  0.57430  0.28450  Biso   1.000  N
  N28      1.0000 0.67566  0.42570  0.71550  Biso   1.000  N
  N29      1.0000 0.32434  0.57430  0.21550  Biso   1.000  N
  N30      1.0000 0.17566  0.07430  0.28450  Biso   1.000  N
  N31      1.0000 0.17566  0.92570  0.71550  Biso   1.000  N
  N32      1.0000 0.82434  0.07430  0.21550  Biso   1.000  N
  N33      1.0000 0.67566  0.57430  0.21550  Biso   1.000  N
  N34      1.0000 0.17566  0.07430  0.21550  Biso   1.000  N
  N35      1.0000 0.32434  0.42570  0.71550  Biso   1.000  N
  N36      1.0000 0.32434  0.57430  0.28450  Biso   1.000  N
  N37      1.0000 0.67566  0.42570  0.78450  Biso   1.000  N
  N38      1.0000 0.82434  0.92570  0.71550  Biso   1.000  N
  N39      1.0000 0.82434  0.07430  0.28450  Biso   1.000  N
  N40      1.0000 0.17566  0.92570  0.78450  Biso   1.000  N
  N41      1.0000 0.34999  0.35560  0.75000  Biso   1.000  N
  N42      1.0000 0.84999  0.85560  0.75000  Biso   1.000  N
  N43      1.0000 0.65001  0.64440  0.25000  Biso   1.000  N
  N44      1.0000 0.65001  0.35560  0.75000  Biso   1.000  N
  N45      1.0000 0.34999  0.64440  0.25000  Biso   1.000  N
  N46      1.0000 0.15001  0.14440  0.25000  Biso   1.000  N
  N47      1.0000 0.15001  0.85560  0.75000  Biso   1.000  N
  N48      1.0000 0.84999  0.14440  0.25000  Biso   1.000  N
  N49      1.0000 0.27609  0.31863  0.75000  Biso   1.000  N
  N50      1.0000 0.77609  0.81863  0.75000  Biso   1.000  N
  N51      1.0000 0.72391  0.68137  0.25000  Biso   1.000  N
  N52      1.0000 0.72391  0.31863  0.75000  Biso   1.000  N
  N53      1.0000 0.27609  0.68137  0.25000  Biso   1.000  N
  N54      1.0000 0.22391  0.18137  0.25000  Biso   1.000  N
  N55      1.0000 0.22391  0.81863  0.75000  Biso   1.000  N
  N56      1.0000 0.77609  0.18137  0.25000  Biso   1.000  N
  C1       1.0000 0.08604  0.10004  0.59940  Biso   1.000  C
  C2       1.0000 0.58604  0.60004  0.59940  Biso   1.000  C
  C3       1.0000 0.91396  0.89996  0.09940  Biso   1.000  C
  C4       1.0000 0.91396  0.10004  0.90060  Biso   1.000  C
  C5       1.0000 0.08604  0.89996  0.40060  Biso   1.000  C
  C6       1.0000 0.41396  0.39996  0.09940  Biso   1.000  C
  C7       1.0000 0.41396  0.60004  0.90060  Biso   1.000  C
  C8       1.0000 0.58604  0.39996  0.40060  Biso   1.000  C
  C9       1.0000 0.91396  0.89996  0.40060  Biso   1.000  C
  C10      1.0000 0.41396  0.39996  0.40060  Biso   1.000  C
  C11      1.0000 0.08604  0.10004  0.90060  Biso   1.000  C
  C12      1.0000 0.08604  0.89996  0.09940  Biso   1.000  C
  C13      1.0000 0.91396  0.10004  0.59940  Biso   1.000  C
  C14      1.0000 0.58604  0.60004  0.90060  Biso   1.000  C
  C15      1.0000 0.58604  0.39996  0.09940  Biso   1.000  C
  C16      1.0000 0.41396  0.60004  0.59940  Biso   1.000  C
  H1       1.0000 0.09420  0.11040  0.47460  Biso   1.000  H
  H2       1.0000 0.59420  0.61040  0.47460  Biso   1.000  H
  H3       1.0000 0.90580  0.88960  0.97460  Biso   1.000  H
  H4       1.0000 0.90580  0.11040  0.02540  Biso   1.000  H
  H5       1.0000 0.09420  0.88960  0.52540  Biso   1.000  H
  H6       1.0000 0.40580  0.38960  0.97460  Biso   1.000  H
  H7       1.0000 0.40580  0.61040  0.02540  Biso   1.000  H
  H8       1.0000 0.59420  0.38960  0.52540  Biso   1.000  H
  H9       1.0000 0.90580  0.88960  0.52540  Biso   1.000  H
  H10      1.0000 0.40580  0.38960  0.52540  Biso   1.000  H
  H11      1.0000 0.09420  0.11040  0.02540  Biso   1.000  H
  H12      1.0000 0.09420  0.88960  0.97460  Biso   1.000  H
  H13      1.0000 0.90580  0.11040  0.47460  Biso   1.000  H
  H14      1.0000 0.59420  0.61040  0.02540  Biso   1.000  H
  H15      1.0000 0.59420  0.38960  0.97460  Biso   1.000  H
  H16      1.0000 0.40580  0.61040  0.47460  Biso   1.000  H
  C17      1.0000 0.27991  0.40270  0.78480  Biso   1.000  C
  C18      1.0000 0.77991  0.90270  0.78480  Biso   1.000  C
  C19      1.0000 0.72009  0.59730  0.28480  Biso   1.000  C
  C20      1.0000 0.72009  0.40270  0.71520  Biso   1.000  C
  C21      1.0000 0.27991  0.59730  0.21520  Biso   1.000  C
  C22      1.0000 0.22009  0.09730  0.28480  Biso   1.000  C
  C23      1.0000 0.22009  0.90270  0.71520  Biso   1.000  C
  C24      1.0000 0.77991  0.09730  0.21520  Biso   1.000  C
  C25      1.0000 0.72009  0.59730  0.21520  Biso   1.000  C
  C26      1.0000 0.22009  0.09730  0.21520  Biso   1.000  C
  C27      1.0000 0.27991  0.40270  0.71520  Biso   1.000  C
  C28      1.0000 0.27991  0.59730  0.28480  Biso   1.000  C
  C29      1.0000 0.72009  0.40270  0.78480  Biso   1.000  C
  C30      1.0000 0.77991  0.90270  0.71520  Biso   1.000  C
  C31      1.0000 0.77991  0.09730  0.28480  Biso   1.000  C
  C32      1.0000 0.22009  0.90270  0.78480  Biso   1.000  C
  H17      1.0000 0.25410  0.44060  0.82050  Biso   1.000  H
  H18      1.0000 0.75410  0.94060  0.82050  Biso   1.000  H
  H19      1.0000 0.74590  0.55940  0.32050  Biso   1.000  H
  H20      1.0000 0.74590  0.44060  0.67950  Biso   1.000  H
  H21      1.0000 0.25410  0.55940  0.17950  Biso   1.000  H
  H22      1.0000 0.24590  0.05940  0.32050  Biso   1.000  H
  H23      1.0000 0.24590  0.94060  0.67950  Biso   1.000  H
  H24      1.0000 0.75410  0.05940  0.17950  Biso   1.000  H
  H25      1.0000 0.74590  0.55940  0.17950  Biso   1.000  H
  H26      1.0000 0.24590  0.05940  0.17950  Biso   1.000  H
  H27      1.0000 0.25410  0.44060  0.67950  Biso   1.000  H
  H28      1.0000 0.25410  0.55940  0.32050  Biso   1.000  H
  H29      1.0000 0.74590  0.44060  0.82050  Biso   1.000  H
  H30      1.0000 0.75410  0.94060  0.67950  Biso   1.000  H
  H31      1.0000 0.75410  0.05940  0.32050  Biso   1.000  H
  H32      1.0000 0.24590  0.94060  0.82050  Biso   1.000  H
  C33      1.0000 0.32091  0.29260  0.72920  Biso   1.000  C
  C34      1.0000 0.82091  0.79260  0.72920  Biso   1.000  C
  C35      1.0000 0.67909  0.70740  0.22920  Biso   1.000  C
  C36      1.0000 0.67909  0.29260  0.77080  Biso   1.000  C
  C37      1.0000 0.32091  0.70740  0.27080  Biso   1.000  C
  C38      1.0000 0.17909  0.20740  0.22920  Biso   1.000  C
  C39      1.0000 0.17909  0.79260  0.77080  Biso   1.000  C
  C40      1.0000 0.82091  0.20740  0.27080  Biso   1.000  C
  C41      1.0000 0.67909  0.70740  0.27080  Biso   1.000  C
  C42      1.0000 0.17909  0.20740  0.27080  Biso   1.000  C
  C43      1.0000 0.32091  0.29260  0.77080  Biso   1.000  C
  C44      1.0000 0.32091  0.70740  0.22920  Biso   1.000  C
  C45      1.0000 0.67909  0.29260  0.72920  Biso   1.000  C
  C46      1.0000 0.82091  0.79260  0.77080  Biso   1.000  C
  C47      1.0000 0.82091  0.20740  0.22920  Biso   1.000  C
  C48      1.0000 0.17909  0.79260  0.72920  Biso   1.000  C
  H33      1.0000 0.33150  0.23560  0.68980  Biso   1.000  H
  H34      1.0000 0.83150  0.73560  0.68980  Biso   1.000  H
  H35      1.0000 0.66850  0.76440  0.18980  Biso   1.000  H
  H36      1.0000 0.66850  0.23560  0.81020  Biso   1.000  H
  H37      1.0000 0.33150  0.76440  0.31020  Biso   1.000  H
  H38      1.0000 0.16850  0.26440  0.18980  Biso   1.000  H
  H39      1.0000 0.16850  0.73560  0.81020  Biso   1.000  H
  H40      1.0000 0.83150  0.26440  0.31020  Biso   1.000  H
  H41      1.0000 0.66850  0.76440  0.31020  Biso   1.000  H
  H42      1.0000 0.16850  0.26440  0.31020  Biso   1.000  H
  H43      1.0000 0.33150  0.23560  0.81020  Biso   1.000  H
  H44      1.0000 0.33150  0.76440  0.18980  Biso   1.000  H
  H45      1.0000 0.66850  0.23560  0.68980  Biso   1.000  H
  H46      1.0000 0.83150  0.73560  0.81020  Biso   1.000  H
  H47      1.0000 0.83150  0.26440  0.18980  Biso   1.000  H
  H48      1.0000 0.16850  0.73560  0.68980  Biso   1.000  H
  C49      1.0000 0.15275  0.17738  0.75000  Biso   1.000  C
  C50      1.0000 0.65275  0.67738  0.75000  Biso   1.000  C
  C51      1.0000 0.84725  0.82262  0.25000  Biso   1.000  C
  C52      1.0000 0.84725  0.17738  0.75000  Biso   1.000  C
  C53      1.0000 0.15275  0.82262  0.25000  Biso   1.000  C
  C54      1.0000 0.34725  0.32262  0.25000  Biso   1.000  C
  C55      1.0000 0.34725  0.67738  0.75000  Biso   1.000  C
  C56      1.0000 0.65275  0.32262  0.25000  Biso   1.000  C
  C57      1.0000 0.19456  0.13910  0.71620  Biso   1.000  C
  C58      1.0000 0.69456  0.63910  0.71620  Biso   1.000  C
  C59      1.0000 0.80544  0.86090  0.21620  Biso   1.000  C
  C60      1.0000 0.80544  0.13910  0.78380  Biso   1.000  C
  C61      1.0000 0.19456  0.86090  0.28380  Biso   1.000  C
  C62      1.0000 0.30544  0.36090  0.21620  Biso   1.000  C
  C63      1.0000 0.30544  0.63910  0.78380  Biso   1.000  C
  C64      1.0000 0.69456  0.36090  0.28380  Biso   1.000  C
  C65      1.0000 0.80544  0.86090  0.28380  Biso   1.000  C
  C66      1.0000 0.30544  0.36090  0.28380  Biso   1.000  C
  C67      1.0000 0.19456  0.13910  0.78380  Biso   1.000  C
  C68      1.0000 0.19456  0.86090  0.21620  Biso   1.000  C
  C69      1.0000 0.80544  0.13910  0.71620  Biso   1.000  C
  C70      1.0000 0.69456  0.63910  0.78380  Biso   1.000  C
  C71      1.0000 0.69456  0.36090  0.21620  Biso   1.000  C
  C72      1.0000 0.30544  0.63910  0.71620  Biso   1.000  C
  H49      1.0000 0.19620  0.07940  0.69810  Biso   1.000  H
  H50      1.0000 0.69620  0.57940  0.69810  Biso   1.000  H
  H51      1.0000 0.80380  0.92060  0.19810  Biso   1.000  H
  H52      1.0000 0.80380  0.07940  0.80190  Biso   1.000  H
  H53      1.0000 0.19620  0.92060  0.30190  Biso   1.000  H
  H54      1.0000 0.30380  0.42060  0.19810  Biso   1.000  H
  H55      1.0000 0.30380  0.57940  0.80190  Biso   1.000  H
  H56      1.0000 0.69620  0.42060  0.30190  Biso   1.000  H
  H57      1.0000 0.80380  0.92060  0.30190  Biso   1.000  H
  H58      1.0000 0.30380  0.42060  0.30190  Biso   1.000  H
  H59      1.0000 0.19620  0.07940  0.80190  Biso   1.000  H
  H60      1.0000 0.19620  0.92060  0.19810  Biso   1.000  H
  H61      1.0000 0.80380  0.07940  0.69810  Biso   1.000  H
  H62      1.0000 0.69620  0.57940  0.80190  Biso   1.000  H
  H63      1.0000 0.69620  0.42060  0.19810  Biso   1.000  H
  H64      1.0000 0.30380  0.57940  0.69810  Biso   1.000  H
  C73      1.0000 0.23566  0.18610  0.71300  Biso   1.000  C
  C74      1.0000 0.73566  0.68610  0.71300  Biso   1.000  C
  C75      1.0000 0.76434  0.81390  0.21300  Biso   1.000  C
  C76      1.0000 0.76434  0.18610  0.78700  Biso   1.000  C
  C77      1.0000 0.23566  0.81390  0.28700  Biso   1.000  C
  C78      1.0000 0.26434  0.31390  0.21300  Biso   1.000  C
  C79      1.0000 0.26434  0.68610  0.78700  Biso   1.000  C
  C80      1.0000 0.73566  0.31390  0.28700  Biso   1.000  C
  C81      1.0000 0.76434  0.81390  0.28700  Biso   1.000  C
  C82      1.0000 0.26434  0.31390  0.28700  Biso   1.000  C
  C83      1.0000 0.23566  0.18610  0.78700  Biso   1.000  C
  C84      1.0000 0.23566  0.81390  0.21300  Biso   1.000  C
  C85      1.0000 0.76434  0.18610  0.71300  Biso   1.000  C
  C86      1.0000 0.73566  0.68610  0.78700  Biso   1.000  C
  C87      1.0000 0.73566  0.31390  0.21300  Biso   1.000  C
  C88      1.0000 0.26434  0.68610  0.71300  Biso   1.000  C
  H65      1.0000 0.26560  0.15990  0.68390  Biso   1.000  H
  H66      1.0000 0.76560  0.65990  0.68390  Biso   1.000  H
  H67      1.0000 0.73440  0.84010  0.18390  Biso   1.000  H
  H68      1.0000 0.73440  0.15990  0.81610  Biso   1.000  H
  H69      1.0000 0.26560  0.84010  0.31610  Biso   1.000  H
  H70      1.0000 0.23440  0.34010  0.18390  Biso   1.000  H
  H71      1.0000 0.23440  0.65990  0.81610  Biso   1.000  H
  H72      1.0000 0.76560  0.34010  0.31610  Biso   1.000  H
  H73      1.0000 0.73440  0.84010  0.31610  Biso   1.000  H
  H74      1.0000 0.23440  0.34010  0.31610  Biso   1.000  H
  H75      1.0000 0.26560  0.15990  0.81610  Biso   1.000  H
  H76      1.0000 0.26560  0.84010  0.18390  Biso   1.000  H
  H77      1.0000 0.73440  0.15990  0.68390  Biso   1.000  H
  H78      1.0000 0.76560  0.65990  0.81610  Biso   1.000  H
  H79      1.0000 0.76560  0.34010  0.18390  Biso   1.000  H
  H80      1.0000 0.23440  0.65990  0.68390  Biso   1.000  H
  C89      1.0000 0.23364  0.27012  0.75000  Biso   1.000  C
  C90      1.0000 0.73364  0.77012  0.75000  Biso   1.000  C
  C91      1.0000 0.76636  0.72988  0.25000  Biso   1.000  C
  C92      1.0000 0.76636  0.27012  0.75000  Biso   1.000  C
  C93      1.0000 0.23364  0.72988  0.25000  Biso   1.000  C
  C94      1.0000 0.26636  0.22988  0.25000  Biso   1.000  C
  C95      1.0000 0.26636  0.77012  0.75000  Biso   1.000  C
  C96      1.0000 0.73364  0.22988  0.25000  Biso   1.000  C
  C97      1.0000 0.19147  0.30740  0.78550  Biso   1.000  C
  C98      1.0000 0.69147  0.80740  0.78550  Biso   1.000  C
  C99      1.0000 0.80853  0.69260  0.28550  Biso   1.000  C
  C100     1.0000 0.80853  0.30740  0.71450  Biso   1.000  C
  C101     1.0000 0.19147  0.69260  0.21450  Biso   1.000  C
  C102     1.0000 0.30853  0.19260  0.28550  Biso   1.000  C
  C103     1.0000 0.30853  0.80740  0.71450  Biso   1.000  C
  C104     1.0000 0.69147  0.19260  0.21450  Biso   1.000  C
  C105     1.0000 0.80853  0.69260  0.21450  Biso   1.000  C
  C106     1.0000 0.30853  0.19260  0.21450  Biso   1.000  C
  C107     1.0000 0.19147  0.30740  0.71450  Biso   1.000  C
  C108     1.0000 0.19147  0.69260  0.28550  Biso   1.000  C
  C109     1.0000 0.80853  0.30740  0.78550  Biso   1.000  C
  C110     1.0000 0.69147  0.80740  0.71450  Biso   1.000  C
  C111     1.0000 0.69147  0.19260  0.28550  Biso   1.000  C
  C112     1.0000 0.30853  0.80740  0.78550  Biso   1.000  C
  H81      1.0000 0.19060  0.36530  0.80830  Biso   1.000  H
  H82      1.0000 0.69060  0.86530  0.80830  Biso   1.000  H
  H83      1.0000 0.80940  0.63470  0.30830  Biso   1.000  H
  H84      1.0000 0.80940  0.36530  0.69170  Biso   1.000  H
  H85      1.0000 0.19060  0.63470  0.19170  Biso   1.000  H
  H86      1.0000 0.30940  0.13470  0.30830  Biso   1.000  H
  H87      1.0000 0.30940  0.86530  0.69170  Biso   1.000  H
  H88      1.0000 0.69060  0.13470  0.19170  Biso   1.000  H
  H89      1.0000 0.80940  0.63470  0.19170  Biso   1.000  H
  H90      1.0000 0.30940  0.13470  0.19170  Biso   1.000  H
  H91      1.0000 0.19060  0.36530  0.69170  Biso   1.000  H
  H92      1.0000 0.19060  0.63470  0.30830  Biso   1.000  H
  H93      1.0000 0.80940  0.36530  0.80830  Biso   1.000  H
  H94      1.0000 0.69060  0.86530  0.69170  Biso   1.000  H
  H95      1.0000 0.69060  0.13470  0.30830  Biso   1.000  H
  H96      1.0000 0.30940  0.86530  0.80830  Biso   1.000  H
  C113     1.0000 0.15012  0.26090  0.78760  Biso   1.000  C
  C114     1.0000 0.65012  0.76090  0.78760  Biso   1.000  C
  C115     1.0000 0.84988  0.73910  0.28760  Biso   1.000  C
  C116     1.0000 0.84988  0.26090  0.71240  Biso   1.000  C
  C117     1.0000 0.15012  0.73910  0.21240  Biso   1.000  C
  C118     1.0000 0.34988  0.23910  0.28760  Biso   1.000  C
  C119     1.0000 0.34988  0.76090  0.71240  Biso   1.000  C
  C120     1.0000 0.65012  0.23910  0.21240  Biso   1.000  C
  C121     1.0000 0.84988  0.73910  0.21240  Biso   1.000  C
  C122     1.0000 0.34988  0.23910  0.21240  Biso   1.000  C
  C123     1.0000 0.15012  0.26090  0.71240  Biso   1.000  C
  C124     1.0000 0.15012  0.73910  0.28760  Biso   1.000  C
  C125     1.0000 0.84988  0.26090  0.78760  Biso   1.000  C
  C126     1.0000 0.65012  0.76090  0.71240  Biso   1.000  C
  C127     1.0000 0.65012  0.23910  0.28760  Biso   1.000  C
  C128     1.0000 0.34988  0.76090  0.78760  Biso   1.000  C
  H97      1.0000 0.12000  0.28640  0.81460  Biso   1.000  H
  H98      1.0000 0.62000  0.78640  0.81460  Biso   1.000  H
  H99      1.0000 0.88000  0.71360  0.31460  Biso   1.000  H
  H100     1.0000 0.88000  0.28640  0.68540  Biso   1.000  H
  H101     1.0000 0.12000  0.71360  0.18540  Biso   1.000  H
  H102     1.0000 0.38000  0.21360  0.31460  Biso   1.000  H
  H103     1.0000 0.38000  0.78640  0.68540  Biso   1.000  H
  H104     1.0000 0.62000  0.21360  0.18540  Biso   1.000  H
  H105     1.0000 0.88000  0.71360  0.18540  Biso   1.000  H
  H106     1.0000 0.38000  0.21360  0.18540  Biso   1.000  H
  H107     1.0000 0.12000  0.28640  0.68540  Biso   1.000  H
  H108     1.0000 0.12000  0.71360  0.31460  Biso   1.000  H
  H109     1.0000 0.88000  0.28640  0.81460  Biso   1.000  H
  H110     1.0000 0.62000  0.78640  0.68540  Biso   1.000  H
  H111     1.0000 0.62000  0.21360  0.31460  Biso   1.000  H
  H112     1.0000 0.38000  0.78640  0.81460  Biso   1.000  H
  Cl5      1.0000 0.19590  0.50000  0.00000  Biso   1.000  Cl
  Cl6      1.0000 0.69590  0.00000  0.00000  Biso   1.000  Cl
  Cl7      1.0000 0.80410  0.50000  0.50000  Biso   1.000  Cl
  Cl8      1.0000 0.30410  0.00000  0.50000  Biso   1.000  Cl
  Cl9      1.0000 0.80410  0.50000  0.00000  Biso   1.000  Cl
  Cl10     1.0000 0.30410  0.00000  0.00000  Biso   1.000  Cl
  Cl11     1.0000 0.19590  0.50000  0.50000  Biso   1.000  Cl
  Cl12     1.0000 0.69590  0.00000  0.50000  Biso   1.000  Cl
  Cl13     1.0000 0.18010  0.46630  0.10590  Biso   1.000  Cl
  Cl14     1.0000 0.68010  0.96630  0.10590  Biso   1.000  Cl
  Cl15     1.0000 0.81990  0.53370  0.60590  Biso   1.000  Cl
  Cl16     1.0000 0.81990  0.46630  0.39410  Biso   1.000  Cl
  Cl17     1.0000 0.18010  0.53370  0.89410  Biso   1.000  Cl
  Cl18     1.0000 0.31990  0.03370  0.60590  Biso   1.000  Cl
  Cl19     1.0000 0.31990  0.96630  0.39410  Biso   1.000  Cl
  Cl20     1.0000 0.68010  0.03370  0.89410  Biso   1.000  Cl
  Cl21     1.0000 0.81990  0.53370  0.89410  Biso   1.000  Cl
  Cl22     1.0000 0.31990  0.03370  0.89410  Biso   1.000  Cl
  Cl23     1.0000 0.18010  0.46630  0.39410  Biso   1.000  Cl
  Cl24     1.0000 0.18010  0.53370  0.60590  Biso   1.000  Cl
  Cl25     1.0000 0.81990  0.46630  0.10590  Biso   1.000  Cl
  Cl26     1.0000 0.68010  0.96630  0.39410  Biso   1.000  Cl
  Cl27     1.0000 0.68010  0.03370  0.60590  Biso   1.000  Cl
  Cl28     1.0000 0.31990  0.96630  0.10590  Biso   1.000  Cl
  O1       1.0000 0.14390  0.40080  0.25000  Biso   1.000  O
  O2       1.0000 0.64390  0.90080  0.25000  Biso   1.000  O
  O3       1.0000 0.85610  0.59920  0.75000  Biso   1.000  O
  O4       1.0000 0.85610  0.40080  0.25000  Biso   1.000  O
  O5       1.0000 0.14390  0.59920  0.75000  Biso   1.000  O
  O6       1.0000 0.35610  0.09920  0.75000  Biso   1.000  O
  O7       1.0000 0.35610  0.90080  0.25000  Biso   1.000  O
  O8       1.0000 0.64390  0.09920  0.75000  Biso   1.000  O
  O9       1.0000 0.16760  0.44540  0.25000  Biso   1.000  O
  O10      1.0000 0.66760  0.94540  0.25000  Biso   1.000  O
  O11      1.0000 0.83240  0.55460  0.75000  Biso   1.000  O
  O12      1.0000 0.83240  0.44540  0.25000  Biso   1.000  O
  O13      1.0000 0.16760  0.55460  0.75000  Biso   1.000  O
  O14      1.0000 0.33240  0.05460  0.75000  Biso   1.000  O
  O15      1.0000 0.33240  0.94540  0.25000  Biso   1.000  O
  O16      1.0000 0.66760  0.05460  0.75000  Biso   1.000  O
  O17      1.0000 0.05710  0.27660  0.04100  Biso   1.000  O
  O18      1.0000 0.55710  0.77660  0.04100  Biso   1.000  O
  O19      1.0000 0.94290  0.72340  0.54100  Biso   1.000  O
  O20      1.0000 0.94290  0.27660  0.45900  Biso   1.000  O
  O21      1.0000 0.05710  0.72340  0.95900  Biso   1.000  O
  O22      1.0000 0.44290  0.22340  0.54100  Biso   1.000  O
  O23      1.0000 0.44290  0.77660  0.45900  Biso   1.000  O
  O24      1.0000 0.55710  0.22340  0.95900  Biso   1.000  O
  O25      1.0000 0.94290  0.72340  0.95900  Biso   1.000  O
  O26      1.0000 0.44290  0.22340  0.95900  Biso   1.000  O
  O27      1.0000 0.05710  0.27660  0.45900  Biso   1.000  O
  O28      1.0000 0.05710  0.72340  0.54100  Biso   1.000  O
  O29      1.0000 0.94290  0.27660  0.04100  Biso   1.000  O
  O30      1.0000 0.55710  0.77660  0.45900  Biso   1.000  O
  O31      1.0000 0.55710  0.22340  0.54100  Biso   1.000  O
  O32      1.0000 0.44290  0.77660  0.04100  Biso   1.000  O
  O33      1.0000 0.03080  0.25670  0.91700  Biso   1.000  O
  O34      1.0000 0.53080  0.75670  0.91700  Biso   1.000  O
  O35      1.0000 0.96920  0.74330  0.41700  Biso   1.000  O
  O36      1.0000 0.96920  0.25670  0.58300  Biso   1.000  O
  O37      1.0000 0.03080  0.74330  0.08300  Biso   1.000  O
  O38      1.0000 0.46920  0.24330  0.41700  Biso   1.000  O
  O39      1.0000 0.46920  0.75670  0.58300  Biso   1.000  O
  O40      1.0000 0.53080  0.24330  0.08300  Biso   1.000  O
  O41      1.0000 0.96920  0.74330  0.08300  Biso   1.000  O
  O42      1.0000 0.46920  0.24330  0.08300  Biso   1.000  O
  O43      1.0000 0.03080  0.25670  0.58300  Biso   1.000  O
  O44      1.0000 0.03080  0.74330  0.41700  Biso   1.000  O
  O45      1.0000 0.96920  0.25670  0.91700  Biso   1.000  O
  O46      1.0000 0.53080  0.75670  0.58300  Biso   1.000  O
  O47      1.0000 0.53080  0.24330  0.41700  Biso   1.000  O
  O48      1.0000 0.46920  0.75670  0.91700  Biso   1.000  O
