data_image0
_cell_length_a       28.449
_cell_length_b       15.7732
_cell_length_c       7.2593
_cell_angle_alpha    90
_cell_angle_beta     90
_cell_angle_gamma    90

_symmetry_space_group_name_H-M    "P 1"
_symmetry_int_tables_number       1

loop_
  _symmetry_equiv_pos_as_xyz
  'x, y, z'

loop_
  _atom_site_label
  _atom_site_occupancy
  _atom_site_fract_x
  _atom_site_fract_y
  _atom_site_fract_z
  _atom_site_thermal_displace_type
  _atom_site_B_iso_or_equiv
  _atom_site_type_symbol
  Cu1      1.0000 0.00000  0.50000  0.50000  Biso   1.000  Cu
  Cu2      1.0000 0.50000  0.00000  0.50000  Biso   1.000  Cu
  Cu3      1.0000 0.00000  0.50000  0.00000  Biso   1.000  Cu
  Cu4      1.0000 0.50000  0.00000  0.00000  Biso   1.000  Cu
  Br1      1.0000 0.00000  0.36333  0.25000  Biso   1.000  Br
  Br2      1.0000 0.50000  0.86333  0.25000  Biso   1.000  Br
  Br3      1.0000 0.00000  0.63667  0.75000  Biso   1.000  Br
  Br4      1.0000 0.50000  0.13667  0.75000  Biso   1.000  Br
  N1       1.0000 0.05000  0.44350  0.65740  Biso   1.000  N
  N2       1.0000 0.55000  0.94350  0.65740  Biso   1.000  N
  N3       1.0000 0.95000  0.55650  0.15740  Biso   1.000  N
  N4       1.0000 0.95000  0.44350  0.84260  Biso   1.000  N
  N5       1.0000 0.05000  0.55650  0.34260  Biso   1.000  N
  N6       1.0000 0.45000  0.05650  0.15740  Biso   1.000  N
  N7       1.0000 0.45000  0.94350  0.84260  Biso   1.000  N
  N8       1.0000 0.55000  0.05650  0.34260  Biso   1.000  N
  N9       1.0000 0.95000  0.55650  0.34260  Biso   1.000  N
  N10      1.0000 0.45000  0.05650  0.34260  Biso   1.000  N
  N11      1.0000 0.05000  0.44350  0.84260  Biso   1.000  N
  N12      1.0000 0.05000  0.55650  0.15740  Biso   1.000  N
  N13      1.0000 0.95000  0.44350  0.65740  Biso   1.000  N
  N14      1.0000 0.55000  0.94350  0.84260  Biso   1.000  N
  N15      1.0000 0.55000  0.05650  0.15740  Biso   1.000  N
  N16      1.0000 0.45000  0.94350  0.65740  Biso   1.000  N
  N17      1.0000 0.10990  0.37090  0.75000  Biso   1.000  N
  N18      1.0000 0.60990  0.87090  0.75000  Biso   1.000  N
  N19      1.0000 0.89010  0.62910  0.25000  Biso   1.000  N
  N20      1.0000 0.89010  0.37090  0.75000  Biso   1.000  N
  N21      1.0000 0.10990  0.62910  0.25000  Biso   1.000  N
  N22      1.0000 0.39010  0.12910  0.25000  Biso   1.000  N
  N23      1.0000 0.39010  0.87090  0.75000  Biso   1.000  N
  N24      1.0000 0.60990  0.12910  0.25000  Biso   1.000  N
  N25      1.0000 0.35090  0.14400  0.75000  Biso   1.000  N
  N26      1.0000 0.85090  0.64400  0.75000  Biso   1.000  N
  N27      1.0000 0.64910  0.85600  0.25000  Biso   1.000  N
  N28      1.0000 0.64910  0.14400  0.75000  Biso   1.000  N
  N29      1.0000 0.35090  0.85600  0.25000  Biso   1.000  N
  N30      1.0000 0.14910  0.35600  0.25000  Biso   1.000  N
  N31      1.0000 0.14910  0.64400  0.75000  Biso   1.000  N
  N32      1.0000 0.85090  0.35600  0.25000  Biso   1.000  N
  N33      1.0000 0.32580  0.07300  0.79320  Biso   1.000  N
  N34      1.0000 0.82580  0.57300  0.79320  Biso   1.000  N
  N35      1.0000 0.67420  0.92700  0.29320  Biso   1.000  N
  N36      1.0000 0.67420  0.07300  0.70680  Biso   1.000  N
  N37      1.0000 0.32580  0.92700  0.20680  Biso   1.000  N
  N38      1.0000 0.17420  0.42700  0.29320  Biso   1.000  N
  N39      1.0000 0.17420  0.57300  0.70680  Biso   1.000  N
  N40      1.0000 0.82580  0.42700  0.20680  Biso   1.000  N
  N41      1.0000 0.67420  0.92700  0.20680  Biso   1.000  N
  N42      1.0000 0.17420  0.42700  0.20680  Biso   1.000  N
  N43      1.0000 0.32580  0.07300  0.70680  Biso   1.000  N
  N44      1.0000 0.32580  0.92700  0.29320  Biso   1.000  N
  N45      1.0000 0.67420  0.07300  0.79320  Biso   1.000  N
  N46      1.0000 0.82580  0.57300  0.70680  Biso   1.000  N
  N47      1.0000 0.82580  0.42700  0.29320  Biso   1.000  N
  N48      1.0000 0.17420  0.57300  0.79320  Biso   1.000  N
  N49      1.0000 0.27680  0.17920  0.75000  Biso   1.000  N
  N50      1.0000 0.77680  0.67920  0.75000  Biso   1.000  N
  N51      1.0000 0.72320  0.82080  0.25000  Biso   1.000  N
  N52      1.0000 0.72320  0.17920  0.75000  Biso   1.000  N
  N53      1.0000 0.27680  0.82080  0.25000  Biso   1.000  N
  N54      1.0000 0.22320  0.32080  0.25000  Biso   1.000  N
  N55      1.0000 0.22320  0.67920  0.75000  Biso   1.000  N
  N56      1.0000 0.77680  0.32080  0.25000  Biso   1.000  N
  C1       1.0000 0.08609  0.39920  0.59920  Biso   1.000  C
  C2       1.0000 0.58609  0.89920  0.59920  Biso   1.000  C
  C3       1.0000 0.91391  0.60080  0.09920  Biso   1.000  C
  C4       1.0000 0.91391  0.39920  0.90080  Biso   1.000  C
  C5       1.0000 0.08609  0.60080  0.40080  Biso   1.000  C
  C6       1.0000 0.41391  0.10080  0.09920  Biso   1.000  C
  C7       1.0000 0.41391  0.89920  0.90080  Biso   1.000  C
  C8       1.0000 0.58609  0.10080  0.40080  Biso   1.000  C
  C9       1.0000 0.91391  0.60080  0.40080  Biso   1.000  C
  C10      1.0000 0.41391  0.10080  0.40080  Biso   1.000  C
  C11      1.0000 0.08609  0.39920  0.90080  Biso   1.000  C
  C12      1.0000 0.08609  0.60080  0.09920  Biso   1.000  C
  C13      1.0000 0.91391  0.39920  0.59920  Biso   1.000  C
  C14      1.0000 0.58609  0.89920  0.90080  Biso   1.000  C
  C15      1.0000 0.58609  0.10080  0.09920  Biso   1.000  C
  C16      1.0000 0.41391  0.89920  0.59920  Biso   1.000  C
  H1       1.0000 0.09410  0.38850  0.47110  Biso   1.000  H
  H2       1.0000 0.59410  0.88850  0.47110  Biso   1.000  H
  H3       1.0000 0.90590  0.61150  0.97110  Biso   1.000  H
  H4       1.0000 0.90590  0.38850  0.02890  Biso   1.000  H
  H5       1.0000 0.09410  0.61150  0.52890  Biso   1.000  H
  H6       1.0000 0.40590  0.11150  0.97110  Biso   1.000  H
  H7       1.0000 0.40590  0.88850  0.02890  Biso   1.000  H
  H8       1.0000 0.59410  0.11150  0.52890  Biso   1.000  H
  H9       1.0000 0.90590  0.61150  0.52890  Biso   1.000  H
  H10      1.0000 0.40590  0.11150  0.52890  Biso   1.000  H
  H11      1.0000 0.09410  0.38850  0.02890  Biso   1.000  H
  H12      1.0000 0.09410  0.61150  0.97110  Biso   1.000  H
  H13      1.0000 0.90590  0.38850  0.47110  Biso   1.000  H
  H14      1.0000 0.59410  0.88850  0.02890  Biso   1.000  H
  H15      1.0000 0.59410  0.11150  0.97110  Biso   1.000  H
  H16      1.0000 0.40590  0.88850  0.47110  Biso   1.000  H
  C17      1.0000 0.32150  0.20660  0.72470  Biso   1.000  C
  C18      1.0000 0.82150  0.70660  0.72470  Biso   1.000  C
  C19      1.0000 0.67850  0.79340  0.22470  Biso   1.000  C
  C20      1.0000 0.67850  0.20660  0.77530  Biso   1.000  C
  C21      1.0000 0.32150  0.79340  0.27530  Biso   1.000  C
  C22      1.0000 0.17850  0.29340  0.22470  Biso   1.000  C
  C23      1.0000 0.17850  0.70660  0.77530  Biso   1.000  C
  C24      1.0000 0.82150  0.29340  0.27530  Biso   1.000  C
  C25      1.0000 0.67850  0.79340  0.27530  Biso   1.000  C
  C26      1.0000 0.17850  0.29340  0.27530  Biso   1.000  C
  C27      1.0000 0.32150  0.20660  0.77530  Biso   1.000  C
  C28      1.0000 0.32150  0.79340  0.22470  Biso   1.000  C
  C29      1.0000 0.67850  0.20660  0.72470  Biso   1.000  C
  C30      1.0000 0.82150  0.70660  0.77530  Biso   1.000  C
  C31      1.0000 0.82150  0.29340  0.22470  Biso   1.000  C
  C32      1.0000 0.17850  0.70660  0.72470  Biso   1.000  C
  H17      1.0000 0.33100  0.26520  0.70890  Biso   1.000  H
  H18      1.0000 0.83100  0.76520  0.70890  Biso   1.000  H
  H19      1.0000 0.66900  0.73480  0.20890  Biso   1.000  H
  H20      1.0000 0.66900  0.26520  0.79110  Biso   1.000  H
  H21      1.0000 0.33100  0.73480  0.29110  Biso   1.000  H
  H22      1.0000 0.16900  0.23480  0.20890  Biso   1.000  H
  H23      1.0000 0.16900  0.76520  0.79110  Biso   1.000  H
  H24      1.0000 0.83100  0.23480  0.29110  Biso   1.000  H
  H25      1.0000 0.66900  0.73480  0.29110  Biso   1.000  H
  H26      1.0000 0.16900  0.23480  0.29110  Biso   1.000  H
  H27      1.0000 0.33100  0.26520  0.79110  Biso   1.000  H
  H28      1.0000 0.33100  0.73480  0.20890  Biso   1.000  H
  H29      1.0000 0.66900  0.26520  0.70890  Biso   1.000  H
  H30      1.0000 0.83100  0.76520  0.79110  Biso   1.000  H
  H31      1.0000 0.83100  0.23480  0.20890  Biso   1.000  H
  H32      1.0000 0.16900  0.76520  0.70890  Biso   1.000  H
  C33      1.0000 0.28190  0.09410  0.79360  Biso   1.000  C
  C34      1.0000 0.78190  0.59410  0.79360  Biso   1.000  C
  C35      1.0000 0.71810  0.90590  0.29360  Biso   1.000  C
  C36      1.0000 0.71810  0.09410  0.70640  Biso   1.000  C
  C37      1.0000 0.28190  0.90590  0.20640  Biso   1.000  C
  C38      1.0000 0.21810  0.40590  0.29360  Biso   1.000  C
  C39      1.0000 0.21810  0.59410  0.70640  Biso   1.000  C
  C40      1.0000 0.78190  0.40590  0.20640  Biso   1.000  C
  C41      1.0000 0.71810  0.90590  0.20640  Biso   1.000  C
  C42      1.0000 0.21810  0.40590  0.20640  Biso   1.000  C
  C43      1.0000 0.28190  0.09410  0.70640  Biso   1.000  C
  C44      1.0000 0.28190  0.90590  0.29360  Biso   1.000  C
  C45      1.0000 0.71810  0.09410  0.79360  Biso   1.000  C
  C46      1.0000 0.78190  0.59410  0.70640  Biso   1.000  C
  C47      1.0000 0.78190  0.40590  0.29360  Biso   1.000  C
  C48      1.0000 0.21810  0.59410  0.79360  Biso   1.000  C
  H33      1.0000 0.25710  0.05440  0.79900  Biso   1.000  H
  H34      1.0000 0.75710  0.55440  0.79900  Biso   1.000  H
  H35      1.0000 0.74290  0.94560  0.29900  Biso   1.000  H
  H36      1.0000 0.74290  0.05440  0.70100  Biso   1.000  H
  H37      1.0000 0.25710  0.94560  0.20100  Biso   1.000  H
  H38      1.0000 0.24290  0.44560  0.29900  Biso   1.000  H
  H39      1.0000 0.24290  0.55440  0.70100  Biso   1.000  H
  H40      1.0000 0.75710  0.44560  0.20100  Biso   1.000  H
  H41      1.0000 0.74290  0.94560  0.20100  Biso   1.000  H
  H42      1.0000 0.24290  0.44560  0.20100  Biso   1.000  H
  H43      1.0000 0.25710  0.05440  0.70100  Biso   1.000  H
  H44      1.0000 0.25710  0.94560  0.29900  Biso   1.000  H
  H45      1.0000 0.74290  0.05440  0.79900  Biso   1.000  H
  H46      1.0000 0.75710  0.55440  0.70100  Biso   1.000  H
  H47      1.0000 0.75710  0.44560  0.29900  Biso   1.000  H
  H48      1.0000 0.24290  0.55440  0.79900  Biso   1.000  H
  C49      1.0000 0.15290  0.32220  0.75000  Biso   1.000  C
  C50      1.0000 0.65290  0.82220  0.75000  Biso   1.000  C
  C51      1.0000 0.84710  0.67780  0.25000  Biso   1.000  C
  C52      1.0000 0.84710  0.32220  0.75000  Biso   1.000  C
  C53      1.0000 0.15290  0.67780  0.25000  Biso   1.000  C
  C54      1.0000 0.34710  0.17780  0.25000  Biso   1.000  C
  C55      1.0000 0.34710  0.82220  0.75000  Biso   1.000  C
  C56      1.0000 0.65290  0.17780  0.25000  Biso   1.000  C
  C57      1.0000 0.15080  0.23600  0.69660  Biso   1.000  C
  C58      1.0000 0.65080  0.73600  0.69660  Biso   1.000  C
  C59      1.0000 0.84920  0.76400  0.19660  Biso   1.000  C
  C60      1.0000 0.84920  0.23600  0.80340  Biso   1.000  C
  C61      1.0000 0.15080  0.76400  0.30340  Biso   1.000  C
  C62      1.0000 0.34920  0.26400  0.19660  Biso   1.000  C
  C63      1.0000 0.34920  0.73600  0.80340  Biso   1.000  C
  C64      1.0000 0.65080  0.26400  0.30340  Biso   1.000  C
  C65      1.0000 0.84920  0.76400  0.30340  Biso   1.000  C
  C66      1.0000 0.34920  0.26400  0.30340  Biso   1.000  C
  C67      1.0000 0.15080  0.23600  0.80340  Biso   1.000  C
  C68      1.0000 0.15080  0.76400  0.19660  Biso   1.000  C
  C69      1.0000 0.84920  0.23600  0.69660  Biso   1.000  C
  C70      1.0000 0.65080  0.73600  0.80340  Biso   1.000  C
  C71      1.0000 0.65080  0.26400  0.19660  Biso   1.000  C
  C72      1.0000 0.34920  0.73600  0.69660  Biso   1.000  C
  H49      1.0000 0.12110  0.20950  0.66350  Biso   1.000  H
  H50      1.0000 0.62110  0.70950  0.66350  Biso   1.000  H
  H51      1.0000 0.87890  0.79050  0.16350  Biso   1.000  H
  H52      1.0000 0.87890  0.20950  0.83650  Biso   1.000  H
  H53      1.0000 0.12110  0.79050  0.33650  Biso   1.000  H
  H54      1.0000 0.37890  0.29050  0.16350  Biso   1.000  H
  H55      1.0000 0.37890  0.70950  0.83650  Biso   1.000  H
  H56      1.0000 0.62110  0.29050  0.33650  Biso   1.000  H
  H57      1.0000 0.87890  0.79050  0.33650  Biso   1.000  H
  H58      1.0000 0.37890  0.29050  0.33650  Biso   1.000  H
  H59      1.0000 0.12110  0.20950  0.83650  Biso   1.000  H
  H60      1.0000 0.12110  0.79050  0.16350  Biso   1.000  H
  H61      1.0000 0.87890  0.20950  0.66350  Biso   1.000  H
  H62      1.0000 0.62110  0.70950  0.83650  Biso   1.000  H
  H63      1.0000 0.62110  0.29050  0.16350  Biso   1.000  H
  H64      1.0000 0.37890  0.70950  0.66350  Biso   1.000  H
  C73      1.0000 0.19230  0.18910  0.69580  Biso   1.000  C
  C74      1.0000 0.69230  0.68910  0.69580  Biso   1.000  C
  C75      1.0000 0.80770  0.81090  0.19580  Biso   1.000  C
  C76      1.0000 0.80770  0.18910  0.80420  Biso   1.000  C
  C77      1.0000 0.19230  0.81090  0.30420  Biso   1.000  C
  C78      1.0000 0.30770  0.31090  0.19580  Biso   1.000  C
  C79      1.0000 0.30770  0.68910  0.80420  Biso   1.000  C
  C80      1.0000 0.69230  0.31090  0.30420  Biso   1.000  C
  C81      1.0000 0.80770  0.81090  0.30420  Biso   1.000  C
  C82      1.0000 0.30770  0.31090  0.30420  Biso   1.000  C
  C83      1.0000 0.19230  0.18910  0.80420  Biso   1.000  C
  C84      1.0000 0.19230  0.81090  0.19580  Biso   1.000  C
  C85      1.0000 0.80770  0.18910  0.69580  Biso   1.000  C
  C86      1.0000 0.69230  0.68910  0.80420  Biso   1.000  C
  C87      1.0000 0.69230  0.31090  0.19580  Biso   1.000  C
  C88      1.0000 0.30770  0.68910  0.69580  Biso   1.000  C
  H65      1.0000 0.19100  0.12920  0.66300  Biso   1.000  H
  H66      1.0000 0.69100  0.62920  0.66300  Biso   1.000  H
  H67      1.0000 0.80900  0.87080  0.16300  Biso   1.000  H
  H68      1.0000 0.80900  0.12920  0.83700  Biso   1.000  H
  H69      1.0000 0.19100  0.87080  0.33700  Biso   1.000  H
  H70      1.0000 0.30900  0.37080  0.16300  Biso   1.000  H
  H71      1.0000 0.30900  0.62920  0.83700  Biso   1.000  H
  H72      1.0000 0.69100  0.37080  0.33700  Biso   1.000  H
  H73      1.0000 0.80900  0.87080  0.33700  Biso   1.000  H
  H74      1.0000 0.30900  0.37080  0.33700  Biso   1.000  H
  H75      1.0000 0.19100  0.12920  0.83700  Biso   1.000  H
  H76      1.0000 0.19100  0.87080  0.16300  Biso   1.000  H
  H77      1.0000 0.80900  0.12920  0.66300  Biso   1.000  H
  H78      1.0000 0.69100  0.62920  0.83700  Biso   1.000  H
  H79      1.0000 0.69100  0.37080  0.16300  Biso   1.000  H
  H80      1.0000 0.30900  0.62920  0.66300  Biso   1.000  H
  C89      1.0000 0.23430  0.22940  0.75000  Biso   1.000  C
  C90      1.0000 0.73430  0.72940  0.75000  Biso   1.000  C
  C91      1.0000 0.76570  0.77060  0.25000  Biso   1.000  C
  C92      1.0000 0.76570  0.22940  0.75000  Biso   1.000  C
  C93      1.0000 0.23430  0.77060  0.25000  Biso   1.000  C
  C94      1.0000 0.26570  0.27060  0.25000  Biso   1.000  C
  C95      1.0000 0.26570  0.72940  0.75000  Biso   1.000  C
  C96      1.0000 0.73430  0.27060  0.25000  Biso   1.000  C
  C97      1.0000 0.23500  0.31190  0.79740  Biso   1.000  C
  C98      1.0000 0.73500  0.81190  0.79740  Biso   1.000  C
  C99      1.0000 0.76500  0.68810  0.29740  Biso   1.000  C
  C100     1.0000 0.76500  0.31190  0.70260  Biso   1.000  C
  C101     1.0000 0.23500  0.68810  0.20260  Biso   1.000  C
  C102     1.0000 0.26500  0.18810  0.29740  Biso   1.000  C
  C103     1.0000 0.26500  0.81190  0.70260  Biso   1.000  C
  C104     1.0000 0.73500  0.18810  0.20260  Biso   1.000  C
  C105     1.0000 0.76500  0.68810  0.20260  Biso   1.000  C
  C106     1.0000 0.26500  0.18810  0.20260  Biso   1.000  C
  C107     1.0000 0.23500  0.31190  0.70260  Biso   1.000  C
  C108     1.0000 0.23500  0.68810  0.29740  Biso   1.000  C
  C109     1.0000 0.76500  0.31190  0.79740  Biso   1.000  C
  C110     1.0000 0.73500  0.81190  0.70260  Biso   1.000  C
  C111     1.0000 0.73500  0.18810  0.29740  Biso   1.000  C
  C112     1.0000 0.26500  0.81190  0.79740  Biso   1.000  C
  H81      1.0000 0.26360  0.33790  0.83190  Biso   1.000  H
  H82      1.0000 0.76360  0.83790  0.83190  Biso   1.000  H
  H83      1.0000 0.73640  0.66210  0.33190  Biso   1.000  H
  H84      1.0000 0.73640  0.33790  0.66810  Biso   1.000  H
  H85      1.0000 0.26360  0.66210  0.16810  Biso   1.000  H
  H86      1.0000 0.23640  0.16210  0.33190  Biso   1.000  H
  H87      1.0000 0.23640  0.83790  0.66810  Biso   1.000  H
  H88      1.0000 0.76360  0.16210  0.16810  Biso   1.000  H
  H89      1.0000 0.73640  0.66210  0.16810  Biso   1.000  H
  H90      1.0000 0.23640  0.16210  0.16810  Biso   1.000  H
  H91      1.0000 0.26360  0.33790  0.66810  Biso   1.000  H
  H92      1.0000 0.26360  0.66210  0.33190  Biso   1.000  H
  H93      1.0000 0.73640  0.33790  0.83190  Biso   1.000  H
  H94      1.0000 0.76360  0.83790  0.66810  Biso   1.000  H
  H95      1.0000 0.76360  0.16210  0.33190  Biso   1.000  H
  H96      1.0000 0.23640  0.83790  0.83190  Biso   1.000  H
  C113     1.0000 0.19380  0.35960  0.79810  Biso   1.000  C
  C114     1.0000 0.69380  0.85960  0.79810  Biso   1.000  C
  C115     1.0000 0.80620  0.64040  0.29810  Biso   1.000  C
  C116     1.0000 0.80620  0.35960  0.70190  Biso   1.000  C
  C117     1.0000 0.19380  0.64040  0.20190  Biso   1.000  C
  C118     1.0000 0.30620  0.14040  0.29810  Biso   1.000  C
  C119     1.0000 0.30620  0.85960  0.70190  Biso   1.000  C
  C120     1.0000 0.69380  0.14040  0.20190  Biso   1.000  C
  C121     1.0000 0.80620  0.64040  0.20190  Biso   1.000  C
  C122     1.0000 0.30620  0.14040  0.20190  Biso   1.000  C
  C123     1.0000 0.19380  0.35960  0.70190  Biso   1.000  C
  C124     1.0000 0.19380  0.64040  0.29810  Biso   1.000  C
  C125     1.0000 0.80620  0.35960  0.79810  Biso   1.000  C
  C126     1.0000 0.69380  0.85960  0.70190  Biso   1.000  C
  C127     1.0000 0.69380  0.14040  0.29810  Biso   1.000  C
  C128     1.0000 0.30620  0.85960  0.79810  Biso   1.000  C
  H97      1.0000 0.19490  0.41750  0.83270  Biso   1.000  H
  H98      1.0000 0.69490  0.91750  0.83270  Biso   1.000  H
  H99      1.0000 0.80510  0.58250  0.33270  Biso   1.000  H
  H100     1.0000 0.80510  0.41750  0.66730  Biso   1.000  H
  H101     1.0000 0.19490  0.58250  0.16730  Biso   1.000  H
  H102     1.0000 0.30510  0.08250  0.33270  Biso   1.000  H
  H103     1.0000 0.30510  0.91750  0.66730  Biso   1.000  H
  H104     1.0000 0.69490  0.08250  0.16730  Biso   1.000  H
  H105     1.0000 0.80510  0.58250  0.16730  Biso   1.000  H
  H106     1.0000 0.30510  0.08250  0.16730  Biso   1.000  H
  H107     1.0000 0.19490  0.41750  0.66730  Biso   1.000  H
  H108     1.0000 0.19490  0.58250  0.33270  Biso   1.000  H
  H109     1.0000 0.80510  0.41750  0.83270  Biso   1.000  H
  H110     1.0000 0.69490  0.91750  0.66730  Biso   1.000  H
  H111     1.0000 0.69490  0.08250  0.33270  Biso   1.000  H
  H112     1.0000 0.30510  0.91750  0.83270  Biso   1.000  H
  Br5      1.0000 0.17590  0.04080  0.05640  Biso   1.000  Br
  Br6      1.0000 0.67590  0.54080  0.05640  Biso   1.000  Br
  Br7      1.0000 0.82410  0.95920  0.55640  Biso   1.000  Br
  Br8      1.0000 0.82410  0.04080  0.44360  Biso   1.000  Br
  Br9      1.0000 0.17590  0.95920  0.94360  Biso   1.000  Br
  Br10     1.0000 0.32410  0.45920  0.55640  Biso   1.000  Br
  Br11     1.0000 0.32410  0.54080  0.44360  Biso   1.000  Br
  Br12     1.0000 0.67590  0.45920  0.94360  Biso   1.000  Br
  Br13     1.0000 0.82410  0.95920  0.94360  Biso   1.000  Br
  Br14     1.0000 0.32410  0.45920  0.94360  Biso   1.000  Br
  Br15     1.0000 0.17590  0.04080  0.44360  Biso   1.000  Br
  Br16     1.0000 0.17590  0.95920  0.55640  Biso   1.000  Br
  Br17     1.0000 0.82410  0.04080  0.05640  Biso   1.000  Br
  Br18     1.0000 0.67590  0.54080  0.44360  Biso   1.000  Br
  Br19     1.0000 0.67590  0.45920  0.55640  Biso   1.000  Br
  Br20     1.0000 0.32410  0.54080  0.05640  Biso   1.000  Br
  Br21     1.0000 0.16710  0.05050  0.16460  Biso   1.000  Br
  Br22     1.0000 0.66710  0.55050  0.16460  Biso   1.000  Br
  Br23     1.0000 0.83290  0.94950  0.66460  Biso   1.000  Br
  Br24     1.0000 0.83290  0.05050  0.33540  Biso   1.000  Br
  Br25     1.0000 0.16710  0.94950  0.83540  Biso   1.000  Br
  Br26     1.0000 0.33290  0.44950  0.66460  Biso   1.000  Br
  Br27     1.0000 0.33290  0.55050  0.33540  Biso   1.000  Br
  Br28     1.0000 0.66710  0.44950  0.83540  Biso   1.000  Br
  Br29     1.0000 0.83290  0.94950  0.83540  Biso   1.000  Br
  Br30     1.0000 0.33290  0.44950  0.83540  Biso   1.000  Br
  Br31     1.0000 0.16710  0.05050  0.33540  Biso   1.000  Br
  Br32     1.0000 0.16710  0.94950  0.66460  Biso   1.000  Br
  Br33     1.0000 0.83290  0.05050  0.16460  Biso   1.000  Br
  Br34     1.0000 0.66710  0.55050  0.33540  Biso   1.000  Br
  Br35     1.0000 0.66710  0.44950  0.66460  Biso   1.000  Br
  Br36     1.0000 0.33290  0.55050  0.16460  Biso   1.000  Br
  O1       1.0000 0.19700  0.00000  0.00000  Biso   1.000  O
  O2       1.0000 0.69700  0.50000  0.00000  Biso   1.000  O
  O3       1.0000 0.80300  0.00000  0.50000  Biso   1.000  O
  O4       1.0000 0.30300  0.50000  0.50000  Biso   1.000  O
  O5       1.0000 0.80300  0.00000  0.00000  Biso   1.000  O
  O6       1.0000 0.30300  0.50000  0.00000  Biso   1.000  O
  O7       1.0000 0.19700  0.00000  0.50000  Biso   1.000  O
  O8       1.0000 0.69700  0.50000  0.50000  Biso   1.000  O
  O9       1.0000 0.03120  0.23100  0.61000  Biso   1.000  O
  O10      1.0000 0.53120  0.73100  0.61000  Biso   1.000  O
  O11      1.0000 0.96880  0.76900  0.11000  Biso   1.000  O
  O12      1.0000 0.96880  0.23100  0.89000  Biso   1.000  O
  O13      1.0000 0.03120  0.76900  0.39000  Biso   1.000  O
  O14      1.0000 0.46880  0.26900  0.11000  Biso   1.000  O
  O15      1.0000 0.46880  0.73100  0.89000  Biso   1.000  O
  O16      1.0000 0.53120  0.26900  0.39000  Biso   1.000  O
  O17      1.0000 0.96880  0.76900  0.39000  Biso   1.000  O
  O18      1.0000 0.46880  0.26900  0.39000  Biso   1.000  O
  O19      1.0000 0.03120  0.23100  0.89000  Biso   1.000  O
  O20      1.0000 0.03120  0.76900  0.11000  Biso   1.000  O
  O21      1.0000 0.96880  0.23100  0.61000  Biso   1.000  O
  O22      1.0000 0.53120  0.73100  0.89000  Biso   1.000  O
  O23      1.0000 0.53120  0.26900  0.11000  Biso   1.000  O
  O24      1.0000 0.46880  0.73100  0.61000  Biso   1.000  O
  O25      1.0000 0.14490  0.09200  0.25000  Biso   1.000  O
  O26      1.0000 0.64490  0.59200  0.25000  Biso   1.000  O
  O27      1.0000 0.85510  0.90800  0.75000  Biso   1.000  O
  O28      1.0000 0.85510  0.09200  0.25000  Biso   1.000  O
  O29      1.0000 0.14490  0.90800  0.75000  Biso   1.000  O
  O30      1.0000 0.35510  0.40800  0.75000  Biso   1.000  O
  O31      1.0000 0.35510  0.59200  0.25000  Biso   1.000  O
  O32      1.0000 0.64490  0.40800  0.75000  Biso   1.000  O
