data_image0
_cell_length_a       25.822
_cell_length_b       7.7119
_cell_length_c       25.1892
_cell_angle_alpha    90
_cell_angle_beta     90
_cell_angle_gamma    90

_symmetry_space_group_name_H-M    "P 1"
_symmetry_int_tables_number       1

loop_
  _symmetry_equiv_pos_as_xyz
  'x, y, z'

loop_
  _atom_site_label
  _atom_site_occupancy
  _atom_site_fract_x
  _atom_site_fract_y
  _atom_site_fract_z
  _atom_site_thermal_displace_type
  _atom_site_B_iso_or_equiv
  _atom_site_type_symbol
  Cu1      1.0000 0.25000  0.25000  0.50000  Biso   1.000  Cu
  Cu2      1.0000 0.75000  0.75000  0.50000  Biso   1.000  Cu
  Cu3      1.0000 0.75000  0.75000  0.00000  Biso   1.000  Cu
  Cu4      1.0000 0.75000  0.25000  0.00000  Biso   1.000  Cu
  Cu5      1.0000 0.25000  0.75000  0.50000  Biso   1.000  Cu
  Cu6      1.0000 0.25000  0.25000  0.00000  Biso   1.000  Cu
  Cu7      1.0000 0.25000  0.75000  0.00000  Biso   1.000  Cu
  Cu8      1.0000 0.75000  0.25000  0.50000  Biso   1.000  Cu
  N1       1.0000 0.21661  0.11490  0.43981  Biso   1.000  N
  N2       1.0000 0.71661  0.61490  0.43981  Biso   1.000  N
  N3       1.0000 0.78339  0.88510  0.93981  Biso   1.000  N
  N4       1.0000 0.78339  0.11490  0.06019  Biso   1.000  N
  N5       1.0000 0.21661  0.88510  0.56019  Biso   1.000  N
  N6       1.0000 0.28339  0.38510  0.93981  Biso   1.000  N
  N7       1.0000 0.28339  0.61490  0.06019  Biso   1.000  N
  N8       1.0000 0.71661  0.38510  0.56019  Biso   1.000  N
  N9       1.0000 0.78339  0.88510  0.56019  Biso   1.000  N
  N10      1.0000 0.28339  0.38510  0.56019  Biso   1.000  N
  N11      1.0000 0.21661  0.11490  0.06019  Biso   1.000  N
  N12      1.0000 0.21661  0.88510  0.93981  Biso   1.000  N
  N13      1.0000 0.78339  0.11490  0.43981  Biso   1.000  N
  N14      1.0000 0.71661  0.61490  0.06019  Biso   1.000  N
  N15      1.0000 0.71661  0.38510  0.93981  Biso   1.000  N
  N16      1.0000 0.28339  0.61490  0.43981  Biso   1.000  N
  N17      1.0000 0.21024  0.94160  0.43969  Biso   1.000  N
  N18      1.0000 0.71024  0.44160  0.43969  Biso   1.000  N
  N19      1.0000 0.78976  0.05840  0.93969  Biso   1.000  N
  N20      1.0000 0.78976  0.94160  0.06031  Biso   1.000  N
  N21      1.0000 0.21024  0.05840  0.56031  Biso   1.000  N
  N22      1.0000 0.28976  0.55840  0.93969  Biso   1.000  N
  N23      1.0000 0.28976  0.44160  0.06031  Biso   1.000  N
  N24      1.0000 0.71024  0.55840  0.56031  Biso   1.000  N
  N25      1.0000 0.78976  0.05840  0.56031  Biso   1.000  N
  N26      1.0000 0.28976  0.55840  0.56031  Biso   1.000  N
  N27      1.0000 0.21024  0.94160  0.06031  Biso   1.000  N
  N28      1.0000 0.21024  0.05840  0.93969  Biso   1.000  N
  N29      1.0000 0.78976  0.94160  0.43969  Biso   1.000  N
  N30      1.0000 0.71024  0.44160  0.06031  Biso   1.000  N
  N31      1.0000 0.71024  0.55840  0.93969  Biso   1.000  N
  N32      1.0000 0.28976  0.44160  0.43969  Biso   1.000  N
  N33      1.0000 0.31190  0.08790  0.50002  Biso   1.000  N
  N34      1.0000 0.81190  0.58790  0.50002  Biso   1.000  N
  N35      1.0000 0.68810  0.91210  0.00002  Biso   1.000  N
  N36      1.0000 0.68810  0.08790  0.99998  Biso   1.000  N
  N37      1.0000 0.31190  0.91210  0.49998  Biso   1.000  N
  N38      1.0000 0.18810  0.41210  0.00002  Biso   1.000  N
  N39      1.0000 0.18810  0.58790  0.99998  Biso   1.000  N
  N40      1.0000 0.81190  0.41210  0.49998  Biso   1.000  N
  N41      1.0000 0.68810  0.91210  0.49998  Biso   1.000  N
  N42      1.0000 0.18810  0.41210  0.49998  Biso   1.000  N
  N43      1.0000 0.31190  0.08790  0.99998  Biso   1.000  N
  N44      1.0000 0.31190  0.91210  0.00002  Biso   1.000  N
  N45      1.0000 0.68810  0.08790  0.50002  Biso   1.000  N
  N46      1.0000 0.81190  0.58790  0.99998  Biso   1.000  N
  N47      1.0000 0.81190  0.41210  0.00002  Biso   1.000  N
  N48      1.0000 0.18810  0.58790  0.50002  Biso   1.000  N
  C1       1.0000 0.20484  0.17870  0.39265  Biso   1.000  C
  C2       1.0000 0.70484  0.67870  0.39265  Biso   1.000  C
  C3       1.0000 0.79516  0.82130  0.89265  Biso   1.000  C
  C4       1.0000 0.79516  0.17870  0.10735  Biso   1.000  C
  C5       1.0000 0.20484  0.82130  0.60735  Biso   1.000  C
  C6       1.0000 0.29516  0.32130  0.89265  Biso   1.000  C
  C7       1.0000 0.29516  0.67870  0.10735  Biso   1.000  C
  C8       1.0000 0.70484  0.32130  0.60735  Biso   1.000  C
  C9       1.0000 0.79516  0.82130  0.60735  Biso   1.000  C
  C10      1.0000 0.29516  0.32130  0.60735  Biso   1.000  C
  C11      1.0000 0.20484  0.17870  0.10735  Biso   1.000  C
  C12      1.0000 0.20484  0.82130  0.89265  Biso   1.000  C
  C13      1.0000 0.79516  0.17870  0.39265  Biso   1.000  C
  C14      1.0000 0.70484  0.67870  0.10735  Biso   1.000  C
  C15      1.0000 0.70484  0.32130  0.89265  Biso   1.000  C
  C16      1.0000 0.29516  0.67870  0.39265  Biso   1.000  C
  H1       1.0000 0.20610  0.29540  0.38270  Biso   1.000  H
  H2       1.0000 0.70610  0.79540  0.38270  Biso   1.000  H
  H3       1.0000 0.79390  0.70460  0.88270  Biso   1.000  H
  H4       1.0000 0.79390  0.29540  0.11730  Biso   1.000  H
  H5       1.0000 0.20610  0.70460  0.61730  Biso   1.000  H
  H6       1.0000 0.29390  0.20460  0.88270  Biso   1.000  H
  H7       1.0000 0.29390  0.79540  0.11730  Biso   1.000  H
  H8       1.0000 0.70610  0.20460  0.61730  Biso   1.000  H
  H9       1.0000 0.79390  0.70460  0.61730  Biso   1.000  H
  H10      1.0000 0.29390  0.20460  0.61730  Biso   1.000  H
  H11      1.0000 0.20610  0.29540  0.11730  Biso   1.000  H
  H12      1.0000 0.20610  0.70460  0.88270  Biso   1.000  H
  H13      1.0000 0.79390  0.29540  0.38270  Biso   1.000  H
  H14      1.0000 0.70610  0.79540  0.11730  Biso   1.000  H
  H15      1.0000 0.70610  0.20460  0.88270  Biso   1.000  H
  H16      1.0000 0.29390  0.79540  0.38270  Biso   1.000  H
  C17      1.0000 0.19113  0.04410  0.36215  Biso   1.000  C
  C18      1.0000 0.69113  0.54410  0.36215  Biso   1.000  C
  C19      1.0000 0.80887  0.95590  0.86215  Biso   1.000  C
  C20      1.0000 0.80887  0.04410  0.13785  Biso   1.000  C
  C21      1.0000 0.19113  0.95590  0.63785  Biso   1.000  C
  C22      1.0000 0.30887  0.45590  0.86215  Biso   1.000  C
  C23      1.0000 0.30887  0.54410  0.13785  Biso   1.000  C
  C24      1.0000 0.69113  0.45590  0.63785  Biso   1.000  C
  C25      1.0000 0.80887  0.95590  0.63785  Biso   1.000  C
  C26      1.0000 0.30887  0.45590  0.63785  Biso   1.000  C
  C27      1.0000 0.19113  0.04410  0.13785  Biso   1.000  C
  C28      1.0000 0.19113  0.95590  0.86215  Biso   1.000  C
  C29      1.0000 0.80887  0.04410  0.36215  Biso   1.000  C
  C30      1.0000 0.69113  0.54410  0.13785  Biso   1.000  C
  C31      1.0000 0.69113  0.45590  0.86215  Biso   1.000  C
  C32      1.0000 0.30887  0.54410  0.36215  Biso   1.000  C
  C33      1.0000 0.19461  0.89790  0.39170  Biso   1.000  C
  C34      1.0000 0.69461  0.39790  0.39170  Biso   1.000  C
  C35      1.0000 0.80539  0.10210  0.89170  Biso   1.000  C
  C36      1.0000 0.80539  0.89790  0.10830  Biso   1.000  C
  C37      1.0000 0.19461  0.10210  0.60830  Biso   1.000  C
  C38      1.0000 0.30539  0.60210  0.89170  Biso   1.000  C
  C39      1.0000 0.30539  0.39790  0.10830  Biso   1.000  C
  C40      1.0000 0.69461  0.60210  0.60830  Biso   1.000  C
  C41      1.0000 0.80539  0.10210  0.60830  Biso   1.000  C
  C42      1.0000 0.30539  0.60210  0.60830  Biso   1.000  C
  C43      1.0000 0.19461  0.89790  0.10830  Biso   1.000  C
  C44      1.0000 0.19461  0.10210  0.89170  Biso   1.000  C
  C45      1.0000 0.80539  0.89790  0.39170  Biso   1.000  C
  C46      1.0000 0.69461  0.39790  0.10830  Biso   1.000  C
  C47      1.0000 0.69461  0.60210  0.89170  Biso   1.000  C
  C48      1.0000 0.30539  0.39790  0.39170  Biso   1.000  C
  H17      1.0000 0.18690  0.78620  0.38040  Biso   1.000  H
  H18      1.0000 0.68690  0.28620  0.38040  Biso   1.000  H
  H19      1.0000 0.81310  0.21380  0.88040  Biso   1.000  H
  H20      1.0000 0.81310  0.78620  0.11960  Biso   1.000  H
  H21      1.0000 0.18690  0.21380  0.61960  Biso   1.000  H
  H22      1.0000 0.31310  0.71380  0.88040  Biso   1.000  H
  H23      1.0000 0.31310  0.28620  0.11960  Biso   1.000  H
  H24      1.0000 0.68690  0.71380  0.61960  Biso   1.000  H
  H25      1.0000 0.81310  0.21380  0.61960  Biso   1.000  H
  H26      1.0000 0.31310  0.71380  0.61960  Biso   1.000  H
  H27      1.0000 0.18690  0.78620  0.11960  Biso   1.000  H
  H28      1.0000 0.18690  0.21380  0.88040  Biso   1.000  H
  H29      1.0000 0.81310  0.78620  0.38040  Biso   1.000  H
  H30      1.0000 0.68690  0.28620  0.11960  Biso   1.000  H
  H31      1.0000 0.68690  0.71380  0.88040  Biso   1.000  H
  H32      1.0000 0.31310  0.28620  0.38040  Biso   1.000  H
  C49      1.0000 0.18401  0.05030  0.30484  Biso   1.000  C
  C50      1.0000 0.68401  0.55030  0.30484  Biso   1.000  C
  C51      1.0000 0.81599  0.94970  0.80484  Biso   1.000  C
  C52      1.0000 0.81599  0.05030  0.19516  Biso   1.000  C
  C53      1.0000 0.18401  0.94970  0.69516  Biso   1.000  C
  C54      1.0000 0.31599  0.44970  0.80484  Biso   1.000  C
  C55      1.0000 0.31599  0.55030  0.19516  Biso   1.000  C
  C56      1.0000 0.68401  0.44970  0.69516  Biso   1.000  C
  C57      1.0000 0.81599  0.94970  0.69516  Biso   1.000  C
  C58      1.0000 0.31599  0.44970  0.69516  Biso   1.000  C
  C59      1.0000 0.18401  0.05030  0.19516  Biso   1.000  C
  C60      1.0000 0.18401  0.94970  0.80484  Biso   1.000  C
  C61      1.0000 0.81599  0.05030  0.30484  Biso   1.000  C
  C62      1.0000 0.68401  0.55030  0.19516  Biso   1.000  C
  C63      1.0000 0.68401  0.44970  0.80484  Biso   1.000  C
  C64      1.0000 0.31599  0.55030  0.30484  Biso   1.000  C
  C65      1.0000 0.16616  0.91080  0.27782  Biso   1.000  C
  C66      1.0000 0.66616  0.41080  0.27782  Biso   1.000  C
  C67      1.0000 0.83384  0.08920  0.77782  Biso   1.000  C
  C68      1.0000 0.83384  0.91080  0.22218  Biso   1.000  C
  C69      1.0000 0.16616  0.08920  0.72218  Biso   1.000  C
  C70      1.0000 0.33384  0.58920  0.77782  Biso   1.000  C
  C71      1.0000 0.33384  0.41080  0.22218  Biso   1.000  C
  C72      1.0000 0.66616  0.58920  0.72218  Biso   1.000  C
  C73      1.0000 0.83384  0.08920  0.72218  Biso   1.000  C
  C74      1.0000 0.33384  0.58920  0.72218  Biso   1.000  C
  C75      1.0000 0.16616  0.91080  0.22218  Biso   1.000  C
  C76      1.0000 0.16616  0.08920  0.77782  Biso   1.000  C
  C77      1.0000 0.83384  0.91080  0.27782  Biso   1.000  C
  C78      1.0000 0.66616  0.41080  0.22218  Biso   1.000  C
  C79      1.0000 0.66616  0.58920  0.77782  Biso   1.000  C
  C80      1.0000 0.33384  0.41080  0.27782  Biso   1.000  C
  H33      1.0000 0.15360  0.81260  0.29660  Biso   1.000  H
  H34      1.0000 0.65360  0.31260  0.29660  Biso   1.000  H
  H35      1.0000 0.84640  0.18740  0.79660  Biso   1.000  H
  H36      1.0000 0.84640  0.81260  0.20340  Biso   1.000  H
  H37      1.0000 0.15360  0.18740  0.70340  Biso   1.000  H
  H38      1.0000 0.34640  0.68740  0.79660  Biso   1.000  H
  H39      1.0000 0.34640  0.31260  0.20340  Biso   1.000  H
  H40      1.0000 0.65360  0.68740  0.70340  Biso   1.000  H
  H41      1.0000 0.84640  0.18740  0.70340  Biso   1.000  H
  H42      1.0000 0.34640  0.68740  0.70340  Biso   1.000  H
  H43      1.0000 0.15360  0.81260  0.20340  Biso   1.000  H
  H44      1.0000 0.15360  0.18740  0.79660  Biso   1.000  H
  H45      1.0000 0.84640  0.81260  0.29660  Biso   1.000  H
  H46      1.0000 0.65360  0.31260  0.20340  Biso   1.000  H
  H47      1.0000 0.65360  0.68740  0.79660  Biso   1.000  H
  H48      1.0000 0.34640  0.31260  0.29660  Biso   1.000  H
  C81      1.0000 0.19884  0.19520  0.27743  Biso   1.000  C
  C82      1.0000 0.69884  0.69520  0.27743  Biso   1.000  C
  C83      1.0000 0.80116  0.80480  0.77743  Biso   1.000  C
  C84      1.0000 0.80116  0.19520  0.22257  Biso   1.000  C
  C85      1.0000 0.19884  0.80480  0.72257  Biso   1.000  C
  C86      1.0000 0.30116  0.30480  0.77743  Biso   1.000  C
  C87      1.0000 0.30116  0.69520  0.22257  Biso   1.000  C
  C88      1.0000 0.69884  0.30480  0.72257  Biso   1.000  C
  C89      1.0000 0.80116  0.80480  0.72257  Biso   1.000  C
  C90      1.0000 0.30116  0.30480  0.72257  Biso   1.000  C
  C91      1.0000 0.19884  0.19520  0.22257  Biso   1.000  C
  C92      1.0000 0.19884  0.80480  0.77743  Biso   1.000  C
  C93      1.0000 0.80116  0.19520  0.27743  Biso   1.000  C
  C94      1.0000 0.69884  0.69520  0.22257  Biso   1.000  C
  C95      1.0000 0.69884  0.30480  0.77743  Biso   1.000  C
  C96      1.0000 0.30116  0.69520  0.27743  Biso   1.000  C
  H49      1.0000 0.20920  0.29620  0.29620  Biso   1.000  H
  H50      1.0000 0.70920  0.79620  0.29620  Biso   1.000  H
  H51      1.0000 0.79080  0.70380  0.79620  Biso   1.000  H
  H52      1.0000 0.79080  0.29620  0.20380  Biso   1.000  H
  H53      1.0000 0.20920  0.70380  0.70380  Biso   1.000  H
  H54      1.0000 0.29080  0.20380  0.79620  Biso   1.000  H
  H55      1.0000 0.29080  0.79620  0.20380  Biso   1.000  H
  H56      1.0000 0.70920  0.20380  0.70380  Biso   1.000  H
  H57      1.0000 0.79080  0.70380  0.70380  Biso   1.000  H
  H58      1.0000 0.29080  0.20380  0.70380  Biso   1.000  H
  H59      1.0000 0.20920  0.29620  0.20380  Biso   1.000  H
  H60      1.0000 0.20920  0.70380  0.79620  Biso   1.000  H
  H61      1.0000 0.79080  0.29620  0.29620  Biso   1.000  H
  H62      1.0000 0.70920  0.79620  0.20380  Biso   1.000  H
  H63      1.0000 0.70920  0.20380  0.79620  Biso   1.000  H
  H64      1.0000 0.29080  0.79620  0.29620  Biso   1.000  H
  C97      1.0000 0.36020  0.14230  0.50001  Biso   1.000  C
  C98      1.0000 0.86020  0.64230  0.50001  Biso   1.000  C
  C99      1.0000 0.63980  0.85770  0.00001  Biso   1.000  C
  C100     1.0000 0.63980  0.14230  0.99999  Biso   1.000  C
  C101     1.0000 0.36020  0.85770  0.49999  Biso   1.000  C
  C102     1.0000 0.13980  0.35770  0.00001  Biso   1.000  C
  C103     1.0000 0.13980  0.64230  0.99999  Biso   1.000  C
  C104     1.0000 0.86020  0.35770  0.49999  Biso   1.000  C
  C105     1.0000 0.63980  0.85770  0.49999  Biso   1.000  C
  C106     1.0000 0.13980  0.35770  0.49999  Biso   1.000  C
  C107     1.0000 0.36020  0.14230  0.99999  Biso   1.000  C
  C108     1.0000 0.36020  0.85770  0.00001  Biso   1.000  C
  C109     1.0000 0.63980  0.14230  0.50001  Biso   1.000  C
  C110     1.0000 0.86020  0.64230  0.99999  Biso   1.000  C
  C111     1.0000 0.86020  0.35770  0.00001  Biso   1.000  C
  C112     1.0000 0.13980  0.64230  0.50001  Biso   1.000  C
  H65      1.0000 0.37100  0.25720  0.50010  Biso   1.000  H
  H66      1.0000 0.87100  0.75720  0.50010  Biso   1.000  H
  H67      1.0000 0.62900  0.74280  0.00010  Biso   1.000  H
  H68      1.0000 0.62900  0.25720  0.99990  Biso   1.000  H
  H69      1.0000 0.37100  0.74280  0.49990  Biso   1.000  H
  H70      1.0000 0.12900  0.24280  0.00010  Biso   1.000  H
  H71      1.0000 0.12900  0.75720  0.99990  Biso   1.000  H
  H72      1.0000 0.87100  0.24280  0.49990  Biso   1.000  H
  H73      1.0000 0.62900  0.74280  0.49990  Biso   1.000  H
  H74      1.0000 0.12900  0.24280  0.49990  Biso   1.000  H
  H75      1.0000 0.37100  0.25720  0.99990  Biso   1.000  H
  H76      1.0000 0.37100  0.74280  0.00010  Biso   1.000  H
  H77      1.0000 0.62900  0.25720  0.50010  Biso   1.000  H
  H78      1.0000 0.87100  0.75720  0.99990  Biso   1.000  H
  H79      1.0000 0.87100  0.24280  0.00010  Biso   1.000  H
  H80      1.0000 0.12900  0.75720  0.50010  Biso   1.000  H
  C113     1.0000 0.39084  0.00000  0.50000  Biso   1.000  C
  C114     1.0000 0.89084  0.50000  0.50000  Biso   1.000  C
  C115     1.0000 0.60916  0.00000  0.00000  Biso   1.000  C
  C116     1.0000 0.10916  0.50000  0.00000  Biso   1.000  C
  C117     1.0000 0.60916  0.00000  0.50000  Biso   1.000  C
  C118     1.0000 0.10916  0.50000  0.50000  Biso   1.000  C
  C119     1.0000 0.39084  0.00000  0.00000  Biso   1.000  C
  C120     1.0000 0.89084  0.50000  0.00000  Biso   1.000  C
  C121     1.0000 0.44708  0.00000  0.50000  Biso   1.000  C
  C122     1.0000 0.94708  0.50000  0.50000  Biso   1.000  C
  C123     1.0000 0.55292  0.00000  0.00000  Biso   1.000  C
  C124     1.0000 0.05292  0.50000  0.00000  Biso   1.000  C
  C125     1.0000 0.55292  0.00000  0.50000  Biso   1.000  C
  C126     1.0000 0.05292  0.50000  0.50000  Biso   1.000  C
  C127     1.0000 0.44708  0.00000  0.00000  Biso   1.000  C
  C128     1.0000 0.94708  0.50000  0.00000  Biso   1.000  C
  C129     1.0000 0.47318  0.11240  0.53290  Biso   1.000  C
  C130     1.0000 0.97318  0.61240  0.53290  Biso   1.000  C
  C131     1.0000 0.52682  0.88760  0.03290  Biso   1.000  C
  C132     1.0000 0.52682  0.11240  0.96710  Biso   1.000  C
  C133     1.0000 0.47318  0.88760  0.46710  Biso   1.000  C
  C134     1.0000 0.02682  0.38760  0.03290  Biso   1.000  C
  C135     1.0000 0.02682  0.61240  0.96710  Biso   1.000  C
  C136     1.0000 0.97318  0.38760  0.46710  Biso   1.000  C
  C137     1.0000 0.52682  0.88760  0.46710  Biso   1.000  C
  C138     1.0000 0.02682  0.38760  0.46710  Biso   1.000  C
  C139     1.0000 0.47318  0.11240  0.96710  Biso   1.000  C
  C140     1.0000 0.47318  0.88760  0.03290  Biso   1.000  C
  C141     1.0000 0.52682  0.11240  0.53290  Biso   1.000  C
  C142     1.0000 0.97318  0.61240  0.96710  Biso   1.000  C
  C143     1.0000 0.97318  0.38760  0.03290  Biso   1.000  C
  C144     1.0000 0.02682  0.61240  0.53290  Biso   1.000  C
  H81      1.0000 0.45470  0.19040  0.55560  Biso   1.000  H
  H82      1.0000 0.95470  0.69040  0.55560  Biso   1.000  H
  H83      1.0000 0.54530  0.80960  0.05560  Biso   1.000  H
  H84      1.0000 0.54530  0.19040  0.94440  Biso   1.000  H
  H85      1.0000 0.45470  0.80960  0.44440  Biso   1.000  H
  H86      1.0000 0.04530  0.30960  0.05560  Biso   1.000  H
  H87      1.0000 0.04530  0.69040  0.94440  Biso   1.000  H
  H88      1.0000 0.95470  0.30960  0.44440  Biso   1.000  H
  H89      1.0000 0.54530  0.80960  0.44440  Biso   1.000  H
  H90      1.0000 0.04530  0.30960  0.44440  Biso   1.000  H
  H91      1.0000 0.45470  0.19040  0.94440  Biso   1.000  H
  H92      1.0000 0.45470  0.80960  0.05560  Biso   1.000  H
  H93      1.0000 0.54530  0.19040  0.55560  Biso   1.000  H
  H94      1.0000 0.95470  0.69040  0.94440  Biso   1.000  H
  H95      1.0000 0.95470  0.30960  0.05560  Biso   1.000  H
  H96      1.0000 0.04530  0.69040  0.55560  Biso   1.000  H
  C145     1.0000 0.47290  0.10710  0.46550  Biso   1.000  C
  C146     1.0000 0.97290  0.60710  0.46550  Biso   1.000  C
  C147     1.0000 0.52710  0.89290  0.96550  Biso   1.000  C
  C148     1.0000 0.52710  0.10710  0.03450  Biso   1.000  C
  C149     1.0000 0.47290  0.89290  0.53450  Biso   1.000  C
  C150     1.0000 0.02710  0.39290  0.96550  Biso   1.000  C
  C151     1.0000 0.02710  0.60710  0.03450  Biso   1.000  C
  C152     1.0000 0.97290  0.39290  0.53450  Biso   1.000  C
  C153     1.0000 0.52710  0.89290  0.53450  Biso   1.000  C
  C154     1.0000 0.02710  0.39290  0.53450  Biso   1.000  C
  C155     1.0000 0.47290  0.10710  0.03450  Biso   1.000  C
  C156     1.0000 0.47290  0.89290  0.96550  Biso   1.000  C
  C157     1.0000 0.52710  0.10710  0.46550  Biso   1.000  C
  C158     1.0000 0.97290  0.60710  0.03450  Biso   1.000  C
  C159     1.0000 0.97290  0.39290  0.96550  Biso   1.000  C
  C160     1.0000 0.02710  0.60710  0.46550  Biso   1.000  C
  H97      1.0000 0.45470  0.18050  0.44170  Biso   1.000  H
  H98      1.0000 0.95470  0.68050  0.44170  Biso   1.000  H
  H99      1.0000 0.54530  0.81950  0.94170  Biso   1.000  H
  H100     1.0000 0.54530  0.18050  0.05830  Biso   1.000  H
  H101     1.0000 0.45470  0.81950  0.55830  Biso   1.000  H
  H102     1.0000 0.04530  0.31950  0.94170  Biso   1.000  H
  H103     1.0000 0.04530  0.68050  0.05830  Biso   1.000  H
  H104     1.0000 0.95470  0.31950  0.55830  Biso   1.000  H
  H105     1.0000 0.54530  0.81950  0.55830  Biso   1.000  H
  H106     1.0000 0.04530  0.31950  0.55830  Biso   1.000  H
  H107     1.0000 0.45470  0.18050  0.05830  Biso   1.000  H
  H108     1.0000 0.45470  0.81950  0.94170  Biso   1.000  H
  H109     1.0000 0.54530  0.18050  0.44170  Biso   1.000  H
  H110     1.0000 0.95470  0.68050  0.05830  Biso   1.000  H
  H111     1.0000 0.95470  0.31950  0.94170  Biso   1.000  H
  H112     1.0000 0.04530  0.68050  0.44170  Biso   1.000  H
  Cl1      1.0000 0.12810  0.52240  0.36610  Biso   1.000  Cl
  Cl2      1.0000 0.62810  0.02240  0.36610  Biso   1.000  Cl
  Cl3      1.0000 0.87190  0.47760  0.86610  Biso   1.000  Cl
  Cl4      1.0000 0.87190  0.52240  0.13390  Biso   1.000  Cl
  Cl5      1.0000 0.12810  0.47760  0.63390  Biso   1.000  Cl
  Cl6      1.0000 0.37190  0.97760  0.86610  Biso   1.000  Cl
  Cl7      1.0000 0.37190  0.02240  0.13390  Biso   1.000  Cl
  Cl8      1.0000 0.62810  0.97760  0.63390  Biso   1.000  Cl
  Cl9      1.0000 0.87190  0.47760  0.63390  Biso   1.000  Cl
  Cl10     1.0000 0.37190  0.97760  0.63390  Biso   1.000  Cl
  Cl11     1.0000 0.12810  0.52240  0.13390  Biso   1.000  Cl
  Cl12     1.0000 0.12810  0.47760  0.86610  Biso   1.000  Cl
  Cl13     1.0000 0.87190  0.52240  0.36610  Biso   1.000  Cl
  Cl14     1.0000 0.62810  0.02240  0.13390  Biso   1.000  Cl
  Cl15     1.0000 0.62810  0.97760  0.86610  Biso   1.000  Cl
  Cl16     1.0000 0.37190  0.02240  0.36610  Biso   1.000  Cl
  O1       1.0000 0.17462  0.53270  0.36519  Biso   1.000  O
  O2       1.0000 0.67462  0.03270  0.36519  Biso   1.000  O
  O3       1.0000 0.82538  0.46730  0.86519  Biso   1.000  O
  O4       1.0000 0.82538  0.53270  0.13481  Biso   1.000  O
  O5       1.0000 0.17462  0.46730  0.63481  Biso   1.000  O
  O6       1.0000 0.32538  0.96730  0.86519  Biso   1.000  O
  O7       1.0000 0.32538  0.03270  0.13481  Biso   1.000  O
  O8       1.0000 0.67462  0.96730  0.63481  Biso   1.000  O
  O9       1.0000 0.82538  0.46730  0.63481  Biso   1.000  O
  O10      1.0000 0.32538  0.96730  0.63481  Biso   1.000  O
  O11      1.0000 0.17462  0.53270  0.13481  Biso   1.000  O
  O12      1.0000 0.17462  0.46730  0.86519  Biso   1.000  O
  O13      1.0000 0.82538  0.53270  0.36519  Biso   1.000  O
  O14      1.0000 0.67462  0.03270  0.13481  Biso   1.000  O
  O15      1.0000 0.67462  0.96730  0.86519  Biso   1.000  O
  O16      1.0000 0.32538  0.03270  0.36519  Biso   1.000  O
  O17      1.0000 0.41049  0.50040  0.51176  Biso   1.000  O
  O18      1.0000 0.91049  0.00040  0.51176  Biso   1.000  O
  O19      1.0000 0.58951  0.49960  0.01176  Biso   1.000  O
  O20      1.0000 0.58951  0.50040  0.98824  Biso   1.000  O
  O21      1.0000 0.41049  0.49960  0.48824  Biso   1.000  O
  O22      1.0000 0.08951  0.99960  0.01176  Biso   1.000  O
  O23      1.0000 0.08951  0.00040  0.98824  Biso   1.000  O
  O24      1.0000 0.91049  0.99960  0.48824  Biso   1.000  O
  O25      1.0000 0.58951  0.49960  0.48824  Biso   1.000  O
  O26      1.0000 0.08951  0.99960  0.48824  Biso   1.000  O
  O27      1.0000 0.41049  0.50040  0.98824  Biso   1.000  O
  O28      1.0000 0.41049  0.49960  0.01176  Biso   1.000  O
  O29      1.0000 0.58951  0.50040  0.51176  Biso   1.000  O
  O30      1.0000 0.91049  0.00040  0.98824  Biso   1.000  O
  O31      1.0000 0.91049  0.99960  0.01176  Biso   1.000  O
  O32      1.0000 0.08951  0.00040  0.51176  Biso   1.000  O
