data_image0
_cell_length_a       7.1442
_cell_length_b       19.4387
_cell_length_c       17.3114
_cell_angle_alpha    90
_cell_angle_beta     90
_cell_angle_gamma    90

_symmetry_space_group_name_H-M    "P 1"
_symmetry_int_tables_number       1

loop_
  _symmetry_equiv_pos_as_xyz
  'x, y, z'

loop_
  _atom_site_label
  _atom_site_occupancy
  _atom_site_fract_x
  _atom_site_fract_y
  _atom_site_fract_z
  _atom_site_thermal_displace_type
  _atom_site_B_iso_or_equiv
  _atom_site_type_symbol
  Cu1      1.0000 0.21540  0.75000  0.25440  Biso   1.000  Cu
  Cu2      1.0000 0.28460  0.25000  0.75440  Biso   1.000  Cu
  Cu3      1.0000 0.78460  0.25000  0.74560  Biso   1.000  Cu
  Cu4      1.0000 0.71540  0.75000  0.24560  Biso   1.000  Cu
  S1       1.0000 0.46508  0.75000  0.07183  Biso   1.000  S
  S2       1.0000 0.03492  0.25000  0.57183  Biso   1.000  S
  S3       1.0000 0.53492  0.25000  0.92817  Biso   1.000  S
  S4       1.0000 0.96508  0.75000  0.42817  Biso   1.000  S
  O1       1.0000 0.46740  0.75000  0.15749  Biso   1.000  O
  O2       1.0000 0.03260  0.25000  0.65749  Biso   1.000  O
  O3       1.0000 0.53260  0.25000  0.84251  Biso   1.000  O
  O4       1.0000 0.96740  0.75000  0.34251  Biso   1.000  O
  O5       1.0000 0.29410  0.77850  0.04110  Biso   1.000  O
  O6       1.0000 0.20590  0.22150  0.54110  Biso   1.000  O
  O7       1.0000 0.70590  0.27850  0.95890  Biso   1.000  O
  O8       1.0000 0.79410  0.72150  0.45890  Biso   1.000  O
  O9       1.0000 0.70590  0.22150  0.95890  Biso   1.000  O
  O10      1.0000 0.79410  0.77850  0.45890  Biso   1.000  O
  O11      1.0000 0.29410  0.72150  0.04110  Biso   1.000  O
  O12      1.0000 0.20590  0.27850  0.54110  Biso   1.000  O
  O13      1.0000 0.63010  0.78100  0.03920  Biso   1.000  O
  O14      1.0000 0.86990  0.21900  0.53920  Biso   1.000  O
  O15      1.0000 0.36990  0.28100  0.96080  Biso   1.000  O
  O16      1.0000 0.13010  0.71900  0.46080  Biso   1.000  O
  O17      1.0000 0.36990  0.21900  0.96080  Biso   1.000  O
  O18      1.0000 0.13010  0.78100  0.46080  Biso   1.000  O
  O19      1.0000 0.63010  0.71900  0.03920  Biso   1.000  O
  O20      1.0000 0.86990  0.28100  0.53920  Biso   1.000  O
  O21      1.0000 0.46960  0.67340  0.05400  Biso   1.000  O
  O22      1.0000 0.03040  0.32660  0.55400  Biso   1.000  O
  O23      1.0000 0.53040  0.17340  0.94600  Biso   1.000  O
  O24      1.0000 0.96960  0.82660  0.44600  Biso   1.000  O
  O25      1.0000 0.53040  0.32660  0.94600  Biso   1.000  O
  O26      1.0000 0.96960  0.67340  0.44600  Biso   1.000  O
  O27      1.0000 0.46960  0.82660  0.05400  Biso   1.000  O
  O28      1.0000 0.03040  0.17340  0.55400  Biso   1.000  O
  N1       1.0000 0.06660  0.67796  0.19876  Biso   1.000  N
  N2       1.0000 0.43340  0.32204  0.69876  Biso   1.000  N
  N3       1.0000 0.93340  0.17796  0.80124  Biso   1.000  N
  N4       1.0000 0.56660  0.82204  0.30124  Biso   1.000  N
  N5       1.0000 0.93340  0.32204  0.80124  Biso   1.000  N
  N6       1.0000 0.56660  0.67796  0.30124  Biso   1.000  N
  N7       1.0000 0.06660  0.82204  0.19876  Biso   1.000  N
  N8       1.0000 0.43340  0.17796  0.69876  Biso   1.000  N
  N9       1.0000 0.87460  0.67760  0.19458  Biso   1.000  N
  N10      1.0000 0.62540  0.32240  0.69458  Biso   1.000  N
  N11      1.0000 0.12540  0.17760  0.80542  Biso   1.000  N
  N12      1.0000 0.37460  0.82240  0.30542  Biso   1.000  N
  N13      1.0000 0.12540  0.32240  0.80542  Biso   1.000  N
  N14      1.0000 0.37460  0.67760  0.30542  Biso   1.000  N
  N15      1.0000 0.87460  0.82240  0.19458  Biso   1.000  N
  N16      1.0000 0.62540  0.17760  0.69458  Biso   1.000  N
  N17      1.0000 0.98130  0.59919  0.11729  Biso   1.000  N
  N18      1.0000 0.51870  0.40081  0.61729  Biso   1.000  N
  N19      1.0000 0.01870  0.09919  0.88271  Biso   1.000  N
  N20      1.0000 0.48130  0.90081  0.38271  Biso   1.000  N
  N21      1.0000 0.01870  0.40081  0.88271  Biso   1.000  N
  N22      1.0000 0.48130  0.59919  0.38271  Biso   1.000  N
  N23      1.0000 0.98130  0.90081  0.11729  Biso   1.000  N
  N24      1.0000 0.51870  0.09919  0.61729  Biso   1.000  N
  C1       1.0000 0.12960  0.63046  0.15152  Biso   1.000  C
  C2       1.0000 0.37040  0.36954  0.65152  Biso   1.000  C
  C3       1.0000 0.87040  0.13046  0.84848  Biso   1.000  C
  C4       1.0000 0.62960  0.86954  0.34848  Biso   1.000  C
  C5       1.0000 0.87040  0.36954  0.84848  Biso   1.000  C
  C6       1.0000 0.62960  0.63046  0.34848  Biso   1.000  C
  C7       1.0000 0.12960  0.86954  0.15152  Biso   1.000  C
  C8       1.0000 0.37040  0.13046  0.65152  Biso   1.000  C
  H1       1.0000 0.25490  0.62000  0.14290  Biso   1.000  H
  H2       1.0000 0.24510  0.38000  0.64290  Biso   1.000  H
  H3       1.0000 0.74510  0.12000  0.85710  Biso   1.000  H
  H4       1.0000 0.75490  0.88000  0.35710  Biso   1.000  H
  H5       1.0000 0.74510  0.38000  0.85710  Biso   1.000  H
  H6       1.0000 0.75490  0.62000  0.35710  Biso   1.000  H
  H7       1.0000 0.25490  0.88000  0.14290  Biso   1.000  H
  H8       1.0000 0.24510  0.12000  0.64290  Biso   1.000  H
  C9       1.0000 0.82510  0.62997  0.14561  Biso   1.000  C
  C10      1.0000 0.67490  0.37003  0.64561  Biso   1.000  C
  C11      1.0000 0.17490  0.12997  0.85439  Biso   1.000  C
  C12      1.0000 0.32510  0.87003  0.35439  Biso   1.000  C
  C13      1.0000 0.17490  0.37003  0.85439  Biso   1.000  C
  C14      1.0000 0.32510  0.62997  0.35439  Biso   1.000  C
  C15      1.0000 0.82510  0.87003  0.14561  Biso   1.000  C
  C16      1.0000 0.67490  0.12997  0.64561  Biso   1.000  C
  H9       1.0000 0.70260  0.61890  0.13230  Biso   1.000  H
  H10      1.0000 0.79740  0.38110  0.63230  Biso   1.000  H
  H11      1.0000 0.29740  0.11890  0.86770  Biso   1.000  H
  H12      1.0000 0.20260  0.88110  0.36770  Biso   1.000  H
  H13      1.0000 0.29740  0.38110  0.86770  Biso   1.000  H
  H14      1.0000 0.20260  0.61890  0.36770  Biso   1.000  H
  H15      1.0000 0.70260  0.88110  0.13230  Biso   1.000  H
  H16      1.0000 0.79740  0.11890  0.63230  Biso   1.000  H
  C17      1.0000 0.99020  0.54760  0.05727  Biso   1.000  C
  C18      1.0000 0.50980  0.45240  0.55727  Biso   1.000  C
  C19      1.0000 0.00980  0.04760  0.94273  Biso   1.000  C
  C20      1.0000 0.49020  0.95240  0.44273  Biso   1.000  C
  C21      1.0000 0.00980  0.45240  0.94273  Biso   1.000  C
  C22      1.0000 0.49020  0.54760  0.44273  Biso   1.000  C
  C23      1.0000 0.99020  0.95240  0.05727  Biso   1.000  C
  C24      1.0000 0.50980  0.04760  0.55727  Biso   1.000  C
  C25      1.0000 0.86920  0.49260  0.05860  Biso   1.000  C
  C26      1.0000 0.63080  0.50740  0.55860  Biso   1.000  C
  C27      1.0000 0.13080  0.99260  0.94140  Biso   1.000  C
  C28      1.0000 0.36920  0.00740  0.44140  Biso   1.000  C
  C29      1.0000 0.13080  0.50740  0.94140  Biso   1.000  C
  C30      1.0000 0.36920  0.49260  0.44140  Biso   1.000  C
  C31      1.0000 0.86920  0.00740  0.05860  Biso   1.000  C
  C32      1.0000 0.63080  0.99260  0.55860  Biso   1.000  C
  H17      1.0000 0.78130  0.48810  0.09790  Biso   1.000  H
  H18      1.0000 0.71870  0.51190  0.59790  Biso   1.000  H
  H19      1.0000 0.21870  0.98810  0.90210  Biso   1.000  H
  H20      1.0000 0.28130  0.01190  0.40210  Biso   1.000  H
  H21      1.0000 0.21870  0.51190  0.90210  Biso   1.000  H
  H22      1.0000 0.28130  0.48810  0.40210  Biso   1.000  H
  H23      1.0000 0.78130  0.01190  0.09790  Biso   1.000  H
  H24      1.0000 0.71870  0.98810  0.59790  Biso   1.000  H
  C33      1.0000 0.11930  0.55580  0.99930  Biso   1.000  C
  C34      1.0000 0.38070  0.44420  0.49930  Biso   1.000  C
  C35      1.0000 0.88070  0.05580  0.00070  Biso   1.000  C
  C36      1.0000 0.61930  0.94420  0.50070  Biso   1.000  C
  C37      1.0000 0.88070  0.44420  0.00070  Biso   1.000  C
  C38      1.0000 0.61930  0.55580  0.50070  Biso   1.000  C
  C39      1.0000 0.11930  0.94420  0.99930  Biso   1.000  C
  C40      1.0000 0.38070  0.05580  0.49930  Biso   1.000  C
  H25      1.0000 0.19850  0.59380  0.99920  Biso   1.000  H
  H26      1.0000 0.30150  0.40620  0.49920  Biso   1.000  H
  H27      1.0000 0.80150  0.09380  0.00080  Biso   1.000  H
  H28      1.0000 0.69850  0.90620  0.50080  Biso   1.000  H
  H29      1.0000 0.80150  0.40620  0.00080  Biso   1.000  H
  H30      1.0000 0.69850  0.59380  0.50080  Biso   1.000  H
  H31      1.0000 0.19850  0.90620  0.99920  Biso   1.000  H
  H32      1.0000 0.30150  0.09380  0.49920  Biso   1.000  H
  O29      1.0000 0.96180  0.77660  0.98500  Biso   1.000  O
  O30      1.0000 0.53820  0.22340  0.48500  Biso   1.000  O
  O31      1.0000 0.03820  0.27660  0.01500  Biso   1.000  O
  O32      1.0000 0.46180  0.72340  0.51500  Biso   1.000  O
  O33      1.0000 0.03820  0.22340  0.01500  Biso   1.000  O
  O34      1.0000 0.46180  0.77660  0.51500  Biso   1.000  O
  O35      1.0000 0.96180  0.72340  0.98500  Biso   1.000  O
  O36      1.0000 0.53820  0.27660  0.48500  Biso   1.000  O
  O37      1.0000 0.59100  0.61100  0.93020  Biso   1.000  O
  O38      1.0000 0.90900  0.38900  0.43020  Biso   1.000  O
  O39      1.0000 0.40900  0.11100  0.06980  Biso   1.000  O
  O40      1.0000 0.09100  0.88900  0.56980  Biso   1.000  O
  O41      1.0000 0.40900  0.38900  0.06980  Biso   1.000  O
  O42      1.0000 0.09100  0.61100  0.56980  Biso   1.000  O
  O43      1.0000 0.59100  0.88900  0.93020  Biso   1.000  O
  O44      1.0000 0.90900  0.11100  0.43020  Biso   1.000  O
  O45      1.0000 0.49900  0.62680  0.90300  Biso   1.000  O
  O46      1.0000 0.00100  0.37320  0.40300  Biso   1.000  O
  O47      1.0000 0.50100  0.12680  0.09700  Biso   1.000  O
  O48      1.0000 0.99900  0.87320  0.59700  Biso   1.000  O
  O49      1.0000 0.50100  0.37320  0.09700  Biso   1.000  O
  O50      1.0000 0.99900  0.62680  0.59700  Biso   1.000  O
  O51      1.0000 0.49900  0.87320  0.90300  Biso   1.000  O
  O52      1.0000 0.00100  0.12680  0.40300  Biso   1.000  O
  O53      1.0000 0.46000  0.51850  0.16400  Biso   1.000  O
  O54      1.0000 0.04000  0.48150  0.66400  Biso   1.000  O
  O55      1.0000 0.54000  0.01850  0.83600  Biso   1.000  O
  O56      1.0000 0.96000  0.98150  0.33600  Biso   1.000  O
  O57      1.0000 0.54000  0.48150  0.83600  Biso   1.000  O
  O58      1.0000 0.96000  0.51850  0.33600  Biso   1.000  O
  O59      1.0000 0.46000  0.98150  0.16400  Biso   1.000  O
  O60      1.0000 0.04000  0.01850  0.66400  Biso   1.000  O
  O61      1.0000 0.46800  0.53360  0.09940  Biso   1.000  O
  O62      1.0000 0.03200  0.46640  0.59940  Biso   1.000  O
  O63      1.0000 0.53200  0.03360  0.90060  Biso   1.000  O
  O64      1.0000 0.96800  0.96640  0.40060  Biso   1.000  O
  O65      1.0000 0.53200  0.46640  0.90060  Biso   1.000  O
  O66      1.0000 0.96800  0.53360  0.40060  Biso   1.000  O
  O67      1.0000 0.46800  0.96640  0.09940  Biso   1.000  O
  O68      1.0000 0.03200  0.03360  0.59940  Biso   1.000  O
  O69      1.0000 0.90800  0.83900  0.84330  Biso   1.000  O
  O70      1.0000 0.59200  0.16100  0.34330  Biso   1.000  O
  O71      1.0000 0.09200  0.33900  0.15670  Biso   1.000  O
  O72      1.0000 0.40800  0.66100  0.65670  Biso   1.000  O
  O73      1.0000 0.09200  0.16100  0.15670  Biso   1.000  O
  O74      1.0000 0.40800  0.83900  0.65670  Biso   1.000  O
  O75      1.0000 0.90800  0.66100  0.84330  Biso   1.000  O
  O76      1.0000 0.59200  0.33900  0.34330  Biso   1.000  O
