data_image0
_cell_length_a       5.1275
_cell_length_b       16.3726
_cell_length_c       10.8005
_cell_angle_alpha    90
_cell_angle_beta     99.531
_cell_angle_gamma    90

_symmetry_space_group_name_H-M    "P 1"
_symmetry_int_tables_number       1

loop_
  _symmetry_equiv_pos_as_xyz
  'x, y, z'

loop_
  _atom_site_label
  _atom_site_occupancy
  _atom_site_fract_x
  _atom_site_fract_y
  _atom_site_fract_z
  _atom_site_thermal_displace_type
  _atom_site_B_iso_or_equiv
  _atom_site_type_symbol
  Cu1      1.0000 0.50000  0.50000  0.50000  Biso   1.000  Cu
  Cu2      1.0000 0.50000  0.00000  0.00000  Biso   1.000  Cu
  Cu3      1.0000 0.45756  0.68434  0.62846  Biso   1.000  Cu
  Cu4      1.0000 0.54244  0.18434  0.87154  Biso   1.000  Cu
  Cu5      1.0000 0.54244  0.31566  0.37154  Biso   1.000  Cu
  Cu6      1.0000 0.45756  0.81566  0.12846  Biso   1.000  Cu
  S1       1.0000 0.54780  0.68873  0.34611  Biso   1.000  S
  S2       1.0000 0.45220  0.18873  0.15389  Biso   1.000  S
  S3       1.0000 0.45220  0.31127  0.65389  Biso   1.000  S
  S4       1.0000 0.54780  0.81127  0.84611  Biso   1.000  S
  O1       1.0000 0.28440  0.58844  0.55140  Biso   1.000  O
  O2       1.0000 0.71560  0.08844  0.94860  Biso   1.000  O
  O3       1.0000 0.71560  0.41156  0.44860  Biso   1.000  O
  O4       1.0000 0.28440  0.91156  0.05140  Biso   1.000  O
  H1       1.0000 0.16810  0.60090  0.49850  Biso   1.000  H
  H2       1.0000 0.83190  0.10090  0.00150  Biso   1.000  H
  H3       1.0000 0.83190  0.39910  0.50150  Biso   1.000  H
  H4       1.0000 0.16810  0.89910  0.99850  Biso   1.000  H
  O5       1.0000 0.64540  0.73040  0.23888  Biso   1.000  O
  O6       1.0000 0.35460  0.23040  0.26112  Biso   1.000  O
  O7       1.0000 0.35460  0.26960  0.76112  Biso   1.000  O
  O8       1.0000 0.64540  0.76960  0.73888  Biso   1.000  O
  O9       1.0000 0.64700  0.73426  0.46383  Biso   1.000  O
  O10      1.0000 0.35300  0.23426  0.03617  Biso   1.000  O
  O11      1.0000 0.35300  0.26574  0.53617  Biso   1.000  O
  O12      1.0000 0.64700  0.76574  0.96383  Biso   1.000  O
  O13      1.0000 0.65290  0.60578  0.35652  Biso   1.000  O
  O14      1.0000 0.34710  0.10578  0.14348  Biso   1.000  O
  O15      1.0000 0.34710  0.39422  0.64348  Biso   1.000  O
  O16      1.0000 0.65290  0.89422  0.85652  Biso   1.000  O
  O17      1.0000 0.25640  0.69046  0.32347  Biso   1.000  O
  O18      1.0000 0.74360  0.19046  0.17653  Biso   1.000  O
  O19      1.0000 0.74360  0.30954  0.67653  Biso   1.000  O
  O20      1.0000 0.25640  0.80954  0.82347  Biso   1.000  O
  O21      1.0000 0.14460  0.75608  0.59000  Biso   1.000  O
  O22      1.0000 0.85540  0.25608  0.91000  Biso   1.000  O
  O23      1.0000 0.85540  0.24392  0.41000  Biso   1.000  O
  O24      1.0000 0.14460  0.74392  0.09000  Biso   1.000  O
  H5       1.0000 0.12400  0.77550  0.65770  Biso   1.000  H
  H6       1.0000 0.87600  0.27550  0.84230  Biso   1.000  H
  H7       1.0000 0.87600  0.22450  0.34230  Biso   1.000  H
  H8       1.0000 0.12400  0.72450  0.15770  Biso   1.000  H
  H9       1.0000 0.00160  0.74140  0.54610  Biso   1.000  H
  H10      1.0000 0.99840  0.24140  0.95390  Biso   1.000  H
  H11      1.0000 0.99840  0.25860  0.45390  Biso   1.000  H
  H12      1.0000 0.00160  0.75860  0.04610  Biso   1.000  H
  N1       1.0000 0.75510  0.53137  0.65249  Biso   1.000  N
  N2       1.0000 0.24490  0.03137  0.84751  Biso   1.000  N
  N3       1.0000 0.24490  0.46863  0.34751  Biso   1.000  N
  N4       1.0000 0.75510  0.96863  0.15249  Biso   1.000  N
  N5       1.0000 0.75130  0.60939  0.69979  Biso   1.000  N
  N6       1.0000 0.24870  0.10939  0.80021  Biso   1.000  N
  N7       1.0000 0.24870  0.39061  0.30021  Biso   1.000  N
  N8       1.0000 0.75130  0.89061  0.19979  Biso   1.000  N
  N9       1.0000 0.06550  0.54151  0.81611  Biso   1.000  N
  N10      1.0000 0.93450  0.04151  0.68389  Biso   1.000  N
  N11      1.0000 0.93450  0.45849  0.18389  Biso   1.000  N
  N12      1.0000 0.06550  0.95849  0.31611  Biso   1.000  N
  C1       1.0000 0.94220  0.49176  0.72336  Biso   1.000  C
  C2       1.0000 0.05780  0.99176  0.77664  Biso   1.000  C
  C3       1.0000 0.05780  0.50824  0.27664  Biso   1.000  C
  C4       1.0000 0.94220  0.00824  0.22336  Biso   1.000  C
  H13      1.0000 0.98620  0.43680  0.71230  Biso   1.000  H
  H14      1.0000 0.01380  0.93680  0.78770  Biso   1.000  H
  H15      1.0000 0.01380  0.56320  0.28770  Biso   1.000  H
  H16      1.0000 0.98620  0.06320  0.21230  Biso   1.000  H
  C5       1.0000 0.93850  0.61461  0.79727  Biso   1.000  C
  C6       1.0000 0.06150  0.11461  0.70273  Biso   1.000  C
  C7       1.0000 0.06150  0.38539  0.20273  Biso   1.000  C
  C8       1.0000 0.93850  0.88539  0.29727  Biso   1.000  C
  H17      1.0000 0.97940  0.66160  0.84680  Biso   1.000  H
  H18      1.0000 0.02060  0.16160  0.65320  Biso   1.000  H
  H19      1.0000 0.02060  0.33840  0.15320  Biso   1.000  H
  H20      1.0000 0.97940  0.83840  0.34680  Biso   1.000  H
  C9       1.0000 0.28610  0.52046  0.91055  Biso   1.000  C
  C10      1.0000 0.71390  0.02046  0.58945  Biso   1.000  C
  C11      1.0000 0.71390  0.47954  0.08945  Biso   1.000  C
  C12      1.0000 0.28610  0.97954  0.41055  Biso   1.000  C
  C13      1.0000 0.34280  0.43875  0.93680  Biso   1.000  C
  C14      1.0000 0.65720  0.93875  0.56320  Biso   1.000  C
  C15      1.0000 0.65720  0.56125  0.06320  Biso   1.000  C
  C16      1.0000 0.34280  0.06125  0.43680  Biso   1.000  C
  H21      1.0000 0.23590  0.39770  0.89380  Biso   1.000  H
  H22      1.0000 0.76410  0.89770  0.60620  Biso   1.000  H
  H23      1.0000 0.76410  0.60230  0.10620  Biso   1.000  H
  H24      1.0000 0.23590  0.10230  0.39380  Biso   1.000  H
  C17      1.0000 0.44180  0.58185  0.97330  Biso   1.000  C
  C18      1.0000 0.55820  0.08185  0.52670  Biso   1.000  C
  C19      1.0000 0.55820  0.41815  0.02670  Biso   1.000  C
  C20      1.0000 0.44180  0.91815  0.47330  Biso   1.000  C
  H25      1.0000 0.40150  0.63700  0.95500  Biso   1.000  H
  H26      1.0000 0.59850  0.13700  0.54500  Biso   1.000  H
  H27      1.0000 0.59850  0.36300  0.04500  Biso   1.000  H
  H28      1.0000 0.40150  0.86300  0.45500  Biso   1.000  H
