data_image0
_cell_length_a       13.3427
_cell_length_b       13.4047
_cell_length_c       13.562
_cell_angle_alpha    102.339
_cell_angle_beta     104.369
_cell_angle_gamma    90.477

_symmetry_space_group_name_H-M    "P 1"
_symmetry_int_tables_number       1

loop_
  _symmetry_equiv_pos_as_xyz
  'x, y, z'

loop_
  _atom_site_label
  _atom_site_occupancy
  _atom_site_fract_x
  _atom_site_fract_y
  _atom_site_fract_z
  _atom_site_thermal_displace_type
  _atom_site_B_iso_or_equiv
  _atom_site_type_symbol
  Cu1      1.0000 0.50000  0.50000  0.50000  Biso   1.000  Cu
  Cu2      1.0000 0.74129  0.57282  0.52392  Biso   1.000  Cu
  Cu3      1.0000 0.25871  0.42718  0.47608  Biso   1.000  Cu
  Cu4      1.0000 0.00000  0.50000  0.50000  Biso   1.000  Cu
  O1       1.0000 0.64540  0.47750  0.54560  Biso   1.000  O
  O2       1.0000 0.35460  0.52250  0.45440  Biso   1.000  O
  H1       1.0000 0.66270  0.46410  0.60650  Biso   1.000  H
  H2       1.0000 0.33730  0.53590  0.39350  Biso   1.000  H
  O3       1.0000 0.84420  0.42340  0.38180  Biso   1.000  O
  O4       1.0000 0.15580  0.57660  0.61820  Biso   1.000  O
  H3       1.0000 0.81650  0.38240  0.40960  Biso   1.000  H
  H4       1.0000 0.18350  0.61760  0.59040  Biso   1.000  H
  H5       1.0000 0.85810  0.38670  0.32750  Biso   1.000  H
  H6       1.0000 0.14190  0.61330  0.67250  Biso   1.000  H
  N1       1.0000 0.53790  0.52580  0.37330  Biso   1.000  N
  N2       1.0000 0.46210  0.47420  0.62670  Biso   1.000  N
  N3       1.0000 0.63890  0.55960  0.38240  Biso   1.000  N
  N4       1.0000 0.36110  0.44040  0.61760  Biso   1.000  N
  N5       1.0000 0.55370  0.53080  0.21860  Biso   1.000  N
  N6       1.0000 0.44630  0.46920  0.78140  Biso   1.000  N
  N7       1.0000 0.56440  0.68360  0.58840  Biso   1.000  N
  N8       1.0000 0.43560  0.31640  0.41160  Biso   1.000  N
  N9       1.0000 0.67050  0.70250  0.60940  Biso   1.000  N
  N10      1.0000 0.32950  0.29750  0.39060  Biso   1.000  N
  N11      1.0000 0.61130  0.82440  0.71020  Biso   1.000  N
  N12      1.0000 0.38870  0.17560  0.28980  Biso   1.000  N
  N13      1.0000 0.49940  0.27580  0.11900  Biso   1.000  N
  N14      1.0000 0.50060  0.72420  0.88100  Biso   1.000  N
  N15      1.0000 0.59830  0.26890  0.17630  Biso   1.000  N
  N16      1.0000 0.40170  0.73110  0.82370  Biso   1.000  N
  N17      1.0000 0.57200  0.15740  0.02610  Biso   1.000  N
  N18      1.0000 0.42800  0.84260  0.97390  Biso   1.000  N
  N19      1.0000 0.84460  0.66320  0.49030  Biso   1.000  N
  N20      1.0000 0.15540  0.33680  0.50970  Biso   1.000  N
  N21      1.0000 0.94380  0.63620  0.49040  Biso   1.000  N
  N22      1.0000 0.05620  0.36380  0.50960  Biso   1.000  N
  N23      1.0000 0.93550  0.79800  0.48820  Biso   1.000  N
  N24      1.0000 0.06450  0.20200  0.51180  Biso   1.000  N
  N25      1.0000 0.94480  0.49880  0.62690  Biso   1.000  N
  N26      1.0000 0.05520  0.50120  0.37310  Biso   1.000  N
  N27      1.0000 0.85430  0.54210  0.64170  Biso   1.000  N
  N28      1.0000 0.14570  0.45790  0.35830  Biso   1.000  N
  N29      1.0000 0.93990  0.51050  0.78880  Biso   1.000  N
  N30      1.0000 0.06010  0.48950  0.21120  Biso   1.000  N
  C1       1.0000 0.48950  0.50830  0.27370  Biso   1.000  C
  C2       1.0000 0.51050  0.49170  0.72630  Biso   1.000  C
  H7       1.0000 0.41990  0.48350  0.24530  Biso   1.000  H
  H8       1.0000 0.58010  0.51650  0.75470  Biso   1.000  H
  C3       1.0000 0.64610  0.56180  0.28880  Biso   1.000  C
  C4       1.0000 0.35390  0.43820  0.71120  Biso   1.000  C
  H9       1.0000 0.70650  0.58190  0.27230  Biso   1.000  H
  H10      1.0000 0.29350  0.41810  0.72770  Biso   1.000  H
  C5       1.0000 0.43110  0.54370  0.05640  Biso   1.000  C
  C6       1.0000 0.56890  0.45630  0.94360  Biso   1.000  C
  H11      1.0000 0.38530  0.57330  0.09520  Biso   1.000  H
  H12      1.0000 0.61470  0.42670  0.90480  Biso   1.000  H
  C7       1.0000 0.52760  0.51680  0.10660  Biso   1.000  C
  C8       1.0000 0.47240  0.48320  0.89340  Biso   1.000  C
  C9       1.0000 0.59690  0.47370  0.05140  Biso   1.000  C
  C10      1.0000 0.40310  0.52630  0.94860  Biso   1.000  C
  H13      1.0000 0.66210  0.45640  0.08670  Biso   1.000  H
  H14      1.0000 0.33790  0.54360  0.91330  Biso   1.000  H
  C11      1.0000 0.53170  0.75650  0.64910  Biso   1.000  C
  C12      1.0000 0.46830  0.24350  0.35090  Biso   1.000  C
  H15      1.0000 0.46200  0.76220  0.65100  Biso   1.000  H
  H16      1.0000 0.53800  0.23780  0.34900  Biso   1.000  H
  C13      1.0000 0.69660  0.78630  0.68260  Biso   1.000  C
  C14      1.0000 0.30340  0.21370  0.31740  Biso   1.000  C
  H17      1.0000 0.76460  0.81560  0.71180  Biso   1.000  H
  H18      1.0000 0.23540  0.18440  0.28820  Biso   1.000  H
  C15      1.0000 0.48660  0.21100  0.03100  Biso   1.000  C
  C16      1.0000 0.51340  0.78900  0.96900  Biso   1.000  C
  H19      1.0000 0.42560  0.20190  0.97670  Biso   1.000  H
  H20      1.0000 0.57440  0.79810  0.02330  Biso   1.000  H
  C17      1.0000 0.63930  0.19810  0.11950  Biso   1.000  C
  C18      1.0000 0.36070  0.80190  0.88050  Biso   1.000  C
  H21      1.0000 0.70710  0.17780  0.14060  Biso   1.000  H
  H22      1.0000 0.29290  0.82220  0.85940  Biso   1.000  H
  C19      1.0000 0.60450  0.91320  0.78830  Biso   1.000  C
  C20      1.0000 0.39550  0.08680  0.21170  Biso   1.000  C
  C21      1.0000 0.68050  0.93710  0.88150  Biso   1.000  C
  C22      1.0000 0.31950  0.06290  0.11850  Biso   1.000  C
  H23      1.0000 0.73870  0.89780  0.89200  Biso   1.000  H
  H24      1.0000 0.26130  0.10220  0.10800  Biso   1.000  H
  C23      1.0000 0.67060  0.01890  0.95870  Biso   1.000  C
  C24      1.0000 0.32940  0.98110  0.04130  Biso   1.000  C
  H25      1.0000 0.72280  0.03630  0.02150  Biso   1.000  H
  H26      1.0000 0.27720  0.96370  0.97850  Biso   1.000  H
  C25      1.0000 0.58420  0.07520  0.94430  Biso   1.000  C
  C26      1.0000 0.41580  0.92480  0.05570  Biso   1.000  C
  C27      1.0000 0.50900  0.05080  0.85200  Biso   1.000  C
  C28      1.0000 0.49100  0.94920  0.14800  Biso   1.000  C
  H27      1.0000 0.45010  0.08910  0.84210  Biso   1.000  H
  H28      1.0000 0.54990  0.91090  0.15790  Biso   1.000  H
  C29      1.0000 0.51950  0.97010  0.77330  Biso   1.000  C
  C30      1.0000 0.48050  0.02990  0.22670  Biso   1.000  C
  H29      1.0000 0.46830  0.95430  0.70960  Biso   1.000  H
  H30      1.0000 0.53170  0.04570  0.29040  Biso   1.000  H
  C31      1.0000 0.84090  0.75960  0.48900  Biso   1.000  C
  C32      1.0000 0.15910  0.24040  0.51100  Biso   1.000  C
  H31      1.0000 0.78180  0.79730  0.48860  Biso   1.000  H
  H32      1.0000 0.21820  0.20270  0.51140  Biso   1.000  H
  C33      1.0000 0.99730  0.71780  0.48950  Biso   1.000  C
  C34      1.0000 0.00270  0.28220  0.51050  Biso   1.000  C
  H33      1.0000 0.06770  0.72070  0.48960  Biso   1.000  H
  H34      1.0000 0.93230  0.27930  0.51040  Biso   1.000  H
  C35      1.0000 0.92630  0.98010  0.55170  Biso   1.000  C
  C36      1.0000 0.07370  0.01990  0.44830  Biso   1.000  C
  H35      1.0000 0.87680  0.96620  0.58650  Biso   1.000  H
  H36      1.0000 0.12320  0.03380  0.41350  Biso   1.000  H
  C37      1.0000 0.96770  0.90140  0.49350  Biso   1.000  C
  C38      1.0000 0.03230  0.09860  0.50650  Biso   1.000  C
  C39      1.0000 0.04050  0.91940  0.44240  Biso   1.000  C
  C40      1.0000 0.95950  0.08060  0.55760  Biso   1.000  C
  H37      1.0000 0.06780  0.86440  0.40380  Biso   1.000  H
  H38      1.0000 0.93220  0.13560  0.59620  Biso   1.000  H
  C41      1.0000 0.99420  0.47950  0.71620  Biso   1.000  C
  C42      1.0000 0.00580  0.52050  0.28380  Biso   1.000  C
  H39      1.0000 0.05790  0.44870  0.72850  Biso   1.000  H
  H40      1.0000 0.94210  0.55130  0.27150  Biso   1.000  H
  C43      1.0000 0.85350  0.54910  0.73870  Biso   1.000  C
  C44      1.0000 0.14650  0.45090  0.26130  Biso   1.000  C
  H41      1.0000 0.80090  0.57660  0.76920  Biso   1.000  H
  H42      1.0000 0.19910  0.42340  0.23080  Biso   1.000  H
  C45      1.0000 0.07050  0.53420  0.95330  Biso   1.000  C
  C46      1.0000 0.92950  0.46580  0.04670  Biso   1.000  C
  H43      1.0000 0.11840  0.55760  0.92150  Biso   1.000  H
  H44      1.0000 0.88160  0.44240  0.07850  Biso   1.000  H
  C47      1.0000 0.97110  0.50520  0.89800  Biso   1.000  C
  C48      1.0000 0.02890  0.49480  0.10200  Biso   1.000  C
  C49      1.0000 0.89960  0.47130  0.94210  Biso   1.000  C
  C50      1.0000 0.10040  0.52870  0.05790  Biso   1.000  C
  H45      1.0000 0.83110  0.45190  0.90230  Biso   1.000  H
  H46      1.0000 0.16890  0.54810  0.09770  Biso   1.000  H
  S1       1.0000 0.78464  0.72414  0.16743  Biso   1.000  S
  S2       1.0000 0.21536  0.27586  0.83257  Biso   1.000  S
  O5       1.0000 0.69030  0.76790  0.17850  Biso   1.000  O
  O6       1.0000 0.30970  0.23210  0.82150  Biso   1.000  O
  O7       1.0000 0.77480  0.65290  0.06860  Biso   1.000  O
  O8       1.0000 0.22520  0.34710  0.93140  Biso   1.000  O
  O9       1.0000 0.84150  0.68670  0.25560  Biso   1.000  O
  O10      1.0000 0.15850  0.31330  0.74440  Biso   1.000  O
  C51      1.0000 0.86700  0.82830  0.15860  Biso   1.000  C
  C52      1.0000 0.13300  0.17170  0.84140  Biso   1.000  C
  F1       1.0000 0.82510  0.86610  0.07740  Biso   1.000  F
  F2       1.0000 0.17490  0.13390  0.92260  Biso   1.000  F
  F3       1.0000 0.95830  0.80390  0.15660  Biso   1.000  F
  F4       1.0000 0.04170  0.19610  0.84340  Biso   1.000  F
  F5       1.0000 0.87500  0.90330  0.24370  Biso   1.000  F
  F6       1.0000 0.12500  0.09670  0.75630  Biso   1.000  F
  S3       1.0000 0.95509  0.20302  0.21574  Biso   1.000  S
  S4       1.0000 0.04491  0.79698  0.78426  Biso   1.000  S
  O11      1.0000 0.05030  0.20690  0.29180  Biso   1.000  O
  O12      1.0000 0.94970  0.79310  0.70820  Biso   1.000  O
  O13      1.0000 0.91310  0.30170  0.21060  Biso   1.000  O
  O14      1.0000 0.08690  0.69830  0.78940  Biso   1.000  O
  O15      1.0000 0.87750  0.12580  0.20890  Biso   1.000  O
  O16      1.0000 0.12250  0.87420  0.79110  Biso   1.000  O
  C53      1.0000 0.99310  0.16680  0.09230  Biso   1.000  C
  C54      1.0000 0.00690  0.83320  0.90770  Biso   1.000  C
  F7       1.0000 0.04180  0.08420  0.09060  Biso   1.000  F
  F8       1.0000 0.95820  0.91580  0.90940  Biso   1.000  F
  F9       1.0000 0.05870  0.23750  0.08710  Biso   1.000  F
  F10      1.0000 0.94130  0.76250  0.91290  Biso   1.000  F
  F11      1.0000 0.91290  0.15190  0.01300  Biso   1.000  F
  F12      1.0000 0.08710  0.84810  0.98700  Biso   1.000  F
  S5       1.0000 0.26230  0.72620  0.32900  Biso   1.000  S
  S6       1.0000 0.73770  0.27380  0.67100  Biso   1.000  S
  S7       1.0000 0.34800  0.72320  0.30410  Biso   1.000  S
  S8       1.0000 0.65200  0.27680  0.69590  Biso   1.000  S
  O17      1.0000 0.29810  0.62690  0.27730  Biso   1.000  O
  O18      1.0000 0.70190  0.37310  0.72270  Biso   1.000  O
  O19      1.0000 0.34900  0.77350  0.41620  Biso   1.000  O
  O20      1.0000 0.65100  0.22650  0.58380  Biso   1.000  O
  O21      1.0000 0.43410  0.74010  0.26430  Biso   1.000  O
  O22      1.0000 0.56590  0.25990  0.73570  Biso   1.000  O
  O23      1.0000 0.15680  0.71450  0.33780  Biso   1.000  O
  O24      1.0000 0.84320  0.28550  0.66220  Biso   1.000  O
  C55      1.0000 0.25190  0.80350  0.23950  Biso   1.000  C
  C56      1.0000 0.74810  0.19650  0.76050  Biso   1.000  C
  F13      1.0000 0.34700  0.82390  0.22240  Biso   1.000  F
  F14      1.0000 0.65300  0.17610  0.77760  Biso   1.000  F
  F15      1.0000 0.15810  0.77630  0.26800  Biso   1.000  F
  F16      1.0000 0.84190  0.22370  0.73200  Biso   1.000  F
  F17      1.0000 0.19300  0.75900  0.14600  Biso   1.000  F
  F18      1.0000 0.80700  0.24100  0.85400  Biso   1.000  F
  F19      1.0000 0.23400  0.77800  0.14300  Biso   1.000  F
  F20      1.0000 0.76600  0.22200  0.85700  Biso   1.000  F
  F21      1.0000 0.22100  0.89630  0.26500  Biso   1.000  F
  F22      1.0000 0.77900  0.10370  0.73500  Biso   1.000  F
  F23      1.0000 0.27500  0.89300  0.27900  Biso   1.000  F
  F24      1.0000 0.72500  0.10700  0.72100  Biso   1.000  F
  O25      1.0000 0.30240  0.34950  0.14190  Biso   1.000  O
  O26      1.0000 0.69760  0.65050  0.85810  Biso   1.000  O
  H47      1.0000 0.36280  0.32790  0.14240  Biso   1.000  H
  H48      1.0000 0.63720  0.67210  0.85760  Biso   1.000  H
  H49      1.0000 0.27270  0.35120  0.07880  Biso   1.000  H
  H50      1.0000 0.72730  0.64880  0.92120  Biso   1.000  H
  O27      1.0000 0.68720  0.89880  0.37990  Biso   1.000  O
  O28      1.0000 0.31280  0.10120  0.62010  Biso   1.000  O
  O29      1.0000 0.25200  0.91540  0.65970  Biso   1.000  O
  O30      1.0000 0.74800  0.08460  0.34030  Biso   1.000  O
  O31      1.0000 0.30170  0.68980  0.60650  Biso   1.000  O
  O32      1.0000 0.69830  0.31020  0.39350  Biso   1.000  O
  O33      1.0000 0.24220  0.73880  0.54770  Biso   1.000  O
  O34      1.0000 0.75780  0.26120  0.45230  Biso   1.000  O
  O35      1.0000 0.53660  0.90530  0.48470  Biso   1.000  O
  O36      1.0000 0.46340  0.09470  0.51530  Biso   1.000  O
