data_image0
_cell_length_a       11.276
_cell_length_b       18.512
_cell_length_c       12.975
_cell_angle_alpha    90
_cell_angle_beta     113.471
_cell_angle_gamma    90

_symmetry_space_group_name_H-M    "P 1"
_symmetry_int_tables_number       1

loop_
  _symmetry_equiv_pos_as_xyz
  'x, y, z'

loop_
  _atom_site_label
  _atom_site_occupancy
  _atom_site_fract_x
  _atom_site_fract_y
  _atom_site_fract_z
  _atom_site_thermal_displace_type
  _atom_site_B_iso_or_equiv
  _atom_site_type_symbol
  Cu1      1.0000 0.85399  0.15438  0.56241  Biso   1.000  Cu
  Cu2      1.0000 0.14601  0.65438  0.93759  Biso   1.000  Cu
  Cu3      1.0000 0.14601  0.84562  0.43759  Biso   1.000  Cu
  Cu4      1.0000 0.85399  0.34562  0.06241  Biso   1.000  Cu
  O1       1.0000 0.75210  0.21384  0.43102  Biso   1.000  O
  O2       1.0000 0.24790  0.71384  0.06898  Biso   1.000  O
  O3       1.0000 0.24790  0.78616  0.56898  Biso   1.000  O
  O4       1.0000 0.75210  0.28616  0.93102  Biso   1.000  O
  O5       1.0000 0.67430  0.11387  0.33220  Biso   1.000  O
  O6       1.0000 0.32570  0.61387  0.16780  Biso   1.000  O
  O7       1.0000 0.32570  0.88613  0.66780  Biso   1.000  O
  O8       1.0000 0.67430  0.38613  0.83220  Biso   1.000  O
  O9       1.0000 0.78950  0.22215  0.20400  Biso   1.000  O
  O10      1.0000 0.21050  0.72215  0.29600  Biso   1.000  O
  O11      1.0000 0.21050  0.77785  0.79600  Biso   1.000  O
  O12      1.0000 0.78950  0.27785  0.70400  Biso   1.000  O
  O13      1.0000 0.72200  0.32927  0.12170  Biso   1.000  O
  O14      1.0000 0.27800  0.82927  0.37830  Biso   1.000  O
  O15      1.0000 0.27800  0.67073  0.87830  Biso   1.000  O
  O16      1.0000 0.72200  0.17073  0.62170  Biso   1.000  O
  O17      1.0000 0.00010  0.24368  0.67300  Biso   1.000  O
  O18      1.0000 0.99990  0.74368  0.82700  Biso   1.000  O
  O19      1.0000 0.99990  0.75632  0.32700  Biso   1.000  O
  O20      1.0000 0.00010  0.25632  0.17300  Biso   1.000  O
  H1       1.0000 0.01720  0.27810  0.63800  Biso   1.000  H
  H2       1.0000 0.98280  0.77810  0.86200  Biso   1.000  H
  H3       1.0000 0.98280  0.72190  0.36200  Biso   1.000  H
  H4       1.0000 0.01720  0.22190  0.13800  Biso   1.000  H
  H5       1.0000 0.05680  0.22960  0.75190  Biso   1.000  H
  H6       1.0000 0.94320  0.72960  0.74810  Biso   1.000  H
  H7       1.0000 0.94320  0.77040  0.24810  Biso   1.000  H
  H8       1.0000 0.05680  0.27040  0.25190  Biso   1.000  H
  O21      1.0000 0.15740  0.32974  0.38040  Biso   1.000  O
  O22      1.0000 0.84260  0.82974  0.11960  Biso   1.000  O
  O23      1.0000 0.84260  0.67026  0.61960  Biso   1.000  O
  O24      1.0000 0.15740  0.17026  0.88040  Biso   1.000  O
  H9       1.0000 0.22120  0.36060  0.39730  Biso   1.000  H
  H10      1.0000 0.77880  0.86060  0.10270  Biso   1.000  H
  H11      1.0000 0.77880  0.63940  0.60270  Biso   1.000  H
  H12      1.0000 0.22120  0.13940  0.89730  Biso   1.000  H
  H13      1.0000 0.09090  0.34130  0.39640  Biso   1.000  H
  H14      1.0000 0.90910  0.84130  0.10360  Biso   1.000  H
  H15      1.0000 0.90910  0.65870  0.60360  Biso   1.000  H
  H16      1.0000 0.09090  0.15870  0.89640  Biso   1.000  H
  O25      1.0000 0.02720  0.15608  0.02170  Biso   1.000  O
  O26      1.0000 0.97280  0.65608  0.47830  Biso   1.000  O
  O27      1.0000 0.97280  0.84392  0.97830  Biso   1.000  O
  O28      1.0000 0.02720  0.34392  0.52170  Biso   1.000  O
  O29      1.0000 0.61580  0.08591  0.09080  Biso   1.000  O
  O30      1.0000 0.38420  0.58591  0.40920  Biso   1.000  O
  O31      1.0000 0.38420  0.91409  0.90920  Biso   1.000  O
  O32      1.0000 0.61580  0.41409  0.59080  Biso   1.000  O
  O33      1.0000 0.54490  0.04890  0.58420  Biso   1.000  O
  O34      1.0000 0.45510  0.54890  0.91580  Biso   1.000  O
  O35      1.0000 0.45510  0.95110  0.41580  Biso   1.000  O
  O36      1.0000 0.54490  0.45110  0.08420  Biso   1.000  O
  H17      1.0000 0.50450  0.04630  0.64020  Biso   1.000  H
  H18      1.0000 0.49550  0.54630  0.85980  Biso   1.000  H
  H19      1.0000 0.49550  0.95370  0.35980  Biso   1.000  H
  H20      1.0000 0.50450  0.45370  0.14020  Biso   1.000  H
  H21      1.0000 0.60200  0.08700  0.58090  Biso   1.000  H
  H22      1.0000 0.39800  0.58700  0.91910  Biso   1.000  H
  H23      1.0000 0.39800  0.91300  0.41910  Biso   1.000  H
  H24      1.0000 0.60200  0.41300  0.08090  Biso   1.000  H
  O37      1.0000 0.75180  0.36319  0.44950  Biso   1.000  O
  O38      1.0000 0.24820  0.86319  0.05050  Biso   1.000  O
  O39      1.0000 0.24820  0.63681  0.55050  Biso   1.000  O
  O40      1.0000 0.75180  0.13681  0.94950  Biso   1.000  O
  H25      1.0000 0.74920  0.30800  0.43990  Biso   1.000  H
  H26      1.0000 0.25080  0.80800  0.06010  Biso   1.000  H
  H27      1.0000 0.25080  0.69200  0.56010  Biso   1.000  H
  H28      1.0000 0.74920  0.19200  0.93990  Biso   1.000  H
  N1       1.0000 0.93310  0.07381  0.67130  Biso   1.000  N
  N2       1.0000 0.06690  0.57381  0.82870  Biso   1.000  N
  N3       1.0000 0.06690  0.92619  0.32870  Biso   1.000  N
  N4       1.0000 0.93310  0.42619  0.17130  Biso   1.000  N
  N5       1.0000 0.99400  0.12644  0.51317  Biso   1.000  N
  N6       1.0000 0.00600  0.62644  0.98683  Biso   1.000  N
  N7       1.0000 0.00600  0.87356  0.48683  Biso   1.000  N
  N8       1.0000 0.99400  0.37356  0.01317  Biso   1.000  N
  C1       1.0000 0.89320  0.04970  0.74970  Biso   1.000  C
  C2       1.0000 0.10680  0.54970  0.75030  Biso   1.000  C
  C3       1.0000 0.10680  0.95030  0.25030  Biso   1.000  C
  C4       1.0000 0.89320  0.45030  0.24970  Biso   1.000  C
  H29      1.0000 0.81990  0.07440  0.76010  Biso   1.000  H
  H30      1.0000 0.18010  0.57440  0.73990  Biso   1.000  H
  H31      1.0000 0.18010  0.92560  0.23990  Biso   1.000  H
  H32      1.0000 0.81990  0.42560  0.26010  Biso   1.000  H
  C5       1.0000 0.95380  0.99340  0.82060  Biso   1.000  C
  C6       1.0000 0.04620  0.49340  0.67940  Biso   1.000  C
  C7       1.0000 0.04620  0.00660  0.17940  Biso   1.000  C
  C8       1.0000 0.95380  0.50660  0.32060  Biso   1.000  C
  H33      1.0000 0.92280  0.98070  0.87350  Biso   1.000  H
  H34      1.0000 0.07720  0.48070  0.62650  Biso   1.000  H
  H35      1.0000 0.07720  0.01930  0.12650  Biso   1.000  H
  H36      1.0000 0.92280  0.51930  0.37350  Biso   1.000  H
  C9       1.0000 0.05810  0.96120  0.81130  Biso   1.000  C
  C10      1.0000 0.94190  0.46120  0.68870  Biso   1.000  C
  C11      1.0000 0.94190  0.03880  0.18870  Biso   1.000  C
  C12      1.0000 0.05810  0.53880  0.31130  Biso   1.000  C
  H37      1.0000 0.10700  0.91530  0.85870  Biso   1.000  H
  H38      1.0000 0.89300  0.41530  0.64130  Biso   1.000  H
  H39      1.0000 0.89300  0.08470  0.14130  Biso   1.000  H
  H40      1.0000 0.10700  0.58470  0.35870  Biso   1.000  H
  C13      1.0000 0.10130  0.98579  0.73050  Biso   1.000  C
  C14      1.0000 0.89870  0.48579  0.76950  Biso   1.000  C
  C15      1.0000 0.89870  0.01421  0.26950  Biso   1.000  C
  C16      1.0000 0.10130  0.51421  0.23050  Biso   1.000  C
  H41      1.0000 0.17960  0.96470  0.72630  Biso   1.000  H
  H42      1.0000 0.82040  0.46470  0.77370  Biso   1.000  H
  H43      1.0000 0.82040  0.03530  0.27370  Biso   1.000  H
  H44      1.0000 0.17960  0.53530  0.22630  Biso   1.000  H
  C17      1.0000 0.03660  0.04236  0.66210  Biso   1.000  C
  C18      1.0000 0.96340  0.54236  0.83790  Biso   1.000  C
  C19      1.0000 0.96340  0.95764  0.33790  Biso   1.000  C
  C20      1.0000 0.03660  0.45764  0.16210  Biso   1.000  C
  C21      1.0000 0.07360  0.07407  0.57450  Biso   1.000  C
  C22      1.0000 0.92640  0.57407  0.92550  Biso   1.000  C
  C23      1.0000 0.92640  0.92593  0.42550  Biso   1.000  C
  C24      1.0000 0.07360  0.42593  0.07450  Biso   1.000  C
  C25      1.0000 0.18200  0.05363  0.55600  Biso   1.000  C
  C26      1.0000 0.81800  0.55363  0.94400  Biso   1.000  C
  C27      1.0000 0.81800  0.94637  0.44400  Biso   1.000  C
  C28      1.0000 0.18200  0.44637  0.05600  Biso   1.000  C
  H45      1.0000 0.24860  0.01830  0.60980  Biso   1.000  H
  H46      1.0000 0.75140  0.51830  0.89020  Biso   1.000  H
  H47      1.0000 0.75140  0.98170  0.39020  Biso   1.000  H
  H48      1.0000 0.24860  0.48170  0.10980  Biso   1.000  H
  C29      1.0000 0.20850  0.08831  0.47390  Biso   1.000  C
  C30      1.0000 0.79150  0.58831  0.02610  Biso   1.000  C
  C31      1.0000 0.79150  0.91169  0.52610  Biso   1.000  C
  C32      1.0000 0.20850  0.41169  0.97390  Biso   1.000  C
  H49      1.0000 0.29090  0.08130  0.46030  Biso   1.000  H
  H50      1.0000 0.70910  0.58130  0.03970  Biso   1.000  H
  H51      1.0000 0.70910  0.91870  0.53970  Biso   1.000  H
  H52      1.0000 0.29090  0.41870  0.96030  Biso   1.000  H
  C33      1.0000 0.12670  0.14250  0.41150  Biso   1.000  C
  C34      1.0000 0.87330  0.64250  0.08850  Biso   1.000  C
  C35      1.0000 0.87330  0.85750  0.58850  Biso   1.000  C
  C36      1.0000 0.12670  0.35750  0.91150  Biso   1.000  C
  H53      1.0000 0.14920  0.16860  0.35590  Biso   1.000  H
  H54      1.0000 0.85080  0.66860  0.14410  Biso   1.000  H
  H55      1.0000 0.85080  0.83140  0.64410  Biso   1.000  H
  H56      1.0000 0.14920  0.33140  0.85590  Biso   1.000  H
  C37      1.0000 0.02000  0.15990  0.43340  Biso   1.000  C
  C38      1.0000 0.98000  0.65990  0.06660  Biso   1.000  C
  C39      1.0000 0.98000  0.84010  0.56660  Biso   1.000  C
  C40      1.0000 0.02000  0.34010  0.93340  Biso   1.000  C
  H57      1.0000 0.95750  0.19990  0.38830  Biso   1.000  H
  H58      1.0000 0.04250  0.69990  0.11170  Biso   1.000  H
  H59      1.0000 0.04250  0.80010  0.61170  Biso   1.000  H
  H60      1.0000 0.95750  0.30010  0.88830  Biso   1.000  H
  C41      1.0000 0.67270  0.17966  0.34560  Biso   1.000  C
  C42      1.0000 0.32730  0.67966  0.15440  Biso   1.000  C
  C43      1.0000 0.32730  0.82034  0.65440  Biso   1.000  C
  C44      1.0000 0.67270  0.32034  0.84560  Biso   1.000  C
  C45      1.0000 0.56560  0.22497  0.26220  Biso   1.000  C
  C46      1.0000 0.43440  0.72497  0.23780  Biso   1.000  C
  C47      1.0000 0.43440  0.77503  0.73780  Biso   1.000  C
  C48      1.0000 0.56560  0.27503  0.76220  Biso   1.000  C
  C49      1.0000 0.58680  0.26744  0.18800  Biso   1.000  C
  C50      1.0000 0.41320  0.76744  0.31200  Biso   1.000  C
  C51      1.0000 0.41320  0.73256  0.81200  Biso   1.000  C
  C52      1.0000 0.58680  0.23256  0.68800  Biso   1.000  C
  H61      1.0000 0.51910  0.29760  0.13800  Biso   1.000  H
  H62      1.0000 0.48090  0.79760  0.36200  Biso   1.000  H
  H63      1.0000 0.48090  0.70240  0.86200  Biso   1.000  H
  H64      1.0000 0.51910  0.20240  0.63800  Biso   1.000  H
  C53      1.0000 0.70920  0.27205  0.17190  Biso   1.000  C
  C54      1.0000 0.29080  0.77205  0.32810  Biso   1.000  C
  C55      1.0000 0.29080  0.72795  0.82810  Biso   1.000  C
  C56      1.0000 0.70920  0.22795  0.67190  Biso   1.000  C
  C57      1.0000 0.43400  0.22067  0.27110  Biso   1.000  C
  C58      1.0000 0.56600  0.72067  0.22890  Biso   1.000  C
  C59      1.0000 0.56600  0.77933  0.72890  Biso   1.000  C
  C60      1.0000 0.43400  0.27933  0.77110  Biso   1.000  C
  C61      1.0000 0.33850  0.27470  0.19480  Biso   1.000  C
  C62      1.0000 0.66150  0.77470  0.30520  Biso   1.000  C
  C63      1.0000 0.66150  0.72530  0.80520  Biso   1.000  C
  C64      1.0000 0.33850  0.22530  0.69480  Biso   1.000  C
  H65      1.0000 0.25880  0.27190  0.20490  Biso   1.000  H
  H66      1.0000 0.74120  0.77190  0.29510  Biso   1.000  H
  H67      1.0000 0.74120  0.72810  0.79510  Biso   1.000  H
  H68      1.0000 0.25880  0.22810  0.70490  Biso   1.000  H
  H69      1.0000 0.32270  0.26390  0.11810  Biso   1.000  H
  H70      1.0000 0.67730  0.76390  0.38190  Biso   1.000  H
  H71      1.0000 0.67730  0.73610  0.88190  Biso   1.000  H
  H72      1.0000 0.32270  0.23610  0.61810  Biso   1.000  H
  H73      1.0000 0.37340  0.32260  0.21280  Biso   1.000  H
  H74      1.0000 0.62660  0.82260  0.28720  Biso   1.000  H
  H75      1.0000 0.62660  0.67740  0.78720  Biso   1.000  H
  H76      1.0000 0.37340  0.17740  0.71280  Biso   1.000  H
  C65      1.0000 0.45260  0.23520  0.39200  Biso   1.000  C
  C66      1.0000 0.54740  0.73520  0.10800  Biso   1.000  C
  C67      1.0000 0.54740  0.76480  0.60800  Biso   1.000  C
  C68      1.0000 0.45260  0.26480  0.89200  Biso   1.000  C
  H77      1.0000 0.49070  0.28200  0.41430  Biso   1.000  H
  H78      1.0000 0.50930  0.78200  0.08570  Biso   1.000  H
  H79      1.0000 0.50930  0.71800  0.58570  Biso   1.000  H
  H80      1.0000 0.49070  0.21800  0.91430  Biso   1.000  H
  H81      1.0000 0.50860  0.19910  0.44020  Biso   1.000  H
  H82      1.0000 0.49140  0.69910  0.05980  Biso   1.000  H
  H83      1.0000 0.49140  0.80090  0.55980  Biso   1.000  H
  H84      1.0000 0.50860  0.30090  0.94020  Biso   1.000  H
  H85      1.0000 0.37040  0.23360  0.39790  Biso   1.000  H
  H86      1.0000 0.62960  0.73360  0.10210  Biso   1.000  H
  H87      1.0000 0.62960  0.76640  0.60210  Biso   1.000  H
  H88      1.0000 0.37040  0.26640  0.89790  Biso   1.000  H
  C69      1.0000 0.37730  0.14490  0.23700  Biso   1.000  C
  C70      1.0000 0.62270  0.64490  0.26300  Biso   1.000  C
  C71      1.0000 0.62270  0.85510  0.76300  Biso   1.000  C
  C72      1.0000 0.37730  0.35510  0.73700  Biso   1.000  C
  H89      1.0000 0.29570  0.14160  0.24380  Biso   1.000  H
  H90      1.0000 0.70430  0.64160  0.25620  Biso   1.000  H
  H91      1.0000 0.70430  0.85840  0.75620  Biso   1.000  H
  H92      1.0000 0.29570  0.35840  0.74380  Biso   1.000  H
  H93      1.0000 0.43580  0.10970  0.28510  Biso   1.000  H
  H94      1.0000 0.56420  0.60970  0.21490  Biso   1.000  H
  H95      1.0000 0.56420  0.89030  0.71490  Biso   1.000  H
  H96      1.0000 0.43580  0.39030  0.78510  Biso   1.000  H
  H97      1.0000 0.36490  0.13590  0.16050  Biso   1.000  H
  H98      1.0000 0.63510  0.63590  0.33950  Biso   1.000  H
  H99      1.0000 0.63510  0.86410  0.83950  Biso   1.000  H
  H100     1.0000 0.36490  0.36410  0.66050  Biso   1.000  H
  O41      1.0000 0.36930  0.43100  0.41400  Biso   1.000  O
  O42      1.0000 0.63070  0.93100  0.08600  Biso   1.000  O
  O43      1.0000 0.63070  0.56900  0.58600  Biso   1.000  O
  O44      1.0000 0.36930  0.06900  0.91400  Biso   1.000  O
  O45      1.0000 0.35110  0.43670  0.46820  Biso   1.000  O
  O46      1.0000 0.64890  0.93670  0.03180  Biso   1.000  O
  O47      1.0000 0.64890  0.56330  0.53180  Biso   1.000  O
  O48      1.0000 0.35110  0.06330  0.96820  Biso   1.000  O
  O49      1.0000 0.57080  0.04510  0.80830  Biso   1.000  O
  O50      1.0000 0.42920  0.54510  0.69170  Biso   1.000  O
  O51      1.0000 0.42920  0.95490  0.19170  Biso   1.000  O
  O52      1.0000 0.57080  0.45490  0.30830  Biso   1.000  O
  O53      1.0000 0.49100  0.03490  0.77350  Biso   1.000  O
  O54      1.0000 0.50900  0.53490  0.72650  Biso   1.000  O
  O55      1.0000 0.50900  0.96510  0.22650  Biso   1.000  O
  O56      1.0000 0.49100  0.46510  0.27350  Biso   1.000  O
