data_image0
_cell_length_a       9.009
_cell_length_b       9.289
_cell_length_c       11.171
_cell_angle_alpha    99.11
_cell_angle_beta     106.64
_cell_angle_gamma    92.39

_symmetry_space_group_name_H-M    "P 1"
_symmetry_int_tables_number       1

loop_
  _symmetry_equiv_pos_as_xyz
  'x, y, z'

loop_
  _atom_site_label
  _atom_site_occupancy
  _atom_site_fract_x
  _atom_site_fract_y
  _atom_site_fract_z
  _atom_site_thermal_displace_type
  _atom_site_B_iso_or_equiv
  _atom_site_type_symbol
  Cu1      1.0000 0.58844  0.88776  0.70282  Biso   1.000  Cu
  Cu2      1.0000 0.41156  0.11224  0.29718  Biso   1.000  Cu
  O1       1.0000 0.40340  0.99370  0.69257  Biso   1.000  O
  O2       1.0000 0.59660  0.00630  0.30743  Biso   1.000  O
  O3       1.0000 0.37120  0.84480  0.51176  Biso   1.000  O
  O4       1.0000 0.62880  0.15520  0.48824  Biso   1.000  O
  O5       1.0000 0.48100  0.70770  0.74281  Biso   1.000  O
  O6       1.0000 0.51900  0.29230  0.25719  Biso   1.000  O
  O7       1.0000 0.64710  0.83100  0.91647  Biso   1.000  O
  O8       1.0000 0.35290  0.16900  0.08353  Biso   1.000  O
  O9       1.0000 0.28080  0.92670  0.89480  Biso   1.000  O
  O10      1.0000 0.71920  0.07330  0.10520  Biso   1.000  O
  N1       1.0000 0.74290  0.76590  0.65890  Biso   1.000  N
  N2       1.0000 0.25710  0.23410  0.34110  Biso   1.000  N
  N3       1.0000 0.74330  0.06230  0.76910  Biso   1.000  N
  N4       1.0000 0.25670  0.93770  0.23090  Biso   1.000  N
  N5       1.0000 0.95460  0.91540  0.80530  Biso   1.000  N
  N6       1.0000 0.04540  0.08460  0.19470  Biso   1.000  N
  C1       1.0000 0.68920  0.63890  0.57530  Biso   1.000  C
  C2       1.0000 0.31080  0.36110  0.42470  Biso   1.000  C
  C3       1.0000 0.78040  0.53050  0.55710  Biso   1.000  C
  C4       1.0000 0.21960  0.46950  0.44290  Biso   1.000  C
  C5       1.0000 0.93670  0.55040  0.62940  Biso   1.000  C
  C6       1.0000 0.06330  0.44960  0.37060  Biso   1.000  C
  C7       1.0000 0.99390  0.67800  0.71110  Biso   1.000  C
  C8       1.0000 0.00610  0.32200  0.28890  Biso   1.000  C
  C9       1.0000 0.89430  0.78720  0.72370  Biso   1.000  C
  C10      1.0000 0.10570  0.21280  0.27630  Biso   1.000  C
  C11      1.0000 0.89350  0.04840  0.82130  Biso   1.000  C
  C12      1.0000 0.10650  0.95160  0.17870  Biso   1.000  C
  C13      1.0000 0.99720  0.16760  0.89390  Biso   1.000  C
  C14      1.0000 0.00280  0.83240  0.10610  Biso   1.000  C
  C15      1.0000 0.94370  0.30230  0.90580  Biso   1.000  C
  C16      1.0000 0.05630  0.69770  0.09420  Biso   1.000  C
  C17      1.0000 0.78950  0.31810  0.84930  Biso   1.000  C
  C18      1.0000 0.21050  0.68190  0.15070  Biso   1.000  C
  C19      1.0000 0.69290  0.19670  0.78260  Biso   1.000  C
  C20      1.0000 0.30710  0.80330  0.21740  Biso   1.000  C
  C21      1.0000 0.31980  0.93230  0.58080  Biso   1.000  C
  C22      1.0000 0.68020  0.06770  0.41920  Biso   1.000  C
  C23      1.0000 0.15410  0.96850  0.53930  Biso   1.000  C
  C24      1.0000 0.84590  0.03150  0.46070  Biso   1.000  C
  C25      1.0000 0.04780  0.87860  0.43920  Biso   1.000  C
  C26      1.0000 0.95220  0.12140  0.56080  Biso   1.000  C
  C27      1.0000 0.10540  0.09170  0.60040  Biso   1.000  C
  C28      1.0000 0.89460  0.90830  0.39960  Biso   1.000  C
  C29      1.0000 0.55110  0.72390  0.86000  Biso   1.000  C
  C30      1.0000 0.44890  0.27610  0.14000  Biso   1.000  C
  C31      1.0000 0.52220  0.60860  0.93190  Biso   1.000  C
  C32      1.0000 0.47780  0.39140  0.06810  Biso   1.000  C
  C33      1.0000 0.59590  0.62620  0.06200  Biso   1.000  C
  C34      1.0000 0.40410  0.37380  0.93800  Biso   1.000  C
  C35      1.0000 0.42590  0.48160  0.87090  Biso   1.000  C
  C36      1.0000 0.57410  0.51840  0.12910  Biso   1.000  C
  H1       1.0000 0.04200  0.91900  0.83700  Biso   1.000  H
  H2       1.0000 0.95800  0.08100  0.16300  Biso   1.000  H
  H3       1.0000 0.58500  0.63100  0.53200  Biso   1.000  H
  H4       1.0000 0.41500  0.36900  0.46800  Biso   1.000  H
  H5       1.0000 0.74800  0.44700  0.51000  Biso   1.000  H
  H6       1.0000 0.25200  0.55300  0.49000  Biso   1.000  H
  H7       1.0000 0.99900  0.47300  0.62300  Biso   1.000  H
  H8       1.0000 0.00100  0.52700  0.37700  Biso   1.000  H
  H9       1.0000 0.09100  0.68700  0.76400  Biso   1.000  H
  H10      1.0000 0.90900  0.31300  0.23600  Biso   1.000  H
  H11      1.0000 0.09100  0.15400  0.92900  Biso   1.000  H
  H12      1.0000 0.90900  0.84600  0.07100  Biso   1.000  H
  H13      1.0000 0.01900  0.37900  0.95300  Biso   1.000  H
  H14      1.0000 0.98100  0.62100  0.04700  Biso   1.000  H
  H15      1.0000 0.75100  0.39500  0.84700  Biso   1.000  H
  H16      1.0000 0.24900  0.60500  0.15300  Biso   1.000  H
  H17      1.0000 0.57300  0.20600  0.74700  Biso   1.000  H
  H18      1.0000 0.42700  0.79400  0.25300  Biso   1.000  H
  H19      1.0000 0.07700  0.80200  0.39800  Biso   1.000  H
  H20      1.0000 0.92300  0.19800  0.60200  Biso   1.000  H
  H21      1.0000 0.17300  0.15300  0.66200  Biso   1.000  H
  H22      1.0000 0.82700  0.84700  0.33800  Biso   1.000  H
  H23      1.0000 0.65800  0.71100  0.10100  Biso   1.000  H
  H24      1.0000 0.34200  0.28900  0.89900  Biso   1.000  H
  H25      1.0000 0.37500  0.47300  0.77700  Biso   1.000  H
  H26      1.0000 0.62500  0.52700  0.22300  Biso   1.000  H
  H27      1.0000 0.32661  0.98780  0.96187  Biso   1.000  H
  H28      1.0000 0.67339  0.01220  0.03813  Biso   1.000  H
  H29      1.0000 0.32149  0.94222  0.83759  Biso   1.000  H
  H30      1.0000 0.67851  0.05778  0.16241  Biso   1.000  H
