data_image0
_cell_length_a       13.389
_cell_length_b       7.146
_cell_length_c       19.473
_cell_angle_alpha    90
_cell_angle_beta     108.57
_cell_angle_gamma    90

_symmetry_space_group_name_H-M    "P 1"
_symmetry_int_tables_number       1

loop_
  _symmetry_equiv_pos_as_xyz
  'x, y, z'

loop_
  _atom_site_label
  _atom_site_occupancy
  _atom_site_fract_x
  _atom_site_fract_y
  _atom_site_fract_z
  _atom_site_thermal_displace_type
  _atom_site_B_iso_or_equiv
  _atom_site_type_symbol
  Cu1      1.0000 0.05749  0.25642  0.99701  Biso   1.000  Cu
  Cu2      1.0000 0.55749  0.24358  0.49701  Biso   1.000  Cu
  Cu3      1.0000 0.94251  0.74358  0.00299  Biso   1.000  Cu
  Cu4      1.0000 0.44251  0.75642  0.50299  Biso   1.000  Cu
  Cl1      1.0000 0.97374  0.38933  0.07084  Biso   1.000  Cl
  Cl2      1.0000 0.47374  0.11067  0.57084  Biso   1.000  Cl
  Cl3      1.0000 0.02626  0.61067  0.92916  Biso   1.000  Cl
  Cl4      1.0000 0.52626  0.88933  0.42916  Biso   1.000  Cl
  Cl5      1.0000 0.90995  0.11279  0.92372  Biso   1.000  Cl
  Cl6      1.0000 0.40995  0.38721  0.42372  Biso   1.000  Cl
  Cl7      1.0000 0.09005  0.88721  0.07628  Biso   1.000  Cl
  Cl8      1.0000 0.59005  0.61279  0.57628  Biso   1.000  Cl
  N1       1.0000 0.24472  0.97940  0.89963  Biso   1.000  N
  N2       1.0000 0.74472  0.52060  0.39963  Biso   1.000  N
  N3       1.0000 0.75528  0.02060  0.10037  Biso   1.000  N
  N4       1.0000 0.25528  0.47940  0.60037  Biso   1.000  N
  N5       1.0000 0.24010  0.14680  0.86820  Biso   1.000  N
  N6       1.0000 0.74010  0.35320  0.36820  Biso   1.000  N
  N7       1.0000 0.75990  0.85320  0.13180  Biso   1.000  N
  N8       1.0000 0.25990  0.64680  0.63180  Biso   1.000  N
  N9       1.0000 0.17670  0.25030  0.88940  Biso   1.000  N
  N10      1.0000 0.67670  0.24970  0.38940  Biso   1.000  N
  N11      1.0000 0.82330  0.74970  0.11060  Biso   1.000  N
  N12      1.0000 0.32330  0.75030  0.61060  Biso   1.000  N
  N13      1.0000 0.14145  0.15270  0.93569  Biso   1.000  N
  N14      1.0000 0.64145  0.34730  0.43569  Biso   1.000  N
  N15      1.0000 0.85855  0.84730  0.06431  Biso   1.000  N
  N16      1.0000 0.35855  0.65270  0.56431  Biso   1.000  N
  C1       1.0000 0.18200  0.98700  0.93981  Biso   1.000  C
  C2       1.0000 0.68200  0.51300  0.43981  Biso   1.000  C
  C3       1.0000 0.81800  0.01300  0.06019  Biso   1.000  C
  C4       1.0000 0.31800  0.48700  0.56019  Biso   1.000  C
  H1       1.0000 0.17100  0.89100  0.96610  Biso   1.000  H
  H2       1.0000 0.67100  0.60900  0.46610  Biso   1.000  H
  H3       1.0000 0.82900  0.10900  0.03390  Biso   1.000  H
  H4       1.0000 0.32900  0.39100  0.53390  Biso   1.000  H
  C5       1.0000 0.31080  0.82310  0.88683  Biso   1.000  C
  C6       1.0000 0.81080  0.67690  0.38683  Biso   1.000  C
  C7       1.0000 0.68920  0.17690  0.11317  Biso   1.000  C
  C8       1.0000 0.18920  0.32310  0.61317  Biso   1.000  C
  C9       1.0000 0.24300  0.71470  0.82100  Biso   1.000  C
  C10      1.0000 0.74300  0.78530  0.32100  Biso   1.000  C
  C11      1.0000 0.75700  0.28530  0.17900  Biso   1.000  C
  C12      1.0000 0.25700  0.21470  0.67900  Biso   1.000  C
  H5       1.0000 0.22780  0.79210  0.77860  Biso   1.000  H
  H6       1.0000 0.72780  0.70790  0.27860  Biso   1.000  H
  H7       1.0000 0.77220  0.20790  0.22140  Biso   1.000  H
  H8       1.0000 0.27220  0.29210  0.72140  Biso   1.000  H
  H9       1.0000 0.17830  0.67810  0.82850  Biso   1.000  H
  H10      1.0000 0.67830  0.82190  0.32850  Biso   1.000  H
  H11      1.0000 0.82170  0.32190  0.17150  Biso   1.000  H
  H12      1.0000 0.32170  0.17810  0.67150  Biso   1.000  H
  H13      1.0000 0.28050  0.60520  0.81450  Biso   1.000  H
  H14      1.0000 0.78050  0.89480  0.31450  Biso   1.000  H
  H15      1.0000 0.71950  0.39480  0.18550  Biso   1.000  H
  H16      1.0000 0.21950  0.10520  0.68550  Biso   1.000  H
  C13      1.0000 0.33200  0.68910  0.94900  Biso   1.000  C
  C14      1.0000 0.83200  0.81090  0.44900  Biso   1.000  C
  C15      1.0000 0.66800  0.31090  0.05100  Biso   1.000  C
  C16      1.0000 0.16800  0.18910  0.55100  Biso   1.000  C
  H17      1.0000 0.37420  0.58760  0.94140  Biso   1.000  H
  H18      1.0000 0.87420  0.91240  0.44140  Biso   1.000  H
  H19      1.0000 0.62580  0.41240  0.05860  Biso   1.000  H
  H20      1.0000 0.12580  0.08760  0.55860  Biso   1.000  H
  H21      1.0000 0.26660  0.64100  0.95200  Biso   1.000  H
  H22      1.0000 0.76660  0.85900  0.45200  Biso   1.000  H
  H23      1.0000 0.73340  0.35900  0.04800  Biso   1.000  H
  H24      1.0000 0.23340  0.14100  0.54800  Biso   1.000  H
  H25      1.0000 0.36900  0.75220  0.99340  Biso   1.000  H
  H26      1.0000 0.86900  0.74780  0.49340  Biso   1.000  H
  H27      1.0000 0.63100  0.24780  0.00660  Biso   1.000  H
  H28      1.0000 0.13100  0.25220  0.50660  Biso   1.000  H
  C17      1.0000 0.40390  0.90030  0.87670  Biso   1.000  C
  C18      1.0000 0.90390  0.59970  0.37670  Biso   1.000  C
  C19      1.0000 0.59610  0.09970  0.12330  Biso   1.000  C
  C20      1.0000 0.09610  0.40030  0.62330  Biso   1.000  C
  H29      1.0000 0.38520  0.99110  0.83840  Biso   1.000  H
  H30      1.0000 0.88520  0.50890  0.33840  Biso   1.000  H
  H31      1.0000 0.61480  0.00890  0.16160  Biso   1.000  H
  H32      1.0000 0.11480  0.49110  0.66160  Biso   1.000  H
  H33      1.0000 0.44330  0.80090  0.86440  Biso   1.000  H
  H34      1.0000 0.94330  0.69910  0.36440  Biso   1.000  H
  H35      1.0000 0.55670  0.19910  0.13560  Biso   1.000  H
  H36      1.0000 0.05670  0.30090  0.63560  Biso   1.000  H
  H37      1.0000 0.44610  0.95900  0.92080  Biso   1.000  H
  H38      1.0000 0.94610  0.54100  0.42080  Biso   1.000  H
  H39      1.0000 0.55390  0.04100  0.07920  Biso   1.000  H
  H40      1.0000 0.05390  0.45900  0.57920  Biso   1.000  H
  N17      1.0000 0.32155  0.48260  0.14838  Biso   1.000  N
  N18      1.0000 0.82155  0.01740  0.64838  Biso   1.000  N
  N19      1.0000 0.67845  0.51740  0.85162  Biso   1.000  N
  N20      1.0000 0.17845  0.98260  0.35162  Biso   1.000  N
  N21      1.0000 0.36590  0.34540  0.12230  Biso   1.000  N
  N22      1.0000 0.86590  0.15460  0.62230  Biso   1.000  N
  N23      1.0000 0.63410  0.65460  0.87770  Biso   1.000  N
  N24      1.0000 0.13410  0.84540  0.37770  Biso   1.000  N
  N25      1.0000 0.29240  0.26100  0.07300  Biso   1.000  N
  N26      1.0000 0.79240  0.23900  0.57300  Biso   1.000  N
  N27      1.0000 0.70760  0.73900  0.92700  Biso   1.000  N
  N28      1.0000 0.20760  0.76100  0.42700  Biso   1.000  N
  N29      1.0000 0.19883  0.34010  0.06717  Biso   1.000  N
  N30      1.0000 0.69883  0.15990  0.56717  Biso   1.000  N
  N31      1.0000 0.80117  0.65990  0.93283  Biso   1.000  N
  N32      1.0000 0.30117  0.84010  0.43283  Biso   1.000  N
  C21      1.0000 0.21956  0.47650  0.11367  Biso   1.000  C
  C22      1.0000 0.71956  0.02350  0.61367  Biso   1.000  C
  C23      1.0000 0.78044  0.52350  0.88633  Biso   1.000  C
  C24      1.0000 0.28044  0.97650  0.38633  Biso   1.000  C
  H41      1.0000 0.17000  0.56100  0.12070  Biso   1.000  H
  H42      1.0000 0.67000  0.93900  0.62070  Biso   1.000  H
  H43      1.0000 0.83000  0.43900  0.87930  Biso   1.000  H
  H44      1.0000 0.33000  0.06100  0.37930  Biso   1.000  H
  C25      1.0000 0.38490  0.61520  0.20485  Biso   1.000  C
  C26      1.0000 0.88490  0.88480  0.70485  Biso   1.000  C
  C27      1.0000 0.61510  0.38480  0.79515  Biso   1.000  C
  C28      1.0000 0.11510  0.11520  0.29515  Biso   1.000  C
  C29      1.0000 0.31530  0.68630  0.24776  Biso   1.000  C
  C30      1.0000 0.81530  0.81370  0.74776  Biso   1.000  C
  C31      1.0000 0.68470  0.31370  0.75224  Biso   1.000  C
  C32      1.0000 0.18470  0.18630  0.25224  Biso   1.000  C
  H45      1.0000 0.25470  0.74830  0.21570  Biso   1.000  H
  H46      1.0000 0.75470  0.75170  0.71570  Biso   1.000  H
  H47      1.0000 0.74530  0.25170  0.78430  Biso   1.000  H
  H48      1.0000 0.24530  0.24830  0.28430  Biso   1.000  H
  H49      1.0000 0.35470  0.77290  0.28400  Biso   1.000  H
  H50      1.0000 0.85470  0.72710  0.78400  Biso   1.000  H
  H51      1.0000 0.64530  0.22710  0.71600  Biso   1.000  H
  H52      1.0000 0.14530  0.27290  0.21600  Biso   1.000  H
  H53      1.0000 0.29290  0.58300  0.27070  Biso   1.000  H
  H54      1.0000 0.79290  0.91700  0.77070  Biso   1.000  H
  H55      1.0000 0.70710  0.41700  0.72930  Biso   1.000  H
  H56      1.0000 0.20710  0.08300  0.22930  Biso   1.000  H
  C33      1.0000 0.41810  0.77410  0.16650  Biso   1.000  C
  C34      1.0000 0.91810  0.72590  0.66650  Biso   1.000  C
  C35      1.0000 0.58190  0.22590  0.83350  Biso   1.000  C
  C36      1.0000 0.08190  0.27410  0.33350  Biso   1.000  C
  H57      1.0000 0.46090  0.72650  0.13920  Biso   1.000  H
  H58      1.0000 0.96090  0.77350  0.63920  Biso   1.000  H
  H59      1.0000 0.53910  0.27350  0.86080  Biso   1.000  H
  H60      1.0000 0.03910  0.22650  0.36080  Biso   1.000  H
  H61      1.0000 0.45810  0.86270  0.20170  Biso   1.000  H
  H62      1.0000 0.95810  0.63730  0.70170  Biso   1.000  H
  H63      1.0000 0.54190  0.13730  0.79830  Biso   1.000  H
  H64      1.0000 0.04190  0.36270  0.29830  Biso   1.000  H
  H65      1.0000 0.35700  0.83460  0.13440  Biso   1.000  H
  H66      1.0000 0.85700  0.66540  0.63440  Biso   1.000  H
  H67      1.0000 0.64300  0.16540  0.86560  Biso   1.000  H
  H68      1.0000 0.14300  0.33460  0.36560  Biso   1.000  H
  C37      1.0000 0.47690  0.50740  0.25580  Biso   1.000  C
  C38      1.0000 0.97690  0.99260  0.75580  Biso   1.000  C
  C39      1.0000 0.52310  0.49260  0.74420  Biso   1.000  C
  C40      1.0000 0.02310  0.00740  0.24420  Biso   1.000  C
  H69      1.0000 0.45020  0.40480  0.27660  Biso   1.000  H
  H70      1.0000 0.95020  0.09520  0.77660  Biso   1.000  H
  H71      1.0000 0.54980  0.59520  0.72340  Biso   1.000  H
  H72      1.0000 0.04980  0.90480  0.22340  Biso   1.000  H
  H73      1.0000 0.51750  0.58870  0.29360  Biso   1.000  H
  H74      1.0000 0.01750  0.91130  0.79360  Biso   1.000  H
  H75      1.0000 0.48250  0.41130  0.70640  Biso   1.000  H
  H76      1.0000 0.98250  0.08870  0.20640  Biso   1.000  H
  H77      1.0000 0.52070  0.46020  0.22910  Biso   1.000  H
  H78      1.0000 0.02070  0.03980  0.72910  Biso   1.000  H
  H79      1.0000 0.47930  0.53980  0.77090  Biso   1.000  H
  H80      1.0000 0.97930  0.96020  0.27090  Biso   1.000  H
