data_image0
_cell_length_a       8.56062
_cell_length_b       11.8223
_cell_length_c       13.0552
_cell_angle_alpha    104.217
_cell_angle_beta     104.53
_cell_angle_gamma    95.2788

_symmetry_space_group_name_H-M    "P 1"
_symmetry_int_tables_number       1

loop_
  _symmetry_equiv_pos_as_xyz
  'x, y, z'

loop_
  _atom_site_label
  _atom_site_occupancy
  _atom_site_fract_x
  _atom_site_fract_y
  _atom_site_fract_z
  _atom_site_thermal_displace_type
  _atom_site_B_iso_or_equiv
  _atom_site_type_symbol
  Nd1      1.0000 0.93044  0.45519  0.71548  Biso   1.000  Nd
  Nd2      1.0000 0.06956  0.54481  0.28452  Biso   1.000  Nd
  Cu1      1.0000 0.22659  0.96499  0.73807  Biso   1.000  Cu
  Cu2      1.0000 0.77341  0.03501  0.26193  Biso   1.000  Cu
  O1       1.0000 0.34368  0.08597  0.87977  Biso   1.000  O
  O2       1.0000 0.65632  0.91403  0.12023  Biso   1.000  O
  O3       1.0000 0.83895  0.61752  0.81968  Biso   1.000  O
  O4       1.0000 0.16105  0.38248  0.18032  Biso   1.000  O
  O5       1.0000 0.18626  0.39543  0.68060  Biso   1.000  O
  O6       1.0000 0.81374  0.60457  0.31940  Biso   1.000  O
  O7       1.0000 0.77794  0.79106  0.48928  Biso   1.000  O
  O8       1.0000 0.22206  0.20894  0.51072  Biso   1.000  O
  O9       1.0000 0.65999  0.12075  0.97810  Biso   1.000  O
  O10      1.0000 0.34001  0.87925  0.02190  Biso   1.000  O
  O11      1.0000 0.89906  0.37118  0.51275  Biso   1.000  O
  O12      1.0000 0.10094  0.62882  0.48725  Biso   1.000  O
  O13      1.0000 0.18009  0.59526  0.84916  Biso   1.000  O
  O14      1.0000 0.81991  0.40474  0.15084  Biso   1.000  O
  O15      1.0000 0.98695  0.40119  0.37303  Biso   1.000  O
  O16      1.0000 0.01305  0.59881  0.62697  Biso   1.000  O
  O17      1.0000 0.68519  0.31316  0.72137  Biso   1.000  O
  O18      1.0000 0.31481  0.68684  0.27863  Biso   1.000  O
  N1       1.0000 0.03349  0.94529  0.79896  Biso   1.000  N
  N2       1.0000 0.96651  0.05471  0.20104  Biso   1.000  N
  O19      1.0000 0.10591  0.85368  0.59332  Biso   1.000  O
  O20      1.0000 0.89409  0.14632  0.40668  Biso   1.000  O
  O21      1.0000 0.61647  0.68744  0.85046  Biso   1.000  O
  O22      1.0000 0.38353  0.31256  0.14954  Biso   1.000  O
  O23      1.0000 0.34036  0.80453  0.81079  Biso   1.000  O
  O24      1.0000 0.65964  0.19547  0.18921  Biso   1.000  O
  N3       1.0000 0.42563  0.98057  0.68207  Biso   1.000  N
  N4       1.0000 0.57437  0.01943  0.31793  Biso   1.000  N
  O25      1.0000 0.87489  0.23063  0.65808  Biso   1.000  O
  O26      1.0000 0.12511  0.76937  0.34192  Biso   1.000  O
  C1       1.0000 0.77140  0.91999  0.88525  Biso   1.000  C
  C2       1.0000 0.22860  0.08001  0.11475  Biso   1.000  C
  O27      1.0000 0.59015  0.68369  0.53482  Biso   1.000  O
  O28      1.0000 0.40985  0.31631  0.46518  Biso   1.000  O
  O29      1.0000 0.86783  0.24006  0.96493  Biso   1.000  O
  O30      1.0000 0.13217  0.75994  0.03507  Biso   1.000  O
  O31      1.0000 0.02545  0.39454  0.88509  Biso   1.000  O
  O32      1.0000 0.97455  0.60546  0.11491  Biso   1.000  O
  O33      1.0000 0.13512  0.11178  0.66702  Biso   1.000  O
  O34      1.0000 0.86488  0.88822  0.33298  Biso   1.000  O
  C3       1.0000 0.97833  0.04097  0.84872  Biso   1.000  C
  C4       1.0000 0.02167  0.95903  0.15128  Biso   1.000  C
  O35      1.0000 0.66477  0.48864  0.60605  Biso   1.000  O
  O36      1.0000 0.33523  0.51136  0.39395  Biso   1.000  O
  C5       1.0000 0.50946  0.08772  0.69611  Biso   1.000  C
  C6       1.0000 0.49054  0.91228  0.30389  Biso   1.000  C
  C7       1.0000 0.64686  0.10213  0.65930  Biso   1.000  C
  C8       1.0000 0.35314  0.89787  0.34070  Biso   1.000  C
  C9       1.0000 0.61210  0.89115  0.58955  Biso   1.000  C
  C10      1.0000 0.38790  0.10885  0.41045  Biso   1.000  C
  C11      1.0000 0.84650  0.03224  0.89208  Biso   1.000  C
  C12      1.0000 0.15350  0.96776  0.10792  Biso   1.000  C
  C13      1.0000 0.69777  0.00231  0.60392  Biso   1.000  C
  C14      1.0000 0.30223  0.99769  0.39608  Biso   1.000  C
  C15      1.0000 0.47690  0.88432  0.63046  Biso   1.000  C
  C16      1.0000 0.52310  0.11568  0.36954  Biso   1.000  C
  C17      1.0000 0.96094  0.83697  0.79351  Biso   1.000  C
  C18      1.0000 0.03906  0.16303  0.20649  Biso   1.000  C
  C19      1.0000 0.82989  0.82068  0.83664  Biso   1.000  C
  C20      1.0000 0.17011  0.17932  0.16336  Biso   1.000  C
  C21      1.0000 0.74083  0.22297  0.68125  Biso   1.000  C
  C22      1.0000 0.25917  0.77703  0.31875  Biso   1.000  C
  C23      1.0000 0.66342  0.77887  0.53303  Biso   1.000  C
  C24      1.0000 0.33658  0.22113  0.46697  Biso   1.000  C
  C25      1.0000 0.78734  0.14067  0.94859  Biso   1.000  C
  C26      1.0000 0.21266  0.85933  0.05141  Biso   1.000  C
  C27      1.0000 0.96703  0.43453  0.46676  Biso   1.000  C
  C28      1.0000 0.03297  0.56547  0.53324  Biso   1.000  C
  C29      1.0000 0.75541  0.69863  0.83417  Biso   1.000  C
  C30      1.0000 0.24459  0.30137  0.16583  Biso   1.000  C
  H1       1.0000 0.41780  0.81000  0.62250  Biso   1.000  H
  H2       1.0000 0.58220  0.19000  0.37750  Biso   1.000  H
  H3       1.0000 0.47340  0.15270  0.73130  Biso   1.000  H
  H4       1.0000 0.52660  0.84730  0.26870  Biso   1.000  H
  H5       1.0000 0.78710  0.00930  0.57560  Biso   1.000  H
  H6       1.0000 0.21290  0.99070  0.42440  Biso   1.000  H
  H7       1.0000 0.11800  0.78440  0.56910  Biso   1.000  H
  H8       1.0000 0.88200  0.21560  0.43090  Biso   1.000  H
  H9       1.0000 0.16700  0.12610  0.62060  Biso   1.000  H
  H10      1.0000 0.83300  0.87390  0.37940  Biso   1.000  H
  H11      1.0000 0.00600  0.84770  0.57250  Biso   1.000  H
  H12      1.0000 0.99400  0.15230  0.42750  Biso   1.000  H
  H13      1.0000 0.05700  0.14340  0.66720  Biso   1.000  H
  H14      1.0000 0.94300  0.85660  0.33280  Biso   1.000  H
  H15      1.0000 0.22400  0.63990  0.83250  Biso   1.000  H
  H16      1.0000 0.77600  0.36010  0.16750  Biso   1.000  H
  H17      1.0000 0.16200  0.62850  0.90200  Biso   1.000  H
  H18      1.0000 0.83800  0.37150  0.09800  Biso   1.000  H
  H19      1.0000 0.42400  0.77740  0.81240  Biso   1.000  H
  H20      1.0000 0.57600  0.22260  0.18760  Biso   1.000  H
  H21      1.0000 0.02760  0.11600  0.84960  Biso   1.000  H
  H22      1.0000 0.97240  0.88400  0.15040  Biso   1.000  H
  H23      1.0000 0.99890  0.77540  0.75930  Biso   1.000  H
  H24      1.0000 0.00110  0.22460  0.24070  Biso   1.000  H
  H25      1.0000 0.68700  0.90980  0.91670  Biso   1.000  H
  H26      1.0000 0.31300  0.09020  0.08330  Biso   1.000  H
  H27      1.0000 0.96400  0.36040  0.91030  Biso   1.000  H
  H28      1.0000 0.03600  0.63960  0.08970  Biso   1.000  H
  H29      1.0000 0.27700  0.41700  0.72580  Biso   1.000  H
  H30      1.0000 0.72300  0.58300  0.27420  Biso   1.000  H
  H31      1.0000 0.12700  0.38200  0.90380  Biso   1.000  H
  H32      1.0000 0.87300  0.61800  0.09620  Biso   1.000  H
  H33      1.0000 0.19800  0.34640  0.63180  Biso   1.000  H
  H34      1.0000 0.80200  0.65360  0.36820  Biso   1.000  H
  H35      1.0000 0.33600  0.15450  0.88600  Biso   1.000  H
  H36      1.0000 0.66400  0.84550  0.11400  Biso   1.000  H
  H37      1.0000 0.44000  0.08680  0.90320  Biso   1.000  H
  H38      1.0000 0.56000  0.91320  0.09680  Biso   1.000  H
  H39      1.0000 0.35200  0.82790  0.88230  Biso   1.000  H
  H40      1.0000 0.64800  0.17210  0.11770  Biso   1.000  H
  H41      1.0000 0.59500  0.43530  0.57010  Biso   1.000  H
  H42      1.0000 0.40500  0.56470  0.42990  Biso   1.000  H
  H43      1.0000 0.65500  0.54600  0.58430  Biso   1.000  H
  H44      1.0000 0.34500  0.45400  0.41570  Biso   1.000  H
  O37      1.0000 0.49363  0.45082  0.82252  Biso   1.000  O
  O38      1.0000 0.50637  0.54918  0.17748  Biso   1.000  O
  H45      1.0000 0.52600  0.52410  0.82270  Biso   1.000  H
  H46      1.0000 0.47400  0.47590  0.17730  Biso   1.000  H
  H47      1.0000 0.56300  0.40500  0.79500  Biso   1.000  H
  H48      1.0000 0.43700  0.59500  0.20500  Biso   1.000  H
  O39      1.0000 0.33441  0.32409  0.92957  Biso   1.000  O
  O40      1.0000 0.66559  0.67591  0.07043  Biso   1.000  O
  H49      1.0000 0.39800  0.37220  0.90910  Biso   1.000  H
  H50      1.0000 0.60200  0.62780  0.09090  Biso   1.000  H
  H51      1.0000 0.37700  0.34030  0.00130  Biso   1.000  H
  H52      1.0000 0.62300  0.65970  0.99870  Biso   1.000  H
