data_image0
_cell_length_a       6.6359
_cell_length_b       7.1541
_cell_length_c       7.4077
_cell_angle_alpha    100.12
_cell_angle_beta     103.445
_cell_angle_gamma    108.058

_symmetry_space_group_name_H-M    "P 1"
_symmetry_int_tables_number       1

loop_
  _symmetry_equiv_pos_as_xyz
  'x, y, z'

loop_
  _atom_site_label
  _atom_site_occupancy
  _atom_site_fract_x
  _atom_site_fract_y
  _atom_site_fract_z
  _atom_site_thermal_displace_type
  _atom_site_B_iso_or_equiv
  _atom_site_type_symbol
  Cu1      1.0000 0.49461  0.93882  0.48879  Biso   1.000  Cu
  O1       1.0000 0.16930  0.87800  0.56890  Biso   1.000  O
  H1       1.0000 0.18700  0.91000  0.68100  Biso   1.000  H
  H2       1.0000 0.09300  0.91600  0.52700  Biso   1.000  H
  C1       1.0000 0.30420  0.92150  0.11210  Biso   1.000  C
  C2       1.0000 0.26670  0.69630  0.09730  Biso   1.000  C
  H3       1.0000 0.34770  0.65070  0.01100  Biso   1.000  H
  C3       1.0000 0.01700  0.55770  0.01570  Biso   1.000  C
  H4       1.0000 0.94170  0.58950  0.11290  Biso   1.000  H
  C4       1.0000 0.98300  0.33120  0.97640  Biso   1.000  C
  H5       1.0000 0.03390  0.30260  0.10320  Biso   1.000  H
  C5       1.0000 0.73820  0.18890  0.87770  Biso   1.000  C
  H6       1.0000 0.64560  0.22550  0.95650  Biso   1.000  H
  C6       1.0000 0.71400  0.96640  0.86380  Biso   1.000  C
  O2       1.0000 0.37930  0.04280  0.28150  Biso   1.000  O
  O3       1.0000 0.26190  0.97990  0.96310  Biso   1.000  O
  O4       1.0000 0.35530  0.67530  0.28500  Biso   1.000  O
  H7       1.0000 0.45100  0.58200  0.29000  Biso   1.000  H
  O5       1.0000 0.91600  0.59780  0.84390  Biso   1.000  O
  H8       1.0000 0.86800  0.71200  0.87400  Biso   1.000  H
  O6       1.0000 0.11650  0.28450  0.86280  Biso   1.000  O
  H9       1.0000 0.17600  0.20800  0.89300  Biso   1.000  H
  O7       1.0000 0.65410  0.20430  0.68610  Biso   1.000  O
  H10      1.0000 0.59000  0.30100  0.70300  Biso   1.000  H
  O8       1.0000 0.78820  0.91740  0.00800  Biso   1.000  O
  O9       1.0000 0.61390  0.83720  0.69710  Biso   1.000  O
  O10      1.0000 0.85600  0.02590  0.40160  Biso   1.000  O
  H11      1.0000 0.83000  0.99400  0.28200  Biso   1.000  H
  H12      1.0000 0.90300  0.13600  0.43100  Biso   1.000  H
  O11      1.0000 0.55650  0.43260  0.24580  Biso   1.000  O
  H13      1.0000 0.48600  0.33200  0.26400  Biso   1.000  H
  H14      1.0000 0.69500  0.46100  0.32300  Biso   1.000  H
  O12      1.0000 0.41140  0.41860  0.65230  Biso   1.000  O
  H15      1.0000 0.47200  0.54300  0.68700  Biso   1.000  H
  H16      1.0000 0.34200  0.39800  0.70500  Biso   1.000  H
  O13      1.0000 0.94660  0.45460  0.48310  Biso   1.000  O
  H17      1.0000 0.94900  0.50700  0.60600  Biso   1.000  H
  H18      1.0000 0.06300  0.56800  0.48500  Biso   1.000  H
