data_image0
_cell_length_a       15.4747
_cell_length_b       14.5141
_cell_length_c       14.0316
_cell_angle_alpha    90
_cell_angle_beta     113.633
_cell_angle_gamma    90

_symmetry_space_group_name_H-M    "P 1"
_symmetry_int_tables_number       1

loop_
  _symmetry_equiv_pos_as_xyz
  'x, y, z'

loop_
  _atom_site_label
  _atom_site_occupancy
  _atom_site_fract_x
  _atom_site_fract_y
  _atom_site_fract_z
  _atom_site_thermal_displace_type
  _atom_site_B_iso_or_equiv
  _atom_site_type_symbol
  Cu1      1.0000 0.41326  0.46810  0.45857  Biso   1.000  Cu
  Cu2      1.0000 0.41326  0.03190  0.95857  Biso   1.000  Cu
  Cu3      1.0000 0.58674  0.53190  0.54143  Biso   1.000  Cu
  Cu4      1.0000 0.58674  0.96810  0.04143  Biso   1.000  Cu
  Cu5      1.0000 0.08753  0.46973  0.53598  Biso   1.000  Cu
  Cu6      1.0000 0.08753  0.03027  0.03598  Biso   1.000  Cu
  Cu7      1.0000 0.91247  0.53027  0.46402  Biso   1.000  Cu
  Cu8      1.0000 0.91247  0.96973  0.96402  Biso   1.000  Cu
  S1       1.0000 0.01277  0.22433  0.72807  Biso   1.000  S
  S2       1.0000 0.01277  0.27567  0.22807  Biso   1.000  S
  S3       1.0000 0.98723  0.77567  0.27193  Biso   1.000  S
  S4       1.0000 0.98723  0.72433  0.77193  Biso   1.000  S
  S5       1.0000 0.50952  0.76593  0.26777  Biso   1.000  S
  S6       1.0000 0.50952  0.73407  0.76777  Biso   1.000  S
  S7       1.0000 0.49048  0.23407  0.73223  Biso   1.000  S
  S8       1.0000 0.49048  0.26593  0.23223  Biso   1.000  S
  O1       1.0000 0.03999  0.37089  0.59730  Biso   1.000  O
  O2       1.0000 0.03999  0.12911  0.09730  Biso   1.000  O
  O3       1.0000 0.96001  0.62911  0.40270  Biso   1.000  O
  O4       1.0000 0.96001  0.87089  0.90270  Biso   1.000  O
  O5       1.0000 0.88943  0.41949  0.53070  Biso   1.000  O
  O6       1.0000 0.88943  0.08051  0.03070  Biso   1.000  O
  O7       1.0000 0.11057  0.58051  0.46930  Biso   1.000  O
  O8       1.0000 0.11057  0.91949  0.96930  Biso   1.000  O
  O9       1.0000 0.03980  0.09516  0.90170  Biso   1.000  O
  O10      1.0000 0.03980  0.40484  0.40170  Biso   1.000  O
  O11      1.0000 0.96020  0.90484  0.09830  Biso   1.000  O
  O12      1.0000 0.96020  0.59516  0.59830  Biso   1.000  O
  O13      1.0000 0.88964  0.04539  0.84050  Biso   1.000  O
  O14      1.0000 0.88964  0.45461  0.34050  Biso   1.000  O
  O15      1.0000 0.11036  0.95461  0.15950  Biso   1.000  O
  O16      1.0000 0.11036  0.54539  0.65950  Biso   1.000  O
  O17      1.0000 0.39065  0.57471  0.36600  Biso   1.000  O
  O18      1.0000 0.39065  0.92529  0.86600  Biso   1.000  O
  O19      1.0000 0.60935  0.42529  0.63400  Biso   1.000  O
  O20      1.0000 0.60935  0.07471  0.13400  Biso   1.000  O
  O21      1.0000 0.54034  0.62707  0.43240  Biso   1.000  O
  O22      1.0000 0.54034  0.87293  0.93240  Biso   1.000  O
  O23      1.0000 0.45966  0.37293  0.56760  Biso   1.000  O
  O24      1.0000 0.45966  0.12707  0.06760  Biso   1.000  O
  O25      1.0000 0.53598  0.89901  0.12710  Biso   1.000  O
  O26      1.0000 0.53598  0.60099  0.62710  Biso   1.000  O
  O27      1.0000 0.46402  0.10099  0.87290  Biso   1.000  O
  O28      1.0000 0.46402  0.39901  0.37290  Biso   1.000  O
  O29      1.0000 0.38710  0.95187  0.05640  Biso   1.000  O
  O30      1.0000 0.38710  0.54813  0.55640  Biso   1.000  O
  O31      1.0000 0.61290  0.04813  0.94360  Biso   1.000  O
  O32      1.0000 0.61290  0.45187  0.44360  Biso   1.000  O
  C1       1.0000 0.92740  0.28820  0.63550  Biso   1.000  C
  C2       1.0000 0.92740  0.21180  0.13550  Biso   1.000  C
  C3       1.0000 0.07260  0.71180  0.36450  Biso   1.000  C
  C4       1.0000 0.07260  0.78820  0.86450  Biso   1.000  C
  C5       1.0000 0.83900  0.26200  0.62170  Biso   1.000  C
  C6       1.0000 0.83900  0.23800  0.12170  Biso   1.000  C
  C7       1.0000 0.16100  0.73800  0.37830  Biso   1.000  C
  C8       1.0000 0.16100  0.76200  0.87830  Biso   1.000  C
  H1       1.0000 0.78310  0.29010  0.57350  Biso   1.000  H
  H2       1.0000 0.78310  0.20990  0.07350  Biso   1.000  H
  H3       1.0000 0.21690  0.70990  0.42650  Biso   1.000  H
  H4       1.0000 0.21690  0.79010  0.92650  Biso   1.000  H
  C9       1.0000 0.84000  0.18880  0.68680  Biso   1.000  C
  C10      1.0000 0.84000  0.31120  0.18680  Biso   1.000  C
  C11      1.0000 0.16000  0.81120  0.31320  Biso   1.000  C
  C12      1.0000 0.16000  0.68880  0.81320  Biso   1.000  C
  H5       1.0000 0.78440  0.16100  0.68690  Biso   1.000  H
  H6       1.0000 0.78440  0.33900  0.18690  Biso   1.000  H
  H7       1.0000 0.21560  0.83900  0.31310  Biso   1.000  H
  H8       1.0000 0.21560  0.66100  0.81310  Biso   1.000  H
  C13      1.0000 0.92950  0.16120  0.75050  Biso   1.000  C
  C14      1.0000 0.92950  0.33880  0.25050  Biso   1.000  C
  C15      1.0000 0.07050  0.83880  0.24950  Biso   1.000  C
  C16      1.0000 0.07050  0.66120  0.74950  Biso   1.000  C
  C17      1.0000 0.95480  0.36560  0.58300  Biso   1.000  C
  C18      1.0000 0.95480  0.13440  0.08300  Biso   1.000  C
  C19      1.0000 0.04520  0.63440  0.41700  Biso   1.000  C
  C20      1.0000 0.04520  0.86560  0.91700  Biso   1.000  C
  C21      1.0000 0.95560  0.09510  0.83760  Biso   1.000  C
  C22      1.0000 0.95560  0.40490  0.33760  Biso   1.000  C
  C23      1.0000 0.04440  0.90490  0.16240  Biso   1.000  C
  C24      1.0000 0.04440  0.59510  0.66240  Biso   1.000  C
  C25      1.0000 0.42590  0.70490  0.29230  Biso   1.000  C
  C26      1.0000 0.42590  0.79510  0.79230  Biso   1.000  C
  C27      1.0000 0.57410  0.29510  0.70770  Biso   1.000  C
  C28      1.0000 0.57410  0.20490  0.20770  Biso   1.000  C
  C29      1.0000 0.42330  0.83310  0.17820  Biso   1.000  C
  C30      1.0000 0.42330  0.66690  0.67820  Biso   1.000  C
  C31      1.0000 0.57670  0.16690  0.82180  Biso   1.000  C
  C32      1.0000 0.57670  0.33310  0.32180  Biso   1.000  C
  C33      1.0000 0.33490  0.80950  0.16970  Biso   1.000  C
  C34      1.0000 0.33490  0.69050  0.66970  Biso   1.000  C
  C35      1.0000 0.66510  0.19050  0.83030  Biso   1.000  C
  C36      1.0000 0.66510  0.30950  0.33030  Biso   1.000  C
  H9       1.0000 0.27880  0.83990  0.12530  Biso   1.000  H
  H10      1.0000 0.27880  0.66010  0.62530  Biso   1.000  H
  H11      1.0000 0.72120  0.16010  0.87470  Biso   1.000  H
  H12      1.0000 0.72120  0.33990  0.37470  Biso   1.000  H
  C37      1.0000 0.33690  0.73540  0.23410  Biso   1.000  C
  C38      1.0000 0.33690  0.76460  0.73410  Biso   1.000  C
  C39      1.0000 0.66310  0.26460  0.76590  Biso   1.000  C
  C40      1.0000 0.66310  0.23540  0.26590  Biso   1.000  C
  H13      1.0000 0.28190  0.70900  0.23690  Biso   1.000  H
  H14      1.0000 0.28190  0.79100  0.73690  Biso   1.000  H
  H15      1.0000 0.71810  0.29100  0.76310  Biso   1.000  H
  H16      1.0000 0.71810  0.20900  0.26310  Biso   1.000  H
  C41      1.0000 0.45480  0.62940  0.36980  Biso   1.000  C
  C42      1.0000 0.45480  0.87060  0.86980  Biso   1.000  C
  C43      1.0000 0.54520  0.37060  0.63020  Biso   1.000  C
  C44      1.0000 0.54520  0.12940  0.13020  Biso   1.000  C
  C45      1.0000 0.45100  0.90030  0.11630  Biso   1.000  C
  C46      1.0000 0.45100  0.59970  0.61630  Biso   1.000  C
  C47      1.0000 0.54900  0.09970  0.88370  Biso   1.000  C
  C48      1.0000 0.54900  0.40030  0.38370  Biso   1.000  C
  O33      1.0000 0.27300  0.41909  0.39750  Biso   1.000  O
  O34      1.0000 0.27300  0.08091  0.89750  Biso   1.000  O
  O35      1.0000 0.72700  0.58091  0.60250  Biso   1.000  O
  O36      1.0000 0.72700  0.91909  0.10250  Biso   1.000  O
  H17      1.0000 0.26700  0.36500  0.38300  Biso   1.000  H
  H18      1.0000 0.26700  0.13500  0.88300  Biso   1.000  H
  H19      1.0000 0.73300  0.63500  0.61700  Biso   1.000  H
  H20      1.0000 0.73300  0.86500  0.11700  Biso   1.000  H
  C49      1.0000 0.20220  0.46330  0.31070  Biso   1.000  C
  C50      1.0000 0.20220  0.03670  0.81070  Biso   1.000  C
  C51      1.0000 0.79780  0.53670  0.68930  Biso   1.000  C
  C52      1.0000 0.79780  0.96330  0.18930  Biso   1.000  C
  H21      1.0000 0.14190  0.43140  0.29280  Biso   1.000  H
  H22      1.0000 0.14190  0.06860  0.79280  Biso   1.000  H
  H23      1.0000 0.85810  0.56860  0.70720  Biso   1.000  H
  H24      1.0000 0.85810  0.93140  0.20720  Biso   1.000  H
  H25      1.0000 0.22000  0.46150  0.25120  Biso   1.000  H
  H26      1.0000 0.22000  0.03850  0.75120  Biso   1.000  H
  H27      1.0000 0.78000  0.53850  0.74880  Biso   1.000  H
  H28      1.0000 0.78000  0.96150  0.24880  Biso   1.000  H
  H29      1.0000 0.19580  0.52760  0.32850  Biso   1.000  H
  H30      1.0000 0.19580  0.97240  0.82850  Biso   1.000  H
  H31      1.0000 0.80420  0.47240  0.67150  Biso   1.000  H
  H32      1.0000 0.80420  0.02760  0.17150  Biso   1.000  H
  O37      1.0000 0.22880  0.42230  0.58510  Biso   1.000  O
  O38      1.0000 0.22880  0.07770  0.08510  Biso   1.000  O
  O39      1.0000 0.77120  0.57770  0.41490  Biso   1.000  O
  O40      1.0000 0.77120  0.92230  0.91490  Biso   1.000  O
  H33      1.0000 0.24600  0.44000  0.53900  Biso   1.000  H
  H34      1.0000 0.24600  0.06000  0.03900  Biso   1.000  H
  H35      1.0000 0.75400  0.56000  0.46100  Biso   1.000  H
  H36      1.0000 0.75400  0.94000  0.96100  Biso   1.000  H
  C53      1.0000 0.28950  0.41100  0.68700  Biso   1.000  C
  C54      1.0000 0.28950  0.08900  0.18700  Biso   1.000  C
  C55      1.0000 0.71050  0.58900  0.31300  Biso   1.000  C
  C56      1.0000 0.71050  0.91100  0.81300  Biso   1.000  C
  H37      1.0000 0.35030  0.38840  0.69040  Biso   1.000  H
  H38      1.0000 0.35030  0.11160  0.19040  Biso   1.000  H
  H39      1.0000 0.64970  0.61160  0.30960  Biso   1.000  H
  H40      1.0000 0.64970  0.88840  0.80960  Biso   1.000  H
  H41      1.0000 0.26290  0.36630  0.72030  Biso   1.000  H
  H42      1.0000 0.26290  0.13370  0.22030  Biso   1.000  H
  H43      1.0000 0.73710  0.63370  0.27970  Biso   1.000  H
  H44      1.0000 0.73710  0.86630  0.77970  Biso   1.000  H
  H45      1.0000 0.29860  0.47020  0.72330  Biso   1.000  H
  H46      1.0000 0.29860  0.02980  0.22330  Biso   1.000  H
  H47      1.0000 0.70140  0.52980  0.27670  Biso   1.000  H
  H48      1.0000 0.70140  0.97020  0.77670  Biso   1.000  H
  O41      1.0000 0.76150  0.75830  0.61580  Biso   1.000  O
  O42      1.0000 0.76150  0.74170  0.11580  Biso   1.000  O
  O43      1.0000 0.23850  0.24170  0.38420  Biso   1.000  O
  O44      1.0000 0.23850  0.25830  0.88420  Biso   1.000  O
  N1       1.0000 0.75020  0.88840  0.52170  Biso   1.000  N
  N2       1.0000 0.75020  0.61160  0.02170  Biso   1.000  N
  N3       1.0000 0.24980  0.11160  0.47830  Biso   1.000  N
  N4       1.0000 0.24980  0.38840  0.97830  Biso   1.000  N
  C57      1.0000 0.71820  0.80850  0.54260  Biso   1.000  C
  C58      1.0000 0.71820  0.69150  0.04260  Biso   1.000  C
  C59      1.0000 0.28180  0.19150  0.45740  Biso   1.000  C
  C60      1.0000 0.28180  0.30850  0.95740  Biso   1.000  C
  H49      1.0000 0.65690  0.78940  0.49670  Biso   1.000  H
  H50      1.0000 0.65690  0.71060  0.99670  Biso   1.000  H
  H51      1.0000 0.34310  0.21060  0.50330  Biso   1.000  H
  H52      1.0000 0.34310  0.28940  0.00330  Biso   1.000  H
  C61      1.0000 0.84660  0.91650  0.58700  Biso   1.000  C
  C62      1.0000 0.84660  0.58350  0.08700  Biso   1.000  C
  C63      1.0000 0.15340  0.08350  0.41300  Biso   1.000  C
  C64      1.0000 0.15340  0.41650  0.91300  Biso   1.000  C
  H53      1.0000 0.86330  0.89420  0.65880  Biso   1.000  H
  H54      1.0000 0.86330  0.60580  0.15880  Biso   1.000  H
  H55      1.0000 0.13670  0.10580  0.34120  Biso   1.000  H
  H56      1.0000 0.13670  0.39420  0.84120  Biso   1.000  H
  H57      1.0000 0.85040  0.98460  0.58910  Biso   1.000  H
  H58      1.0000 0.85040  0.51540  0.08910  Biso   1.000  H
  H59      1.0000 0.14960  0.01540  0.41090  Biso   1.000  H
  H60      1.0000 0.14960  0.48460  0.91090  Biso   1.000  H
  C65      1.0000 0.91750  0.87820  0.54590  Biso   1.000  C
  C66      1.0000 0.91750  0.62180  0.04590  Biso   1.000  C
  C67      1.0000 0.08250  0.12180  0.45410  Biso   1.000  C
  C68      1.0000 0.08250  0.37820  0.95410  Biso   1.000  C
  H61      1.0000 0.91770  0.81010  0.54950  Biso   1.000  H
  H62      1.0000 0.91770  0.68990  0.04950  Biso   1.000  H
  H63      1.0000 0.08230  0.18990  0.45050  Biso   1.000  H
  H64      1.0000 0.08230  0.31010  0.95050  Biso   1.000  H
  H65      1.0000 0.89770  0.89610  0.47210  Biso   1.000  H
  H66      1.0000 0.89770  0.60390  0.97210  Biso   1.000  H
  H67      1.0000 0.10230  0.10390  0.52790  Biso   1.000  H
  H68      1.0000 0.10230  0.39610  0.02790  Biso   1.000  H
  C69      1.0000 0.01680  0.91430  0.60870  Biso   1.000  C
  C70      1.0000 0.01680  0.58570  0.10870  Biso   1.000  C
  C71      1.0000 0.98320  0.08570  0.39130  Biso   1.000  C
  C72      1.0000 0.98320  0.41430  0.89130  Biso   1.000  C
  H69      1.0000 0.01760  0.98190  0.59960  Biso   1.000  H
  H70      1.0000 0.01760  0.51810  0.09960  Biso   1.000  H
  H71      1.0000 0.98240  0.01810  0.40040  Biso   1.000  H
  H72      1.0000 0.98240  0.48190  0.90040  Biso   1.000  H
  H73      1.0000 0.03390  0.90170  0.68340  Biso   1.000  H
  H74      1.0000 0.03390  0.59830  0.18340  Biso   1.000  H
  H75      1.0000 0.96610  0.09830  0.31660  Biso   1.000  H
  H76      1.0000 0.96610  0.40170  0.81660  Biso   1.000  H
  C73      1.0000 0.08980  0.87060  0.57610  Biso   1.000  C
  C74      1.0000 0.08980  0.62940  0.07610  Biso   1.000  C
  C75      1.0000 0.91020  0.12940  0.42390  Biso   1.000  C
  C76      1.0000 0.91020  0.37060  0.92390  Biso   1.000  C
  H77      1.0000 0.15230  0.89530  0.61890  Biso   1.000  H
  H78      1.0000 0.15230  0.60470  0.11890  Biso   1.000  H
  H79      1.0000 0.84770  0.10470  0.38110  Biso   1.000  H
  H80      1.0000 0.84770  0.39530  0.88110  Biso   1.000  H
  H81      1.0000 0.07440  0.88440  0.50280  Biso   1.000  H
  H82      1.0000 0.07440  0.61560  0.00280  Biso   1.000  H
  H83      1.0000 0.92560  0.11560  0.49720  Biso   1.000  H
  H84      1.0000 0.92560  0.38440  0.99720  Biso   1.000  H
  H85      1.0000 0.08980  0.80370  0.58570  Biso   1.000  H
  H86      1.0000 0.08980  0.69630  0.08570  Biso   1.000  H
  H87      1.0000 0.91020  0.19630  0.41430  Biso   1.000  H
  H88      1.0000 0.91020  0.30370  0.91430  Biso   1.000  H
  C77      1.0000 0.70340  0.94120  0.41620  Biso   1.000  C
  C78      1.0000 0.70340  0.55880  0.91620  Biso   1.000  C
  C79      1.0000 0.29660  0.05880  0.58380  Biso   1.000  C
  C80      1.0000 0.29660  0.44120  0.08380  Biso   1.000  C
  C81      1.0000 0.67930  0.95140  0.44890  Biso   1.000  C
  C82      1.0000 0.67930  0.54860  0.94890  Biso   1.000  C
  C83      1.0000 0.32070  0.04860  0.55110  Biso   1.000  C
  C84      1.0000 0.32070  0.45140  0.05110  Biso   1.000  C
  C85      1.0000 0.67190  0.03950  0.43930  Biso   1.000  C
  C86      1.0000 0.67190  0.46050  0.93930  Biso   1.000  C
  C87      1.0000 0.32810  0.96050  0.56070  Biso   1.000  C
  C88      1.0000 0.32810  0.53950  0.06070  Biso   1.000  C
  C89      1.0000 0.64830  0.03090  0.51200  Biso   1.000  C
  C90      1.0000 0.64830  0.46910  0.01200  Biso   1.000  C
  C91      1.0000 0.35170  0.96910  0.48800  Biso   1.000  C
  C92      1.0000 0.35170  0.53090  0.98800  Biso   1.000  C
  C93      1.0000 0.61590  0.03450  0.50200  Biso   1.000  C
  C94      1.0000 0.61590  0.46550  0.00200  Biso   1.000  C
  C95      1.0000 0.38410  0.96550  0.49800  Biso   1.000  C
  C96      1.0000 0.38410  0.53450  0.99800  Biso   1.000  C
  C97      1.0000 0.56970  0.08800  0.43560  Biso   1.000  C
  C98      1.0000 0.56970  0.41200  0.93560  Biso   1.000  C
  C99      1.0000 0.43030  0.91200  0.56440  Biso   1.000  C
  C100     1.0000 0.43030  0.58800  0.06440  Biso   1.000  C
  C101     1.0000 0.55970  0.14790  0.49860  Biso   1.000  C
  C102     1.0000 0.55970  0.35210  0.99860  Biso   1.000  C
  C103     1.0000 0.44030  0.85210  0.50140  Biso   1.000  C
  C104     1.0000 0.44030  0.64790  0.00140  Biso   1.000  C
