data_image0
_cell_length_a       11.0318
_cell_length_b       18.0673
_cell_length_c       18.4528
_cell_angle_alpha    104.812
_cell_angle_beta     97.075
_cell_angle_gamma    95.206

_symmetry_space_group_name_H-M    "P 1"
_symmetry_int_tables_number       1

loop_
  _symmetry_equiv_pos_as_xyz
  'x, y, z'

loop_
  _atom_site_label
  _atom_site_occupancy
  _atom_site_fract_x
  _atom_site_fract_y
  _atom_site_fract_z
  _atom_site_thermal_displace_type
  _atom_site_B_iso_or_equiv
  _atom_site_type_symbol
  Cu1      1.0000 0.42414  0.55244  0.01771  Biso   1.000  Cu
  Cu2      1.0000 0.57586  0.44756  0.98229  Biso   1.000  Cu
  Cu3      1.0000 0.03894  0.44513  0.44883  Biso   1.000  Cu
  Cu4      1.0000 0.96106  0.55487  0.55117  Biso   1.000  Cu
  Cu5      1.0000 0.57529  0.97986  0.44946  Biso   1.000  Cu
  Cu6      1.0000 0.42471  0.02014  0.55054  Biso   1.000  Cu
  Cu7      1.0000 0.89172  0.02129  0.01737  Biso   1.000  Cu
  Cu8      1.0000 0.10828  0.97871  0.98263  Biso   1.000  Cu
  S1       1.0000 0.73870  0.48123  0.24850  Biso   1.000  S
  S2       1.0000 0.26130  0.51877  0.75150  Biso   1.000  S
  S3       1.0000 0.25200  0.75226  0.50966  Biso   1.000  S
  S4       1.0000 0.74800  0.24774  0.49034  Biso   1.000  S
  S5       1.0000 0.27110  0.00466  0.24525  Biso   1.000  S
  S6       1.0000 0.72890  0.99534  0.75475  Biso   1.000  S
  S7       1.0000 0.73600  0.75668  0.00561  Biso   1.000  S
  S8       1.0000 0.26400  0.24332  0.99439  Biso   1.000  S
  O1       1.0000 0.49080  0.55290  0.12180  Biso   1.000  O
  O2       1.0000 0.50920  0.44710  0.87820  Biso   1.000  O
  O3       1.0000 0.61760  0.46360  0.09310  Biso   1.000  O
  O4       1.0000 0.38240  0.53640  0.90690  Biso   1.000  O
  O5       1.0000 0.90630  0.47020  0.38000  Biso   1.000  O
  O6       1.0000 0.09370  0.52980  0.62000  Biso   1.000  O
  O7       1.0000 0.83920  0.56200  0.46700  Biso   1.000  O
  O8       1.0000 0.16080  0.43800  0.53300  Biso   1.000  O
  O9       1.0000 0.15490  0.52920  0.43650  Biso   1.000  O
  O10      1.0000 0.84510  0.47080  0.56350  Biso   1.000  O
  O11      1.0000 0.08660  0.62250  0.52260  Biso   1.000  O
  O12      1.0000 0.91340  0.37750  0.47740  Biso   1.000  O
  O13      1.0000 0.49830  0.87450  0.43880  Biso   1.000  O
  O14      1.0000 0.50170  0.12550  0.56120  Biso   1.000  O
  O15      1.0000 0.37060  0.90830  0.52490  Biso   1.000  O
  O16      1.0000 0.62940  0.09170  0.47510  Biso   1.000  O
  O17      1.0000 0.30920  0.02770  0.46330  Biso   1.000  O
  O18      1.0000 0.69080  0.97230  0.53670  Biso   1.000  O
  O19      1.0000 0.43790  0.99250  0.37630  Biso   1.000  O
  O20      1.0000 0.56210  0.00750  0.62370  Biso   1.000  O
  O21      1.0000 0.98060  0.03810  0.12080  Biso   1.000  O
  O22      1.0000 0.01940  0.96190  0.87920  Biso   1.000  O
  O23      1.0000 0.16140  0.00030  0.09090  Biso   1.000  O
  O24      1.0000 0.83860  0.99970  0.90910  Biso   1.000  O
  O25      1.0000 0.56560  0.62590  0.01680  Biso   1.000  O
  O26      1.0000 0.43440  0.37410  0.98320  Biso   1.000  O
  O27      1.0000 0.69510  0.53620  0.98740  Biso   1.000  O
  O28      1.0000 0.30490  0.46380  0.01260  Biso   1.000  O
  O29      1.0000 0.85190  0.91140  0.01160  Biso   1.000  O
  O30      1.0000 0.14810  0.08860  0.98840  Biso   1.000  O
  O31      1.0000 0.03220  0.87600  0.98390  Biso   1.000  O
  O32      1.0000 0.96780  0.12400  0.01610  Biso   1.000  O
  C1       1.0000 0.57300  0.51340  0.13840  Biso   1.000  C
  C2       1.0000 0.42700  0.48660  0.86160  Biso   1.000  C
  C3       1.0000 0.61950  0.52500  0.22130  Biso   1.000  C
  C4       1.0000 0.38050  0.47500  0.77870  Biso   1.000  C
  C5       1.0000 0.58150  0.57450  0.28040  Biso   1.000  C
  C6       1.0000 0.41850  0.42550  0.71960  Biso   1.000  C
  H1       1.0000 0.51630  0.60470  0.27600  Biso   1.000  H
  H2       1.0000 0.48370  0.39530  0.72400  Biso   1.000  H
  C7       1.0000 0.65320  0.57440  0.34960  Biso   1.000  C
  C8       1.0000 0.34680  0.42560  0.65040  Biso   1.000  C
  H3       1.0000 0.63860  0.60370  0.39770  Biso   1.000  H
  H4       1.0000 0.36140  0.39630  0.60230  Biso   1.000  H
  C9       1.0000 0.74260  0.52980  0.34120  Biso   1.000  C
  C10      1.0000 0.25740  0.47020  0.65880  Biso   1.000  C
  C11      1.0000 0.83610  0.51880  0.40070  Biso   1.000  C
  C12      1.0000 0.16390  0.48120  0.59930  Biso   1.000  C
  C13      1.0000 0.15410  0.59760  0.47450  Biso   1.000  C
  C14      1.0000 0.84590  0.40240  0.52550  Biso   1.000  C
  C15      1.0000 0.24440  0.65770  0.46120  Biso   1.000  C
  C16      1.0000 0.75560  0.34230  0.53880  Biso   1.000  C
  C17      1.0000 0.32710  0.64730  0.41200  Biso   1.000  C
  C18      1.0000 0.67290  0.35270  0.58800  Biso   1.000  C
  H5       1.0000 0.33760  0.59810  0.38110  Biso   1.000  H
  H6       1.0000 0.66240  0.40190  0.61890  Biso   1.000  H
  C19      1.0000 0.39450  0.71540  0.41110  Biso   1.000  C
  C20      1.0000 0.60550  0.28460  0.58890  Biso   1.000  C
  H7       1.0000 0.45390  0.71790  0.37830  Biso   1.000  H
  H8       1.0000 0.54610  0.28210  0.62170  Biso   1.000  H
  C21      1.0000 0.36750  0.77760  0.46120  Biso   1.000  C
  C22      1.0000 0.63250  0.22240  0.53880  Biso   1.000  C
  C23      1.0000 0.41720  0.86000  0.47650  Biso   1.000  C
  C24      1.0000 0.58280  0.14000  0.52350  Biso   1.000  C
  C25      1.0000 0.34050  0.01430  0.39750  Biso   1.000  C
  C26      1.0000 0.65950  0.98570  0.60250  Biso   1.000  C
  C27      1.0000 0.24660  0.02600  0.33790  Biso   1.000  C
  C28      1.0000 0.75340  0.97400  0.66210  Biso   1.000  C
  C29      1.0000 0.13800  0.05180  0.34410  Biso   1.000  C
  C30      1.0000 0.86200  0.94820  0.65590  Biso   1.000  C
  H9       1.0000 0.10900  0.06760  0.39130  Biso   1.000  H
  H10      1.0000 0.89100  0.93240  0.60870  Biso   1.000  H
  C31      1.0000 0.06900  0.05370  0.27430  Biso   1.000  C
  C32      1.0000 0.93100  0.94630  0.72570  Biso   1.000  C
  H11      1.0000 0.98880  0.06870  0.26920  Biso   1.000  H
  H12      1.0000 0.01120  0.93130  0.73080  Biso   1.000  H
  C33      1.0000 0.13200  0.03160  0.21720  Biso   1.000  C
  C34      1.0000 0.86800  0.96840  0.78280  Biso   1.000  C
  C35      1.0000 0.08750  0.02220  0.13560  Biso   1.000  C
  C36      1.0000 0.91250  0.97780  0.86440  Biso   1.000  C
  C37      1.0000 0.66630  0.60450  0.00110  Biso   1.000  C
  C38      1.0000 0.33370  0.39550  0.99890  Biso   1.000  C
  C39      1.0000 0.76460  0.66450  0.99930  Biso   1.000  C
  C40      1.0000 0.23540  0.33550  0.00070  Biso   1.000  C
  C41      1.0000 0.88370  0.65480  0.99300  Biso   1.000  C
  C42      1.0000 0.11630  0.34520  0.00700  Biso   1.000  C
  H13      1.0000 0.91650  0.60740  0.98950  Biso   1.000  H
  H14      1.0000 0.08350  0.39260  0.01050  Biso   1.000  H
  C43      1.0000 0.95240  0.72410  0.99230  Biso   1.000  C
  C44      1.0000 0.04760  0.27590  0.00770  Biso   1.000  C
  H15      1.0000 0.03770  0.72880  0.98840  Biso   1.000  H
  H16      1.0000 0.96230  0.27120  0.01160  Biso   1.000  H
  C45      1.0000 0.88390  0.78350  0.99770  Biso   1.000  C
  C46      1.0000 0.11610  0.21650  0.00230  Biso   1.000  C
  C47      1.0000 0.92490  0.86360  0.99950  Biso   1.000  C
  C48      1.0000 0.07510  0.13640  0.00050  Biso   1.000  C
  O33      1.0000 0.31190  0.63730  0.05670  Biso   1.000  O
  O34      1.0000 0.68810  0.36270  0.94330  Biso   1.000  O
  N1       1.0000 0.28750  0.76700  0.08880  Biso   1.000  N
  N2       1.0000 0.71250  0.23300  0.91120  Biso   1.000  N
  C49      1.0000 0.32570  0.69700  0.03630  Biso   1.000  C
  C50      1.0000 0.67430  0.30300  0.96370  Biso   1.000  C
  C51      1.0000 0.23700  0.76320  0.15910  Biso   1.000  C
  C52      1.0000 0.76300  0.23680  0.84090  Biso   1.000  C
  C53      1.0000 0.31900  0.77410  0.22250  Biso   1.000  C
  C54      1.0000 0.68100  0.22590  0.77750  Biso   1.000  C
  C55      1.0000 0.30830  0.83630  0.06420  Biso   1.000  C
  C56      1.0000 0.69170  0.16370  0.93580  Biso   1.000  C
  C57      1.0000 0.44600  0.87210  0.09900  Biso   1.000  C
  C58      1.0000 0.55400  0.12790  0.90100  Biso   1.000  C
  O35      1.0000 0.68660  0.93960  0.36380  Biso   1.000  O
  O36      1.0000 0.31340  0.06040  0.63620  Biso   1.000  O
  N3       1.0000 0.71500  0.84460  0.26120  Biso   1.000  N
  N4       1.0000 0.28500  0.15540  0.73880  Biso   1.000  N
  C59      1.0000 0.66000  0.87370  0.32800  Biso   1.000  C
  C60      1.0000 0.34000  0.12630  0.67200  Biso   1.000  C
  C61      1.0000 0.66200  0.76370  0.20710  Biso   1.000  C
  C62      1.0000 0.33800  0.23630  0.79290  Biso   1.000  C
  C63      1.0000 0.76800  0.71450  0.21480  Biso   1.000  C
  C64      1.0000 0.23200  0.28550  0.78520  Biso   1.000  C
  C65      1.0000 0.81000  0.89170  0.23290  Biso   1.000  C
  C66      1.0000 0.19000  0.10830  0.76710  Biso   1.000  C
  C67      1.0000 0.72300  0.93800  0.17400  Biso   1.000  C
  C68      1.0000 0.27700  0.06200  0.82600  Biso   1.000  C
  O37      1.0000 0.06100  0.53800  0.88680  Biso   1.000  O
  O38      1.0000 0.93900  0.46200  0.11320  Biso   1.000  O
  N5       1.0000 0.87500  0.47890  0.80300  Biso   1.000  N
  N6       1.0000 0.12500  0.52110  0.19700  Biso   1.000  N
  C69      1.0000 0.96000  0.46320  0.87330  Biso   1.000  C
  C70      1.0000 0.04000  0.53680  0.12670  Biso   1.000  C
  C71      1.0000 0.93400  0.50000  0.75200  Biso   1.000  C
  C72      1.0000 0.06600  0.50000  0.24800  Biso   1.000  C
  C73      1.0000 0.96400  0.38660  0.71760  Biso   1.000  C
  C74      1.0000 0.03600  0.61340  0.28240  Biso   1.000  C
  C75      1.0000 0.75300  0.50160  0.81090  Biso   1.000  C
  C76      1.0000 0.24700  0.49840  0.18910  Biso   1.000  C
  C77      1.0000 0.69160  0.50720  0.74540  Biso   1.000  C
  C78      1.0000 0.30840  0.49280  0.25460  Biso   1.000  C
  O39      1.0000 0.12300  0.87170  0.62650  Biso   1.000  O
  O40      1.0000 0.87700  0.12830  0.37350  Biso   1.000  O
  N7       1.0000 0.99800  0.84100  0.49400  Biso   1.000  N
  N8       1.0000 0.00200  0.15900  0.50600  Biso   1.000  N
  C79      1.0000 0.08800  0.88400  0.56500  Biso   1.000  C
  C80      1.0000 0.91200  0.11600  0.43500  Biso   1.000  C
  C81      1.0000 0.04000  0.89130  0.44690  Biso   1.000  C
  C82      1.0000 0.96000  0.10870  0.55310  Biso   1.000  C
  C83      1.0000 0.06700  0.84300  0.38400  Biso   1.000  C
  C84      1.0000 0.93300  0.15700  0.61600  Biso   1.000  C
  C85      1.0000 0.91000  0.77280  0.49240  Biso   1.000  C
  C86      1.0000 0.09000  0.22720  0.50760  Biso   1.000  C
  C87      1.0000 0.75500  0.76100  0.49400  Biso   1.000  C
  C88      1.0000 0.24500  0.23900  0.50600  Biso   1.000  C
  O41      1.0000 0.10430  0.35860  0.36730  Biso   1.000  O
  O42      1.0000 0.89570  0.64140  0.63270  Biso   1.000  O
  N9       1.0000 0.01260  0.28170  0.24840  Biso   1.000  N
  N10      1.0000 0.98740  0.71830  0.75160  Biso   1.000  N
  C89      1.0000 0.00700  0.31430  0.31780  Biso   1.000  C
  C90      1.0000 0.99300  0.68570  0.68220  Biso   1.000  C
  C91      1.0000 0.90400  0.22870  0.20180  Biso   1.000  C
  C92      1.0000 0.09600  0.77130  0.79820  Biso   1.000  C
  C93      1.0000 0.82000  0.28100  0.15400  Biso   1.000  C
  C94      1.0000 0.18000  0.71900  0.84600  Biso   1.000  C
  C95      1.0000 0.11700  0.30720  0.20860  Biso   1.000  C
  C96      1.0000 0.88300  0.69280  0.79140  Biso   1.000  C
  C97      1.0000 0.18240  0.24360  0.20340  Biso   1.000  C
  C98      1.0000 0.81760  0.75640  0.79660  Biso   1.000  C
  N11      1.0000 0.29400  0.32200  0.33400  Biso   1.000  N
  N12      1.0000 0.70600  0.67800  0.66600  Biso   1.000  N
  C99      1.0000 0.23300  0.36940  0.37000  Biso   1.000  C
  C100     1.0000 0.76700  0.63060  0.63000  Biso   1.000  C
  C101     1.0000 0.46400  0.33900  0.36900  Biso   1.000  C
  C102     1.0000 0.53600  0.66100  0.63100  Biso   1.000  C
  C103     1.0000 0.47300  0.35900  0.31300  Biso   1.000  C
  C104     1.0000 0.52700  0.64100  0.68700  Biso   1.000  C
  C105     1.0000 0.22200  0.24000  0.29000  Biso   1.000  C
  C106     1.0000 0.77800  0.76000  0.71000  Biso   1.000  C
  C107     1.0000 0.48100  0.47820  0.48100  Biso   1.000  C
  C108     1.0000 0.51900  0.52180  0.51900  Biso   1.000  C
  O43      1.0000 0.52100  0.32300  0.26600  Biso   1.000  O
  O44      1.0000 0.47900  0.67700  0.73400  Biso   1.000  O
  N13      1.0000 0.44900  0.36700  0.36960  Biso   1.000  N
  N14      1.0000 0.55100  0.63300  0.63040  Biso   1.000  N
  C109     1.0000 0.49100  0.30100  0.39300  Biso   1.000  C
  C110     1.0000 0.50900  0.69900  0.60700  Biso   1.000  C
  C111     1.0000 0.40100  0.25000  0.39200  Biso   1.000  C
  C112     1.0000 0.59900  0.75000  0.60800  Biso   1.000  C
  C113     1.0000 0.39200  0.42000  0.41000  Biso   1.000  C
  C114     1.0000 0.60800  0.58000  0.59000  Biso   1.000  C
  O45      1.0000 0.72910  0.05760  0.05850  Biso   1.000  O
  O46      1.0000 0.27090  0.94240  0.94150  Biso   1.000  O
  N15      1.0000 0.61850  0.06790  0.15940  Biso   1.000  N
  N16      1.0000 0.38150  0.93210  0.84060  Biso   1.000  N
  C115     1.0000 0.71400  0.04920  0.12480  Biso   1.000  C
  C116     1.0000 0.28600  0.95080  0.87520  Biso   1.000  C
  C117     1.0000 0.60880  0.06010  0.23360  Biso   1.000  C
  C118     1.0000 0.39120  0.93990  0.76640  Biso   1.000  C
  C119     1.0000 0.58400  0.12600  0.29000  Biso   1.000  C
  C120     1.0000 0.41600  0.87400  0.71000  Biso   1.000  C
  C121     1.0000 0.48000  0.06600  0.10700  Biso   1.000  C
  C122     1.0000 0.52000  0.93400  0.89300  Biso   1.000  C
  C123     1.0000 0.45400  0.12990  0.10130  Biso   1.000  C
  C124     1.0000 0.54600  0.87010  0.89870  Biso   1.000  C
  N17      1.0000 0.72200  0.17500  0.17700  Biso   1.000  N
  N18      1.0000 0.27800  0.82500  0.82300  Biso   1.000  N
  C125     1.0000 0.75400  0.12500  0.11000  Biso   1.000  C
  C126     1.0000 0.24600  0.87500  0.89000  Biso   1.000  C
  C127     1.0000 0.78300  0.25900  0.19900  Biso   1.000  C
  C128     1.0000 0.21700  0.74100  0.80100  Biso   1.000  C
  C129     1.0000 0.82100  0.23500  0.27800  Biso   1.000  C
  C130     1.0000 0.17900  0.76500  0.72200  Biso   1.000  C
  C131     1.0000 0.56700  0.12700  0.15100  Biso   1.000  C
  C132     1.0000 0.43300  0.87300  0.84900  Biso   1.000  C
