data_image0
_cell_length_a       20.0468
_cell_length_b       20.0468
_cell_length_c       20.7484
_cell_angle_alpha    90
_cell_angle_beta     90
_cell_angle_gamma    120

_symmetry_space_group_name_H-M    "P 1"
_symmetry_int_tables_number       1

loop_
  _symmetry_equiv_pos_as_xyz
  'x, y, z'

loop_
  _atom_site_label
  _atom_site_occupancy
  _atom_site_fract_x
  _atom_site_fract_y
  _atom_site_fract_z
  _atom_site_thermal_displace_type
  _atom_site_B_iso_or_equiv
  _atom_site_type_symbol
  Cu1      1.0000 0.82139  0.17861  0.10613  Biso   1.000  Cu
  Cu2      1.0000 0.82139  0.64278  0.10613  Biso   1.000  Cu
  Cu3      1.0000 0.35722  0.17861  0.10613  Biso   1.000  Cu
  Cu4      1.0000 0.17861  0.82139  0.89387  Biso   1.000  Cu
  Cu5      1.0000 0.48806  0.51194  0.43946  Biso   1.000  Cu
  Cu6      1.0000 0.48806  0.97611  0.43946  Biso   1.000  Cu
  Cu7      1.0000 0.02389  0.51194  0.43946  Biso   1.000  Cu
  Cu8      1.0000 0.84528  0.15472  0.22720  Biso   1.000  Cu
  Cu9      1.0000 0.15472  0.84528  0.77280  Biso   1.000  Cu
  Cu10     1.0000 0.51194  0.48806  0.56054  Biso   1.000  Cu
  Cu11     1.0000 0.64278  0.82139  0.89387  Biso   1.000  Cu
  Cu12     1.0000 0.17861  0.35722  0.89387  Biso   1.000  Cu
  Cu13     1.0000 0.15472  0.30945  0.77280  Biso   1.000  Cu
  Cu14     1.0000 0.69055  0.84528  0.77280  Biso   1.000  Cu
  Cu15     1.0000 0.97611  0.48806  0.56054  Biso   1.000  Cu
  Cu16     1.0000 0.51194  0.02389  0.56054  Biso   1.000  Cu
  Cu17     1.0000 0.30945  0.15472  0.22720  Biso   1.000  Cu
  Cu18     1.0000 0.84528  0.69055  0.22720  Biso   1.000  Cu
  S1       1.0000 0.80084  0.90042  0.17812  Biso   1.000  S
  S2       1.0000 0.09958  0.90042  0.17812  Biso   1.000  S
  S3       1.0000 0.09958  0.19916  0.17812  Biso   1.000  S
  S4       1.0000 0.90042  0.80084  0.82188  Biso   1.000  S
  S5       1.0000 0.46751  0.23375  0.51145  Biso   1.000  S
  S6       1.0000 0.76625  0.23375  0.51145  Biso   1.000  S
  S7       1.0000 0.76625  0.53249  0.51145  Biso   1.000  S
  S8       1.0000 0.56709  0.13417  0.15521  Biso   1.000  S
  S9       1.0000 0.13417  0.56709  0.84479  Biso   1.000  S
  S10      1.0000 0.23375  0.46751  0.48855  Biso   1.000  S
  S11      1.0000 0.90042  0.09958  0.82188  Biso   1.000  S
  S12      1.0000 0.19916  0.09958  0.82188  Biso   1.000  S
  S13      1.0000 0.43291  0.56709  0.84479  Biso   1.000  S
  S14      1.0000 0.43291  0.86583  0.84479  Biso   1.000  S
  S15      1.0000 0.23375  0.76625  0.48855  Biso   1.000  S
  S16      1.0000 0.53249  0.76625  0.48855  Biso   1.000  S
  S17      1.0000 0.56709  0.43291  0.15521  Biso   1.000  S
  S18      1.0000 0.86583  0.43291  0.15521  Biso   1.000  S
  O1       1.0000 0.79270  0.07020  0.09400  Biso   1.000  O
  O2       1.0000 0.92980  0.72250  0.09400  Biso   1.000  O
  O3       1.0000 0.27750  0.20730  0.09400  Biso   1.000  O
  O4       1.0000 0.07020  0.79270  0.90600  Biso   1.000  O
  O5       1.0000 0.45937  0.40353  0.42733  Biso   1.000  O
  O6       1.0000 0.59647  0.05583  0.42733  Biso   1.000  O
  O7       1.0000 0.94417  0.54063  0.42733  Biso   1.000  O
  O8       1.0000 0.73687  0.12603  0.23933  Biso   1.000  O
  O9       1.0000 0.12603  0.73687  0.76067  Biso   1.000  O
  O10      1.0000 0.40353  0.45937  0.57267  Biso   1.000  O
  O11      1.0000 0.72250  0.92980  0.90600  Biso   1.000  O
  O12      1.0000 0.20730  0.27750  0.90600  Biso   1.000  O
  O13      1.0000 0.26313  0.38917  0.76067  Biso   1.000  O
  O14      1.0000 0.61083  0.87397  0.76067  Biso   1.000  O
  O15      1.0000 0.05583  0.59647  0.57267  Biso   1.000  O
  O16      1.0000 0.54063  0.94417  0.57267  Biso   1.000  O
  O17      1.0000 0.38917  0.26313  0.23933  Biso   1.000  O
  O18      1.0000 0.87397  0.61083  0.23933  Biso   1.000  O
  O19      1.0000 0.20730  0.92980  0.90600  Biso   1.000  O
  O20      1.0000 0.07020  0.27750  0.90600  Biso   1.000  O
  O21      1.0000 0.72250  0.79270  0.90600  Biso   1.000  O
  O22      1.0000 0.92980  0.20730  0.09400  Biso   1.000  O
  O23      1.0000 0.87397  0.26313  0.23933  Biso   1.000  O
  O24      1.0000 0.73687  0.61083  0.23933  Biso   1.000  O
  O25      1.0000 0.38917  0.12603  0.23933  Biso   1.000  O
  O26      1.0000 0.59647  0.54063  0.42733  Biso   1.000  O
  O27      1.0000 0.54063  0.59647  0.57267  Biso   1.000  O
  O28      1.0000 0.26313  0.87397  0.76067  Biso   1.000  O
  O29      1.0000 0.27750  0.07020  0.09400  Biso   1.000  O
  O30      1.0000 0.79270  0.72250  0.09400  Biso   1.000  O
  O31      1.0000 0.40353  0.94417  0.57267  Biso   1.000  O
  O32      1.0000 0.05583  0.45937  0.57267  Biso   1.000  O
  O33      1.0000 0.61083  0.73687  0.76067  Biso   1.000  O
  O34      1.0000 0.12603  0.38917  0.76067  Biso   1.000  O
  O35      1.0000 0.94417  0.40353  0.42733  Biso   1.000  O
  O36      1.0000 0.45937  0.05583  0.42733  Biso   1.000  O
  O37      1.0000 0.81330  0.05040  0.19660  Biso   1.000  O
  O38      1.0000 0.94960  0.76290  0.19660  Biso   1.000  O
  O39      1.0000 0.23710  0.18670  0.19660  Biso   1.000  O
  O40      1.0000 0.05040  0.81330  0.80340  Biso   1.000  O
  O41      1.0000 0.47997  0.38373  0.52993  Biso   1.000  O
  O42      1.0000 0.61627  0.09623  0.52993  Biso   1.000  O
  O43      1.0000 0.90377  0.52003  0.52993  Biso   1.000  O
  O44      1.0000 0.71707  0.14663  0.13673  Biso   1.000  O
  O45      1.0000 0.14663  0.71707  0.86327  Biso   1.000  O
  O46      1.0000 0.38373  0.47997  0.47007  Biso   1.000  O
  O47      1.0000 0.76290  0.94960  0.80340  Biso   1.000  O
  O48      1.0000 0.18670  0.23710  0.80340  Biso   1.000  O
  O49      1.0000 0.28293  0.42957  0.86327  Biso   1.000  O
  O50      1.0000 0.57043  0.85337  0.86327  Biso   1.000  O
  O51      1.0000 0.09623  0.61627  0.47007  Biso   1.000  O
  O52      1.0000 0.52003  0.90377  0.47007  Biso   1.000  O
  O53      1.0000 0.42957  0.28293  0.13673  Biso   1.000  O
  O54      1.0000 0.85337  0.57043  0.13673  Biso   1.000  O
  O55      1.0000 0.18670  0.94960  0.80340  Biso   1.000  O
  O56      1.0000 0.05040  0.23710  0.80340  Biso   1.000  O
  O57      1.0000 0.76290  0.81330  0.80340  Biso   1.000  O
  O58      1.0000 0.94960  0.18670  0.19660  Biso   1.000  O
  O59      1.0000 0.85337  0.28293  0.13673  Biso   1.000  O
  O60      1.0000 0.71707  0.57043  0.13673  Biso   1.000  O
  O61      1.0000 0.42957  0.14663  0.13673  Biso   1.000  O
  O62      1.0000 0.61627  0.52003  0.52993  Biso   1.000  O
  O63      1.0000 0.52003  0.61627  0.47007  Biso   1.000  O
  O64      1.0000 0.28293  0.85337  0.86327  Biso   1.000  O
  O65      1.0000 0.23710  0.05040  0.19660  Biso   1.000  O
  O66      1.0000 0.81330  0.76290  0.19660  Biso   1.000  O
  O67      1.0000 0.38373  0.90377  0.47007  Biso   1.000  O
  O68      1.0000 0.09623  0.47997  0.47007  Biso   1.000  O
  O69      1.0000 0.57043  0.71707  0.86327  Biso   1.000  O
  O70      1.0000 0.14663  0.42957  0.86327  Biso   1.000  O
  O71      1.0000 0.90377  0.38373  0.52993  Biso   1.000  O
  O72      1.0000 0.47997  0.09623  0.52993  Biso   1.000  O
  C1       1.0000 0.76680  0.91950  0.06230  Biso   1.000  C
  C2       1.0000 0.08050  0.84730  0.06230  Biso   1.000  C
  C3       1.0000 0.15270  0.23320  0.06230  Biso   1.000  C
  C4       1.0000 0.91950  0.76680  0.93770  Biso   1.000  C
  C5       1.0000 0.43347  0.25283  0.39563  Biso   1.000  C
  C6       1.0000 0.74717  0.18063  0.39563  Biso   1.000  C
  C7       1.0000 0.81937  0.56653  0.39563  Biso   1.000  C
  C8       1.0000 0.58617  0.10013  0.27103  Biso   1.000  C
  C9       1.0000 0.10013  0.58617  0.72897  Biso   1.000  C
  C10      1.0000 0.25283  0.43347  0.60437  Biso   1.000  C
  C11      1.0000 0.84730  0.08050  0.93770  Biso   1.000  C
  C12      1.0000 0.23320  0.15270  0.93770  Biso   1.000  C
  C13      1.0000 0.41383  0.51397  0.72897  Biso   1.000  C
  C14      1.0000 0.48603  0.89987  0.72897  Biso   1.000  C
  C15      1.0000 0.18063  0.74717  0.60437  Biso   1.000  C
  C16      1.0000 0.56653  0.81937  0.60437  Biso   1.000  C
  C17      1.0000 0.51397  0.41383  0.27103  Biso   1.000  C
  C18      1.0000 0.89987  0.48603  0.27103  Biso   1.000  C
  C19      1.0000 0.23320  0.08050  0.93770  Biso   1.000  C
  C20      1.0000 0.91950  0.15270  0.93770  Biso   1.000  C
  C21      1.0000 0.84730  0.76680  0.93770  Biso   1.000  C
  C22      1.0000 0.08050  0.23320  0.06230  Biso   1.000  C
  C23      1.0000 0.89987  0.41383  0.27103  Biso   1.000  C
  C24      1.0000 0.58617  0.48603  0.27103  Biso   1.000  C
  C25      1.0000 0.51397  0.10013  0.27103  Biso   1.000  C
  C26      1.0000 0.74717  0.56653  0.39563  Biso   1.000  C
  C27      1.0000 0.56653  0.74717  0.60437  Biso   1.000  C
  C28      1.0000 0.41383  0.89987  0.72897  Biso   1.000  C
  C29      1.0000 0.15270  0.91950  0.06230  Biso   1.000  C
  C30      1.0000 0.76680  0.84730  0.06230  Biso   1.000  C
  C31      1.0000 0.25283  0.81937  0.60437  Biso   1.000  C
  C32      1.0000 0.18063  0.43347  0.60437  Biso   1.000  C
  C33      1.0000 0.48603  0.58617  0.72897  Biso   1.000  C
  C34      1.0000 0.10013  0.51397  0.72897  Biso   1.000  C
  C35      1.0000 0.81937  0.25283  0.39563  Biso   1.000  C
  C36      1.0000 0.43347  0.18063  0.39563  Biso   1.000  C
  H1       1.0000 0.75540  0.94050  0.02570  Biso   1.000  H
  H2       1.0000 0.05950  0.81490  0.02570  Biso   1.000  H
  H3       1.0000 0.18510  0.24460  0.02570  Biso   1.000  H
  H4       1.0000 0.94050  0.75540  0.97430  Biso   1.000  H
  H5       1.0000 0.42207  0.27383  0.35903  Biso   1.000  H
  H6       1.0000 0.72617  0.14823  0.35903  Biso   1.000  H
  H7       1.0000 0.85177  0.57793  0.35903  Biso   1.000  H
  H8       1.0000 0.60717  0.08873  0.30763  Biso   1.000  H
  H9       1.0000 0.08873  0.60717  0.69237  Biso   1.000  H
  H10      1.0000 0.27383  0.42207  0.64097  Biso   1.000  H
  H11      1.0000 0.81490  0.05950  0.97430  Biso   1.000  H
  H12      1.0000 0.24460  0.18510  0.97430  Biso   1.000  H
  H13      1.0000 0.39283  0.48157  0.69237  Biso   1.000  H
  H14      1.0000 0.51843  0.91127  0.69237  Biso   1.000  H
  H15      1.0000 0.14823  0.72617  0.64097  Biso   1.000  H
  H16      1.0000 0.57793  0.85177  0.64097  Biso   1.000  H
  H17      1.0000 0.48157  0.39283  0.30763  Biso   1.000  H
  H18      1.0000 0.91127  0.51843  0.30763  Biso   1.000  H
  H19      1.0000 0.24460  0.05950  0.97430  Biso   1.000  H
  H20      1.0000 0.94050  0.18510  0.97430  Biso   1.000  H
  H21      1.0000 0.81490  0.75540  0.97430  Biso   1.000  H
  H22      1.0000 0.05950  0.24460  0.02570  Biso   1.000  H
  H23      1.0000 0.91127  0.39283  0.30763  Biso   1.000  H
  H24      1.0000 0.60717  0.51843  0.30763  Biso   1.000  H
  H25      1.0000 0.48157  0.08873  0.30763  Biso   1.000  H
  H26      1.0000 0.72617  0.57793  0.35903  Biso   1.000  H
  H27      1.0000 0.57793  0.72617  0.64097  Biso   1.000  H
  H28      1.0000 0.39283  0.91127  0.69237  Biso   1.000  H
  H29      1.0000 0.18510  0.94050  0.02570  Biso   1.000  H
  H30      1.0000 0.75540  0.81490  0.02570  Biso   1.000  H
  H31      1.0000 0.27383  0.85177  0.64097  Biso   1.000  H
  H32      1.0000 0.14823  0.42207  0.64097  Biso   1.000  H
  H33      1.0000 0.51843  0.60717  0.69237  Biso   1.000  H
  H34      1.0000 0.08873  0.48157  0.69237  Biso   1.000  H
  H35      1.0000 0.85177  0.27383  0.35903  Biso   1.000  H
  H36      1.0000 0.42207  0.14823  0.35903  Biso   1.000  H
  C37      1.0000 0.78560  0.95400  0.12240  Biso   1.000  C
  C38      1.0000 0.04600  0.83160  0.12240  Biso   1.000  C
  C39      1.0000 0.16840  0.21440  0.12240  Biso   1.000  C
  C40      1.0000 0.95400  0.78560  0.87760  Biso   1.000  C
  C41      1.0000 0.45227  0.28733  0.45573  Biso   1.000  C
  C42      1.0000 0.71267  0.16493  0.45573  Biso   1.000  C
  C43      1.0000 0.83507  0.54773  0.45573  Biso   1.000  C
  C44      1.0000 0.62067  0.11893  0.21093  Biso   1.000  C
  C45      1.0000 0.11893  0.62067  0.78907  Biso   1.000  C
  C46      1.0000 0.28733  0.45227  0.54427  Biso   1.000  C
  C47      1.0000 0.83160  0.04600  0.87760  Biso   1.000  C
  C48      1.0000 0.21440  0.16840  0.87760  Biso   1.000  C
  C49      1.0000 0.37933  0.49827  0.78907  Biso   1.000  C
  C50      1.0000 0.50173  0.88107  0.78907  Biso   1.000  C
  C51      1.0000 0.16493  0.71267  0.54427  Biso   1.000  C
  C52      1.0000 0.54773  0.83507  0.54427  Biso   1.000  C
  C53      1.0000 0.49827  0.37933  0.21093  Biso   1.000  C
  C54      1.0000 0.88107  0.50173  0.21093  Biso   1.000  C
  C55      1.0000 0.21440  0.04600  0.87760  Biso   1.000  C
  C56      1.0000 0.95400  0.16840  0.87760  Biso   1.000  C
  C57      1.0000 0.83160  0.78560  0.87760  Biso   1.000  C
  C58      1.0000 0.04600  0.21440  0.12240  Biso   1.000  C
  C59      1.0000 0.88107  0.37933  0.21093  Biso   1.000  C
  C60      1.0000 0.62067  0.50173  0.21093  Biso   1.000  C
  C61      1.0000 0.49827  0.11893  0.21093  Biso   1.000  C
  C62      1.0000 0.71267  0.54773  0.45573  Biso   1.000  C
  C63      1.0000 0.54773  0.71267  0.54427  Biso   1.000  C
  C64      1.0000 0.37933  0.88107  0.78907  Biso   1.000  C
  C65      1.0000 0.16840  0.95400  0.12240  Biso   1.000  C
  C66      1.0000 0.78560  0.83160  0.12240  Biso   1.000  C
  C67      1.0000 0.28733  0.83507  0.54427  Biso   1.000  C
  C68      1.0000 0.16493  0.45227  0.54427  Biso   1.000  C
  C69      1.0000 0.50173  0.62067  0.78907  Biso   1.000  C
  C70      1.0000 0.11893  0.49827  0.78907  Biso   1.000  C
  C71      1.0000 0.83507  0.28733  0.45573  Biso   1.000  C
  C72      1.0000 0.45227  0.16493  0.45573  Biso   1.000  C
  C73      1.0000 0.79860  0.03090  0.13880  Biso   1.000  C
  C74      1.0000 0.96910  0.76770  0.13880  Biso   1.000  C
  C75      1.0000 0.23230  0.20140  0.13880  Biso   1.000  C
  C76      1.0000 0.03090  0.79860  0.86120  Biso   1.000  C
  C77      1.0000 0.46527  0.36423  0.47213  Biso   1.000  C
  C78      1.0000 0.63577  0.10103  0.47213  Biso   1.000  C
  C79      1.0000 0.89897  0.53473  0.47213  Biso   1.000  C
  C80      1.0000 0.69757  0.13193  0.19453  Biso   1.000  C
  C81      1.0000 0.13193  0.69757  0.80547  Biso   1.000  C
  C82      1.0000 0.36423  0.46527  0.52787  Biso   1.000  C
  C83      1.0000 0.76770  0.96910  0.86120  Biso   1.000  C
  C84      1.0000 0.20140  0.23230  0.86120  Biso   1.000  C
  C85      1.0000 0.30243  0.43437  0.80547  Biso   1.000  C
  C86      1.0000 0.56563  0.86807  0.80547  Biso   1.000  C
  C87      1.0000 0.10103  0.63577  0.52787  Biso   1.000  C
  C88      1.0000 0.53473  0.89897  0.52787  Biso   1.000  C
  C89      1.0000 0.43437  0.30243  0.19453  Biso   1.000  C
  C90      1.0000 0.86807  0.56563  0.19453  Biso   1.000  C
  C91      1.0000 0.20140  0.96910  0.86120  Biso   1.000  C
  C92      1.0000 0.03090  0.23230  0.86120  Biso   1.000  C
  C93      1.0000 0.76770  0.79860  0.86120  Biso   1.000  C
  C94      1.0000 0.96910  0.20140  0.13880  Biso   1.000  C
  C95      1.0000 0.86807  0.30243  0.19453  Biso   1.000  C
  C96      1.0000 0.69757  0.56563  0.19453  Biso   1.000  C
  C97      1.0000 0.43437  0.13193  0.19453  Biso   1.000  C
  C98      1.0000 0.63577  0.53473  0.47213  Biso   1.000  C
  C99      1.0000 0.53473  0.63577  0.52787  Biso   1.000  C
  C100     1.0000 0.30243  0.86807  0.80547  Biso   1.000  C
  C101     1.0000 0.23230  0.03090  0.13880  Biso   1.000  C
  C102     1.0000 0.79860  0.76770  0.13880  Biso   1.000  C
  C103     1.0000 0.36423  0.89897  0.52787  Biso   1.000  C
  C104     1.0000 0.10103  0.46527  0.52787  Biso   1.000  C
  C105     1.0000 0.56563  0.69757  0.80547  Biso   1.000  C
  C106     1.0000 0.13193  0.43437  0.80547  Biso   1.000  C
  C107     1.0000 0.89897  0.36423  0.47213  Biso   1.000  C
  C108     1.0000 0.46527  0.10103  0.47213  Biso   1.000  C
  O73      1.0000 0.80030  0.19970  0.01180  Biso   1.000  O
  O74      1.0000 0.80030  0.60060  0.01180  Biso   1.000  O
  O75      1.0000 0.39940  0.19970  0.01180  Biso   1.000  O
  O76      1.0000 0.19970  0.80030  0.98820  Biso   1.000  O
  O77      1.0000 0.46697  0.53303  0.34513  Biso   1.000  O
  O78      1.0000 0.46697  0.93393  0.34513  Biso   1.000  O
  O79      1.0000 0.06607  0.53303  0.34513  Biso   1.000  O
  O80      1.0000 0.86637  0.13363  0.32153  Biso   1.000  O
  O81      1.0000 0.13363  0.86637  0.67847  Biso   1.000  O
  O82      1.0000 0.53303  0.46697  0.65487  Biso   1.000  O
  O83      1.0000 0.60060  0.80030  0.98820  Biso   1.000  O
  O84      1.0000 0.19970  0.39940  0.98820  Biso   1.000  O
  O85      1.0000 0.13363  0.26727  0.67847  Biso   1.000  O
  O86      1.0000 0.73273  0.86637  0.67847  Biso   1.000  O
  O87      1.0000 0.93393  0.46697  0.65487  Biso   1.000  O
  O88      1.0000 0.53303  0.06607  0.65487  Biso   1.000  O
  O89      1.0000 0.26727  0.13363  0.32153  Biso   1.000  O
  O90      1.0000 0.86637  0.73273  0.32153  Biso   1.000  O
  C109     1.0000 0.74020  0.14370  0.98730  Biso   1.000  C
  C110     1.0000 0.85630  0.59650  0.98730  Biso   1.000  C
  C111     1.0000 0.40350  0.25980  0.98730  Biso   1.000  C
  C112     1.0000 0.14370  0.74020  0.01270  Biso   1.000  C
  C113     1.0000 0.40687  0.47703  0.32063  Biso   1.000  C
  C114     1.0000 0.52297  0.92983  0.32063  Biso   1.000  C
  C115     1.0000 0.07017  0.59313  0.32063  Biso   1.000  C
  C116     1.0000 0.81037  0.07353  0.34603  Biso   1.000  C
  C117     1.0000 0.07353  0.81037  0.65397  Biso   1.000  C
  C118     1.0000 0.47703  0.40687  0.67937  Biso   1.000  C
  C119     1.0000 0.59650  0.85630  0.01270  Biso   1.000  C
  C120     1.0000 0.25980  0.40350  0.01270  Biso   1.000  C
  C121     1.0000 0.18963  0.26317  0.65397  Biso   1.000  C
  C122     1.0000 0.73683  0.92647  0.65397  Biso   1.000  C
  C123     1.0000 0.92983  0.52297  0.67937  Biso   1.000  C
  C124     1.0000 0.59313  0.07017  0.67937  Biso   1.000  C
  C125     1.0000 0.26317  0.18963  0.34603  Biso   1.000  C
  C126     1.0000 0.92647  0.73683  0.34603  Biso   1.000  C
  C127     1.0000 0.25980  0.85630  0.01270  Biso   1.000  C
  C128     1.0000 0.14370  0.40350  0.01270  Biso   1.000  C
  C129     1.0000 0.59650  0.74020  0.01270  Biso   1.000  C
  C130     1.0000 0.85630  0.25980  0.98730  Biso   1.000  C
  C131     1.0000 0.92647  0.18963  0.34603  Biso   1.000  C
  C132     1.0000 0.81037  0.73683  0.34603  Biso   1.000  C
  C133     1.0000 0.26317  0.07353  0.34603  Biso   1.000  C
  C134     1.0000 0.52297  0.59313  0.32063  Biso   1.000  C
  C135     1.0000 0.59313  0.52297  0.67937  Biso   1.000  C
  C136     1.0000 0.18963  0.92647  0.65397  Biso   1.000  C
  C137     1.0000 0.40350  0.14370  0.98730  Biso   1.000  C
  C138     1.0000 0.74020  0.59650  0.98730  Biso   1.000  C
  C139     1.0000 0.47703  0.07017  0.67937  Biso   1.000  C
  C140     1.0000 0.92983  0.40687  0.67937  Biso   1.000  C
  C141     1.0000 0.73683  0.81037  0.65397  Biso   1.000  C
  C142     1.0000 0.07353  0.26317  0.65397  Biso   1.000  C
  C143     1.0000 0.07017  0.47703  0.32063  Biso   1.000  C
  C144     1.0000 0.40687  0.92983  0.32063  Biso   1.000  C
  N1       1.0000 0.71800  0.13500  0.92340  Biso   1.000  N
  N2       1.0000 0.86500  0.58300  0.92340  Biso   1.000  N
  N3       1.0000 0.41700  0.28200  0.92340  Biso   1.000  N
  N4       1.0000 0.13500  0.71800  0.07660  Biso   1.000  N
  N5       1.0000 0.38467  0.46833  0.25673  Biso   1.000  N
  N6       1.0000 0.53167  0.91633  0.25673  Biso   1.000  N
  N7       1.0000 0.08367  0.61533  0.25673  Biso   1.000  N
  N8       1.0000 0.80167  0.05133  0.40993  Biso   1.000  N
  N9       1.0000 0.05133  0.80167  0.59007  Biso   1.000  N
  N10      1.0000 0.46833  0.38467  0.74327  Biso   1.000  N
  N11      1.0000 0.58300  0.86500  0.07660  Biso   1.000  N
  N12      1.0000 0.28200  0.41700  0.07660  Biso   1.000  N
  N13      1.0000 0.19833  0.24967  0.59007  Biso   1.000  N
  N14      1.0000 0.75033  0.94867  0.59007  Biso   1.000  N
  N15      1.0000 0.91633  0.53167  0.74327  Biso   1.000  N
  N16      1.0000 0.61533  0.08367  0.74327  Biso   1.000  N
  N17      1.0000 0.24967  0.19833  0.40993  Biso   1.000  N
  N18      1.0000 0.94867  0.75033  0.40993  Biso   1.000  N
  N19      1.0000 0.28200  0.86500  0.07660  Biso   1.000  N
  N20      1.0000 0.13500  0.41700  0.07660  Biso   1.000  N
  N21      1.0000 0.58300  0.71800  0.07660  Biso   1.000  N
  N22      1.0000 0.86500  0.28200  0.92340  Biso   1.000  N
  N23      1.0000 0.94867  0.19833  0.40993  Biso   1.000  N
  N24      1.0000 0.80167  0.75033  0.40993  Biso   1.000  N
  N25      1.0000 0.24967  0.05133  0.40993  Biso   1.000  N
  N26      1.0000 0.53167  0.61533  0.25673  Biso   1.000  N
  N27      1.0000 0.61533  0.53167  0.74327  Biso   1.000  N
  N28      1.0000 0.19833  0.94867  0.59007  Biso   1.000  N
  N29      1.0000 0.41700  0.13500  0.92340  Biso   1.000  N
  N30      1.0000 0.71800  0.58300  0.92340  Biso   1.000  N
  N31      1.0000 0.46833  0.08367  0.74327  Biso   1.000  N
  N32      1.0000 0.91633  0.38467  0.74327  Biso   1.000  N
  N33      1.0000 0.75033  0.80167  0.59007  Biso   1.000  N
  N34      1.0000 0.05133  0.24967  0.59007  Biso   1.000  N
  N35      1.0000 0.08367  0.46833  0.25673  Biso   1.000  N
  N36      1.0000 0.38467  0.91633  0.25673  Biso   1.000  N
  C145     1.0000 0.78610  0.21390  0.87480  Biso   1.000  C
  C146     1.0000 0.78610  0.57220  0.87480  Biso   1.000  C
  C147     1.0000 0.42780  0.21390  0.87480  Biso   1.000  C
  C148     1.0000 0.21390  0.78610  0.12520  Biso   1.000  C
  C149     1.0000 0.45277  0.54723  0.20813  Biso   1.000  C
  C150     1.0000 0.45277  0.90553  0.20813  Biso   1.000  C
  C151     1.0000 0.09447  0.54723  0.20813  Biso   1.000  C
  C152     1.0000 0.88057  0.11943  0.45853  Biso   1.000  C
  C153     1.0000 0.11943  0.88057  0.54147  Biso   1.000  C
  C154     1.0000 0.54723  0.45277  0.79187  Biso   1.000  C
  C155     1.0000 0.57220  0.78610  0.12520  Biso   1.000  C
  C156     1.0000 0.21390  0.42780  0.12520  Biso   1.000  C
  C157     1.0000 0.11943  0.23887  0.54147  Biso   1.000  C
  C158     1.0000 0.76113  0.88057  0.54147  Biso   1.000  C
  C159     1.0000 0.90553  0.45277  0.79187  Biso   1.000  C
  C160     1.0000 0.54723  0.09447  0.79187  Biso   1.000  C
  C161     1.0000 0.23887  0.11943  0.45853  Biso   1.000  C
  C162     1.0000 0.88057  0.76113  0.45853  Biso   1.000  C
  C163     1.0000 0.63400  0.07400  0.87500  Biso   1.000  C
  C164     1.0000 0.92600  0.56000  0.87500  Biso   1.000  C
  C165     1.0000 0.44000  0.36600  0.87500  Biso   1.000  C
  C166     1.0000 0.07400  0.63400  0.12500  Biso   1.000  C
  C167     1.0000 0.30067  0.40733  0.20833  Biso   1.000  C
  C168     1.0000 0.59267  0.89333  0.20833  Biso   1.000  C
  C169     1.0000 0.10667  0.69933  0.20833  Biso   1.000  C
  C170     1.0000 0.74067  0.96733  0.45833  Biso   1.000  C
  C171     1.0000 0.96733  0.74067  0.54167  Biso   1.000  C
  C172     1.0000 0.40733  0.30067  0.79167  Biso   1.000  C
  C173     1.0000 0.56000  0.92600  0.12500  Biso   1.000  C
  C174     1.0000 0.36600  0.44000  0.12500  Biso   1.000  C
  C175     1.0000 0.25933  0.22667  0.54167  Biso   1.000  C
  C176     1.0000 0.77333  0.03267  0.54167  Biso   1.000  C
  C177     1.0000 0.89333  0.59267  0.79167  Biso   1.000  C
  C178     1.0000 0.69933  0.10667  0.79167  Biso   1.000  C
  C179     1.0000 0.22667  0.25933  0.45833  Biso   1.000  C
  C180     1.0000 0.03267  0.77333  0.45833  Biso   1.000  C
  C181     1.0000 0.36600  0.92600  0.12500  Biso   1.000  C
  C182     1.0000 0.07400  0.44000  0.12500  Biso   1.000  C
  C183     1.0000 0.56000  0.63400  0.12500  Biso   1.000  C
  C184     1.0000 0.92600  0.36600  0.87500  Biso   1.000  C
  C185     1.0000 0.03267  0.25933  0.45833  Biso   1.000  C
  C186     1.0000 0.74067  0.77333  0.45833  Biso   1.000  C
  C187     1.0000 0.22667  0.96733  0.45833  Biso   1.000  C
  C188     1.0000 0.59267  0.69933  0.20833  Biso   1.000  C
  C189     1.0000 0.69933  0.59267  0.79167  Biso   1.000  C
  C190     1.0000 0.25933  0.03267  0.54167  Biso   1.000  C
  C191     1.0000 0.44000  0.07400  0.87500  Biso   1.000  C
  C192     1.0000 0.63400  0.56000  0.87500  Biso   1.000  C
  C193     1.0000 0.40733  0.10667  0.79167  Biso   1.000  C
  C194     1.0000 0.89333  0.30067  0.79167  Biso   1.000  C
  C195     1.0000 0.77333  0.74067  0.54167  Biso   1.000  C
  C196     1.0000 0.96733  0.22667  0.54167  Biso   1.000  C
  C197     1.0000 0.10667  0.40733  0.20833  Biso   1.000  C
  C198     1.0000 0.30067  0.89333  0.20833  Biso   1.000  C
  C199     1.0000 0.66670  0.33330  0.33330  Biso   1.000  C
  C200     1.0000 0.33330  0.66670  0.66670  Biso   1.000  C
  C201     1.0000 0.99997  0.00003  0.00003  Biso   1.000  C
  C202     1.0000 0.55870  0.00000  0.00000  Biso   1.000  C
  C203     1.0000 0.00000  0.55870  0.00000  Biso   1.000  C
  C204     1.0000 0.44130  0.44130  0.00000  Biso   1.000  C
  C205     1.0000 0.22537  0.33333  0.33333  Biso   1.000  C
  C206     1.0000 0.66667  0.89203  0.33333  Biso   1.000  C
  C207     1.0000 0.10797  0.77463  0.33333  Biso   1.000  C
  C208     1.0000 0.89203  0.66667  0.66667  Biso   1.000  C
  C209     1.0000 0.33333  0.22537  0.66667  Biso   1.000  C
  C210     1.0000 0.77463  0.10797  0.66667  Biso   1.000  C
  C211     1.0000 0.44130  0.00000  0.00000  Biso   1.000  C
  C212     1.0000 0.00000  0.44130  0.00000  Biso   1.000  C
  C213     1.0000 0.55870  0.55870  0.00000  Biso   1.000  C
  C214     1.0000 0.10797  0.33333  0.33333  Biso   1.000  C
  C215     1.0000 0.66667  0.77463  0.33333  Biso   1.000  C
  C216     1.0000 0.22537  0.89203  0.33333  Biso   1.000  C
  C217     1.0000 0.77463  0.66667  0.66667  Biso   1.000  C
  C218     1.0000 0.33333  0.10797  0.66667  Biso   1.000  C
  C219     1.0000 0.89203  0.22537  0.66667  Biso   1.000  C
  C220     1.0000 0.66670  0.33330  0.89200  Biso   1.000  C
  C221     1.0000 0.33330  0.66670  0.10800  Biso   1.000  C
  C222     1.0000 0.33337  0.66663  0.22533  Biso   1.000  C
  C223     1.0000 0.99997  0.00003  0.44133  Biso   1.000  C
  C224     1.0000 0.00003  0.99997  0.55867  Biso   1.000  C
  C225     1.0000 0.66663  0.33337  0.77467  Biso   1.000  C
  C226     1.0000 0.66670  0.33330  0.08000  Biso   1.000  C
  C227     1.0000 0.33330  0.66670  0.92000  Biso   1.000  C
  C228     1.0000 0.33337  0.66663  0.41333  Biso   1.000  C
  C229     1.0000 0.99997  0.00003  0.25333  Biso   1.000  C
  C230     1.0000 0.00003  0.99997  0.74667  Biso   1.000  C
  C231     1.0000 0.66663  0.33337  0.58667  Biso   1.000  C
  C232     1.0000 0.64740  0.35260  0.01800  Biso   1.000  C
  C233     1.0000 0.64740  0.29480  0.01800  Biso   1.000  C
  C234     1.0000 0.70520  0.35260  0.01800  Biso   1.000  C
  C235     1.0000 0.35260  0.64740  0.98200  Biso   1.000  C
  C236     1.0000 0.31407  0.68593  0.35133  Biso   1.000  C
  C237     1.0000 0.31407  0.62813  0.35133  Biso   1.000  C
  C238     1.0000 0.37187  0.68593  0.35133  Biso   1.000  C
  C239     1.0000 0.01927  0.98073  0.31533  Biso   1.000  C
  C240     1.0000 0.98073  0.01927  0.68467  Biso   1.000  C
  C241     1.0000 0.68593  0.31407  0.64867  Biso   1.000  C
  C242     1.0000 0.29480  0.64740  0.98200  Biso   1.000  C
  C243     1.0000 0.35260  0.70520  0.98200  Biso   1.000  C
  C244     1.0000 0.98073  0.96147  0.68467  Biso   1.000  C
  C245     1.0000 0.03853  0.01927  0.68467  Biso   1.000  C
  C246     1.0000 0.62813  0.31407  0.64867  Biso   1.000  C
  C247     1.0000 0.68593  0.37187  0.64867  Biso   1.000  C
  C248     1.0000 0.96147  0.98073  0.31533  Biso   1.000  C
  C249     1.0000 0.01927  0.03853  0.31533  Biso   1.000  C
  C250     1.0000 0.50000  0.00000  0.00000  Biso   1.000  C
  C251     1.0000 0.00000  0.50000  0.00000  Biso   1.000  C
  C252     1.0000 0.50000  0.50000  0.00000  Biso   1.000  C
  C253     1.0000 0.16667  0.33333  0.33333  Biso   1.000  C
  C254     1.0000 0.66667  0.83333  0.33333  Biso   1.000  C
  C255     1.0000 0.16667  0.83333  0.33333  Biso   1.000  C
  C256     1.0000 0.83333  0.66667  0.66667  Biso   1.000  C
  C257     1.0000 0.33333  0.16667  0.66667  Biso   1.000  C
  C258     1.0000 0.83333  0.16667  0.66667  Biso   1.000  C
  C259     1.0000 0.66670  0.33330  0.40400  Biso   1.000  C
  C260     1.0000 0.33330  0.66670  0.59600  Biso   1.000  C
  C261     1.0000 0.33337  0.66663  0.73733  Biso   1.000  C
  C262     1.0000 0.99997  0.00003  0.92933  Biso   1.000  C
  C263     1.0000 0.00003  0.99997  0.07067  Biso   1.000  C
  C264     1.0000 0.66663  0.33337  0.26267  Biso   1.000  C
  C265     1.0000 0.58500  0.29230  0.03300  Biso   1.000  C
  C266     1.0000 0.70770  0.29270  0.03300  Biso   1.000  C
  C267     1.0000 0.70730  0.41500  0.03300  Biso   1.000  C
  C268     1.0000 0.29230  0.58500  0.96700  Biso   1.000  C
  C269     1.0000 0.25167  0.62563  0.36633  Biso   1.000  C
  C270     1.0000 0.37437  0.62603  0.36633  Biso   1.000  C
  C271     1.0000 0.37397  0.74833  0.36633  Biso   1.000  C
  C272     1.0000 0.95897  0.91833  0.30033  Biso   1.000  C
  C273     1.0000 0.91833  0.95897  0.69967  Biso   1.000  C
  C274     1.0000 0.62563  0.25167  0.63367  Biso   1.000  C
  C275     1.0000 0.29270  0.70770  0.96700  Biso   1.000  C
  C276     1.0000 0.41500  0.70730  0.96700  Biso   1.000  C
  C277     1.0000 0.04103  0.95937  0.69967  Biso   1.000  C
  C278     1.0000 0.04063  0.08167  0.69967  Biso   1.000  C
  C279     1.0000 0.62603  0.37437  0.63367  Biso   1.000  C
  C280     1.0000 0.74833  0.37397  0.63367  Biso   1.000  C
  C281     1.0000 0.95937  0.04103  0.30033  Biso   1.000  C
  C282     1.0000 0.08167  0.04063  0.30033  Biso   1.000  C
