data_image0
_cell_length_a       5.6437
_cell_length_b       12.8357
_cell_length_c       9.1507
_cell_angle_alpha    90
_cell_angle_beta     95.892
_cell_angle_gamma    90

_symmetry_space_group_name_H-M    "P 1"
_symmetry_int_tables_number       1

loop_
  _symmetry_equiv_pos_as_xyz
  'x, y, z'

loop_
  _atom_site_label
  _atom_site_occupancy
  _atom_site_fract_x
  _atom_site_fract_y
  _atom_site_fract_z
  _atom_site_thermal_displace_type
  _atom_site_B_iso_or_equiv
  _atom_site_type_symbol
  Cu1      1.0000 0.98764  0.88828  0.46064  Biso   1.000  Cu
  Cu2      1.0000 0.01236  0.38828  0.03936  Biso   1.000  Cu
  Cu3      1.0000 0.01236  0.11172  0.53936  Biso   1.000  Cu
  Cu4      1.0000 0.98764  0.61172  0.96064  Biso   1.000  Cu
  Cu5      1.0000 0.50000  0.50000  0.00000  Biso   1.000  Cu
  Cu6      1.0000 0.50000  0.00000  0.50000  Biso   1.000  Cu
  C1       1.0000 0.63330  0.78857  0.24140  Biso   1.000  C
  C2       1.0000 0.36670  0.28857  0.25860  Biso   1.000  C
  C3       1.0000 0.36670  0.21143  0.75860  Biso   1.000  C
  C4       1.0000 0.63330  0.71143  0.74140  Biso   1.000  C
  O1       1.0000 0.83650  0.80208  0.30540  Biso   1.000  O
  O2       1.0000 0.16350  0.30208  0.19460  Biso   1.000  O
  O3       1.0000 0.16350  0.19792  0.69460  Biso   1.000  O
  O4       1.0000 0.83650  0.69792  0.80540  Biso   1.000  O
  C5       1.0000 0.54000  0.70841  0.13950  Biso   1.000  C
  C6       1.0000 0.46000  0.20841  0.36050  Biso   1.000  C
  C7       1.0000 0.46000  0.29159  0.86050  Biso   1.000  C
  C8       1.0000 0.54000  0.79159  0.63950  Biso   1.000  C
  O5       1.0000 0.63800  0.62803  0.09060  Biso   1.000  O
  O6       1.0000 0.36200  0.12803  0.40940  Biso   1.000  O
  O7       1.0000 0.36200  0.37197  0.90940  Biso   1.000  O
  O8       1.0000 0.63800  0.87197  0.59060  Biso   1.000  O
  C9       1.0000 0.30610  0.75708  0.12520  Biso   1.000  C
  C10      1.0000 0.69390  0.25708  0.37480  Biso   1.000  C
  C11      1.0000 0.69390  0.24292  0.87480  Biso   1.000  C
  C12      1.0000 0.30610  0.74292  0.62520  Biso   1.000  C
  O9       1.0000 0.10840  0.74088  0.05210  Biso   1.000  O
  O10      1.0000 0.89160  0.24088  0.44790  Biso   1.000  O
  O11      1.0000 0.89160  0.25912  0.94790  Biso   1.000  O
  O12      1.0000 0.10840  0.75912  0.55210  Biso   1.000  O
  C13      1.0000 0.39490  0.83752  0.23260  Biso   1.000  C
  C14      1.0000 0.60510  0.33752  0.26740  Biso   1.000  C
  C15      1.0000 0.60510  0.16248  0.76740  Biso   1.000  C
  C16      1.0000 0.39490  0.66248  0.73260  Biso   1.000  C
  O13      1.0000 0.30480  0.91291  0.29310  Biso   1.000  O
  O14      1.0000 0.69520  0.41291  0.20690  Biso   1.000  O
  O15      1.0000 0.69520  0.08709  0.70690  Biso   1.000  O
  O16      1.0000 0.30480  0.58709  0.79310  Biso   1.000  O
  O17      1.0000 0.19410  0.51710  0.08418  Biso   1.000  O
  O18      1.0000 0.80590  0.01710  0.41582  Biso   1.000  O
  O19      1.0000 0.80590  0.48290  0.91582  Biso   1.000  O
  O20      1.0000 0.19410  0.98290  0.58418  Biso   1.000  O
  H1       1.0000 0.22300  0.53300  0.16100  Biso   1.000  H
  H2       1.0000 0.77700  0.03300  0.33900  Biso   1.000  H
  H3       1.0000 0.77700  0.46700  0.83900  Biso   1.000  H
  H4       1.0000 0.22300  0.96700  0.66100  Biso   1.000  H
  O21      1.0000 0.28650  0.56443  0.36500  Biso   1.000  O
  O22      1.0000 0.71350  0.06443  0.13500  Biso   1.000  O
  O23      1.0000 0.71350  0.43557  0.63500  Biso   1.000  O
  O24      1.0000 0.28650  0.93557  0.86500  Biso   1.000  O
  H5       1.0000 0.41200  0.57800  0.39000  Biso   1.000  H
  H6       1.0000 0.58800  0.07800  0.11000  Biso   1.000  H
  H7       1.0000 0.58800  0.42200  0.61000  Biso   1.000  H
  H8       1.0000 0.41200  0.92200  0.89000  Biso   1.000  H
  H9       1.0000 0.26000  0.52200  0.42300  Biso   1.000  H
  H10      1.0000 0.74000  0.02200  0.07700  Biso   1.000  H
  H11      1.0000 0.74000  0.47800  0.57700  Biso   1.000  H
  H12      1.0000 0.26000  0.97800  0.92300  Biso   1.000  H
  O25      1.0000 0.78250  0.91096  0.93340  Biso   1.000  O
  O26      1.0000 0.21750  0.41096  0.56660  Biso   1.000  O
  O27      1.0000 0.21750  0.08904  0.06660  Biso   1.000  O
  O28      1.0000 0.78250  0.58904  0.43340  Biso   1.000  O
  H13      1.0000 0.82900  0.93800  0.85700  Biso   1.000  H
  H14      1.0000 0.17100  0.43800  0.64300  Biso   1.000  H
  H15      1.0000 0.17100  0.06200  0.14300  Biso   1.000  H
  H16      1.0000 0.82900  0.56200  0.35700  Biso   1.000  H
  H17      1.0000 0.86400  0.87500  0.96100  Biso   1.000  H
  H18      1.0000 0.13600  0.37500  0.53900  Biso   1.000  H
  H19      1.0000 0.13600  0.12500  0.03900  Biso   1.000  H
  H20      1.0000 0.86400  0.62500  0.46100  Biso   1.000  H
