data_image0
_cell_length_a       7.6165
_cell_length_b       8.806
_cell_length_c       9.592
_cell_angle_alpha    104.933
_cell_angle_beta     106.732
_cell_angle_gamma    109.503

_symmetry_space_group_name_H-M    "P 1"
_symmetry_int_tables_number       1

loop_
  _symmetry_equiv_pos_as_xyz
  'x, y, z'

loop_
  _atom_site_label
  _atom_site_occupancy
  _atom_site_fract_x
  _atom_site_fract_y
  _atom_site_fract_z
  _atom_site_thermal_displace_type
  _atom_site_B_iso_or_equiv
  _atom_site_type_symbol
  Cu1      1.0000 0.00000  0.00000  0.00000  Biso   1.000  Cu
  S1       1.0000 0.47947  0.84297  0.69380  Biso   1.000  S
  S2       1.0000 0.52053  0.15703  0.30620  Biso   1.000  S
  O1       1.0000 0.65950  0.98330  0.82880  Biso   1.000  O
  O2       1.0000 0.34050  0.01670  0.17120  Biso   1.000  O
  O3       1.0000 0.40510  0.68500  0.72240  Biso   1.000  O
  O4       1.0000 0.59490  0.31500  0.27760  Biso   1.000  O
  O5       1.0000 0.50610  0.81370  0.54660  Biso   1.000  O
  O6       1.0000 0.49390  0.18630  0.45340  Biso   1.000  O
  O7       1.0000 0.75850  0.66890  0.48470  Biso   1.000  O
  O8       1.0000 0.24150  0.33110  0.51530  Biso   1.000  O
  N1       1.0000 0.11990  0.25330  0.03060  Biso   1.000  N
  N2       1.0000 0.88010  0.74670  0.96940  Biso   1.000  N
  N3       1.0000 0.05030  0.96810  0.79910  Biso   1.000  N
  N4       1.0000 0.94970  0.03190  0.20090  Biso   1.000  N
  C1       1.0000 0.19020  0.39610  0.16320  Biso   1.000  C
  C2       1.0000 0.80980  0.60390  0.83680  Biso   1.000  C
  H1       1.0000 0.18620  0.38050  0.25480  Biso   1.000  H
  H2       1.0000 0.81380  0.61950  0.74520  Biso   1.000  H
  C3       1.0000 0.26760  0.56400  0.16870  Biso   1.000  C
  C4       1.0000 0.73240  0.43600  0.83130  Biso   1.000  C
  H3       1.0000 0.31260  0.65960  0.26160  Biso   1.000  H
  H4       1.0000 0.68740  0.34040  0.73840  Biso   1.000  H
  C5       1.0000 0.27740  0.58830  0.03480  Biso   1.000  C
  C6       1.0000 0.72260  0.41170  0.96520  Biso   1.000  C
  H5       1.0000 0.32820  0.70040  0.03550  Biso   1.000  H
  H6       1.0000 0.67180  0.29960  0.96450  Biso   1.000  H
  C7       1.0000 0.21090  0.44430  0.89990  Biso   1.000  C
  C8       1.0000 0.78910  0.55570  0.10010  Biso   1.000  C
  H7       1.0000 0.21950  0.45830  0.80880  Biso   1.000  H
  H8       1.0000 0.78050  0.54170  0.19120  Biso   1.000  H
  C9       1.0000 0.13110  0.27830  0.90000  Biso   1.000  C
  C10      1.0000 0.86890  0.72170  0.10000  Biso   1.000  C
  C11      1.0000 0.04300  0.11570  0.75380  Biso   1.000  C
  C12      1.0000 0.95700  0.88430  0.24620  Biso   1.000  C
  H9       1.0000 0.12050  0.13500  0.69030  Biso   1.000  H
  H10      1.0000 0.87950  0.86500  0.30970  Biso   1.000  H
  H11      1.0000 0.90270  0.08740  0.69100  Biso   1.000  H
  H12      1.0000 0.09730  0.91260  0.30900  Biso   1.000  H
  C13      1.0000 0.24450  0.95290  0.81990  Biso   1.000  C
  C14      1.0000 0.75550  0.04710  0.18010  Biso   1.000  C
  H13      1.0000 0.24230  0.86020  0.85730  Biso   1.000  H
  H14      1.0000 0.75770  0.13980  0.14270  Biso   1.000  H
  H15      1.0000 0.35720  0.06140  0.90130  Biso   1.000  H
  H16      1.0000 0.64280  0.93860  0.09870  Biso   1.000  H
  C15      1.0000 0.28430  0.91490  0.67050  Biso   1.000  C
  C16      1.0000 0.71570  0.08510  0.32950  Biso   1.000  C
  H17      1.0000 0.32550  0.02000  0.64890  Biso   1.000  H
  H18      1.0000 0.67450  0.98000  0.35110  Biso   1.000  H
  H19      1.0000 0.15960  0.82530  0.58120  Biso   1.000  H
  H20      1.0000 0.84040  0.17470  0.41880  Biso   1.000  H
  H21      1.0000 0.98600  0.89000  0.73300  Biso   1.000  H
  H22      1.0000 0.01400  0.11000  0.26700  Biso   1.000  H
  H23      1.0000 0.72100  0.55980  0.44100  Biso   1.000  H
  H24      1.0000 0.27900  0.44020  0.55900  Biso   1.000  H
  H25      1.0000 0.66500  0.70100  0.48800  Biso   1.000  H
  H26      1.0000 0.33500  0.29900  0.51200  Biso   1.000  H
