data_image0
_cell_length_a       10.039
_cell_length_b       15.379
_cell_length_c       21.48
_cell_angle_alpha    90
_cell_angle_beta     90
_cell_angle_gamma    90

_symmetry_space_group_name_H-M    "P 1"
_symmetry_int_tables_number       1

loop_
  _symmetry_equiv_pos_as_xyz
  'x, y, z'

loop_
  _atom_site_label
  _atom_site_occupancy
  _atom_site_fract_x
  _atom_site_fract_y
  _atom_site_fract_z
  _atom_site_thermal_displace_type
  _atom_site_B_iso_or_equiv
  _atom_site_type_symbol
  Cu1      1.0000 0.16393  0.44236  0.12785  Biso   1.000  Cu
  Cu2      1.0000 0.33607  0.55764  0.62785  Biso   1.000  Cu
  Cu3      1.0000 0.83607  0.94236  0.37215  Biso   1.000  Cu
  Cu4      1.0000 0.66393  0.05764  0.87215  Biso   1.000  Cu
  Cu5      1.0000 0.75891  0.01131  0.22457  Biso   1.000  Cu
  Cu6      1.0000 0.74109  0.98869  0.72457  Biso   1.000  Cu
  Cu7      1.0000 0.24109  0.51131  0.27543  Biso   1.000  Cu
  Cu8      1.0000 0.25891  0.48869  0.77543  Biso   1.000  Cu
  C1       1.0000 0.20890  0.56680  0.02950  Biso   1.000  C
  C2       1.0000 0.29110  0.43320  0.52950  Biso   1.000  C
  C3       1.0000 0.79110  0.06680  0.47050  Biso   1.000  C
  C4       1.0000 0.70890  0.93320  0.97050  Biso   1.000  C
  C5       1.0000 0.25280  0.63730  0.99390  Biso   1.000  C
  C6       1.0000 0.24720  0.36270  0.49390  Biso   1.000  C
  C7       1.0000 0.74720  0.13730  0.50610  Biso   1.000  C
  C8       1.0000 0.75280  0.86270  0.00610  Biso   1.000  C
  C9       1.0000 0.35020  0.59960  0.11080  Biso   1.000  C
  C10      1.0000 0.14980  0.40040  0.61080  Biso   1.000  C
  C11      1.0000 0.64980  0.09960  0.38920  Biso   1.000  C
  C12      1.0000 0.85020  0.90040  0.88920  Biso   1.000  C
  H1       1.0000 0.38440  0.58730  0.15010  Biso   1.000  H
  H2       1.0000 0.11560  0.41270  0.65010  Biso   1.000  H
  H3       1.0000 0.61560  0.08730  0.34990  Biso   1.000  H
  H4       1.0000 0.88440  0.91270  0.84990  Biso   1.000  H
  C13      1.0000 0.10820  0.16540  0.21310  Biso   1.000  C
  C14      1.0000 0.39180  0.83460  0.71310  Biso   1.000  C
  C15      1.0000 0.89180  0.66540  0.28690  Biso   1.000  C
  C16      1.0000 0.60820  0.33460  0.78690  Biso   1.000  C
  H5       1.0000 0.02780  0.19330  0.20520  Biso   1.000  H
  H6       1.0000 0.47220  0.80670  0.70520  Biso   1.000  H
  H7       1.0000 0.97220  0.69330  0.29480  Biso   1.000  H
  H8       1.0000 0.52780  0.30670  0.79480  Biso   1.000  H
  C17      1.0000 0.10620  0.51010  0.00660  Biso   1.000  C
  C18      1.0000 0.39380  0.48990  0.50660  Biso   1.000  C
  C19      1.0000 0.89380  0.01010  0.49340  Biso   1.000  C
  C20      1.0000 0.60620  0.98990  0.99340  Biso   1.000  C
  C21      1.0000 0.23160  0.05450  0.26540  Biso   1.000  C
  C22      1.0000 0.26840  0.94550  0.76540  Biso   1.000  C
  C23      1.0000 0.76840  0.55450  0.23460  Biso   1.000  C
  C24      1.0000 0.73160  0.44550  0.73460  Biso   1.000  C
  H9       1.0000 0.23480  0.00760  0.29280  Biso   1.000  H
  H10      1.0000 0.26520  0.99240  0.79280  Biso   1.000  H
  H11      1.0000 0.76520  0.50760  0.20720  Biso   1.000  H
  H12      1.0000 0.73480  0.49240  0.70720  Biso   1.000  H
  C25      1.0000 0.34160  0.14980  0.19440  Biso   1.000  C
  C26      1.0000 0.15840  0.85020  0.69440  Biso   1.000  C
  C27      1.0000 0.65840  0.64980  0.30560  Biso   1.000  C
  C28      1.0000 0.84160  0.35020  0.80560  Biso   1.000  C
  H13      1.0000 0.41890  0.16800  0.17450  Biso   1.000  H
  H14      1.0000 0.08110  0.83200  0.67450  Biso   1.000  H
  H15      1.0000 0.58110  0.66800  0.32550  Biso   1.000  H
  H16      1.0000 0.91890  0.33200  0.82550  Biso   1.000  H
  C29      1.0000 0.34560  0.08020  0.23570  Biso   1.000  C
  C30      1.0000 0.15440  0.91980  0.73570  Biso   1.000  C
  C31      1.0000 0.65440  0.58020  0.26430  Biso   1.000  C
  C32      1.0000 0.84560  0.41980  0.76430  Biso   1.000  C
  C33      1.0000 0.47490  0.03360  0.25020  Biso   1.000  C
  C34      1.0000 0.02510  0.96640  0.75020  Biso   1.000  C
  C35      1.0000 0.52510  0.53360  0.24980  Biso   1.000  C
  C36      1.0000 0.97490  0.46640  0.74980  Biso   1.000  C
  C37      1.0000 0.95980  0.96160  0.13460  Biso   1.000  C
  C38      1.0000 0.54020  0.03840  0.63460  Biso   1.000  C
  C39      1.0000 0.04020  0.46160  0.36540  Biso   1.000  C
  C40      1.0000 0.45980  0.53840  0.86540  Biso   1.000  C
  C41      1.0000 0.22110  0.19210  0.18310  Biso   1.000  C
  C42      1.0000 0.27890  0.80790  0.68310  Biso   1.000  C
  C43      1.0000 0.77890  0.69210  0.31690  Biso   1.000  C
  C44      1.0000 0.72110  0.30790  0.81690  Biso   1.000  C
  C45      1.0000 0.74060  0.14360  0.12240  Biso   1.000  C
  C46      1.0000 0.75940  0.85640  0.62240  Biso   1.000  C
  C47      1.0000 0.25940  0.64360  0.37760  Biso   1.000  C
  C48      1.0000 0.24060  0.35640  0.87760  Biso   1.000  C
  H17      1.0000 0.67440  0.16940  0.14640  Biso   1.000  H
  H18      1.0000 0.82560  0.83060  0.64640  Biso   1.000  H
  H19      1.0000 0.32560  0.66940  0.35360  Biso   1.000  H
  H20      1.0000 0.17440  0.33060  0.85360  Biso   1.000  H
  C49      1.0000 0.04240  0.02640  0.01850  Biso   1.000  C
  C50      1.0000 0.45760  0.97360  0.51850  Biso   1.000  C
  C51      1.0000 0.95760  0.52640  0.48150  Biso   1.000  C
  C52      1.0000 0.54240  0.47360  0.98150  Biso   1.000  C
  C53      1.0000 0.09310  0.59820  0.91180  Biso   1.000  C
  C54      1.0000 0.40690  0.40180  0.41180  Biso   1.000  C
  C55      1.0000 0.90690  0.09820  0.58820  Biso   1.000  C
  C56      1.0000 0.59310  0.90180  0.08820  Biso   1.000  C
  C57      1.0000 0.10270  0.95190  0.04270  Biso   1.000  C
  C58      1.0000 0.39730  0.04810  0.54270  Biso   1.000  C
  C59      1.0000 0.89730  0.45190  0.45730  Biso   1.000  C
  C60      1.0000 0.60270  0.54810  0.95730  Biso   1.000  C
  C61      1.0000 0.22140  0.27110  0.14040  Biso   1.000  C
  C62      1.0000 0.27860  0.72890  0.64040  Biso   1.000  C
  C63      1.0000 0.77860  0.77110  0.35960  Biso   1.000  C
  C64      1.0000 0.72140  0.22890  0.85960  Biso   1.000  C
  C65      1.0000 0.98930  0.07030  0.29160  Biso   1.000  C
  C66      1.0000 0.51070  0.92970  0.79160  Biso   1.000  C
  C67      1.0000 0.01070  0.57030  0.20840  Biso   1.000  C
  C68      1.0000 0.48930  0.42970  0.70840  Biso   1.000  C
  C69      1.0000 0.87150  0.14510  0.02970  Biso   1.000  C
  C70      1.0000 0.62850  0.85490  0.52970  Biso   1.000  C
  C71      1.0000 0.12850  0.64510  0.47030  Biso   1.000  C
  C72      1.0000 0.37150  0.35490  0.97030  Biso   1.000  C
  H21      1.0000 0.89380  0.16890  0.99130  Biso   1.000  H
  H22      1.0000 0.60620  0.83110  0.49130  Biso   1.000  H
  H23      1.0000 0.10620  0.66890  0.50870  Biso   1.000  H
  H24      1.0000 0.39380  0.33110  0.00870  Biso   1.000  H
  C73      1.0000 0.06360  0.91960  0.10410  Biso   1.000  C
  C74      1.0000 0.43640  0.08040  0.60410  Biso   1.000  C
  C75      1.0000 0.93640  0.41960  0.39590  Biso   1.000  C
  C76      1.0000 0.56360  0.58040  0.89590  Biso   1.000  C
  C77      1.0000 0.77320  0.18200  0.06580  Biso   1.000  C
  C78      1.0000 0.72680  0.81800  0.56580  Biso   1.000  C
  C79      1.0000 0.22680  0.68200  0.43420  Biso   1.000  C
  C80      1.0000 0.27320  0.31800  0.93420  Biso   1.000  C
  H25      1.0000 0.72930  0.23190  0.05250  Biso   1.000  H
  H26      1.0000 0.77070  0.76810  0.55250  Biso   1.000  H
  H27      1.0000 0.27070  0.73190  0.44750  Biso   1.000  H
  H28      1.0000 0.22930  0.26810  0.94750  Biso   1.000  H
  C81      1.0000 0.08350  0.67480  0.82110  Biso   1.000  C
  C82      1.0000 0.41650  0.32520  0.32110  Biso   1.000  C
  C83      1.0000 0.91650  0.17480  0.67890  Biso   1.000  C
  C84      1.0000 0.58350  0.82520  0.17890  Biso   1.000  C
  H29      1.0000 0.04800  0.68480  0.78180  Biso   1.000  H
  H30      1.0000 0.45200  0.31520  0.28180  Biso   1.000  H
  H31      1.0000 0.95200  0.18480  0.71820  Biso   1.000  H
  H32      1.0000 0.54800  0.81520  0.21820  Biso   1.000  H
  C85      1.0000 0.93750  0.07090  0.05210  Biso   1.000  C
  C86      1.0000 0.56250  0.92910  0.55210  Biso   1.000  C
  C87      1.0000 0.06250  0.57090  0.44790  Biso   1.000  C
  C88      1.0000 0.43750  0.42910  0.94790  Biso   1.000  C
  C89      1.0000 0.18750  0.72760  0.84240  Biso   1.000  C
  C90      1.0000 0.31250  0.27240  0.34240  Biso   1.000  C
  C91      1.0000 0.81250  0.22760  0.65760  Biso   1.000  C
  C92      1.0000 0.68750  0.77240  0.15760  Biso   1.000  C
  H33      1.0000 0.21880  0.77160  0.81660  Biso   1.000  H
  H34      1.0000 0.28120  0.22840  0.31660  Biso   1.000  H
  H35      1.0000 0.78120  0.27160  0.68340  Biso   1.000  H
  H36      1.0000 0.71880  0.72840  0.18340  Biso   1.000  H
  C93      1.0000 0.11220  0.09660  0.25560  Biso   1.000  C
  C94      1.0000 0.38780  0.90340  0.75560  Biso   1.000  C
  C95      1.0000 0.88780  0.59660  0.24440  Biso   1.000  C
  C96      1.0000 0.61220  0.40340  0.74440  Biso   1.000  C
  C97      1.0000 0.97070  0.86710  0.21800  Biso   1.000  C
  C98      1.0000 0.52930  0.13290  0.71800  Biso   1.000  C
  C99      1.0000 0.02930  0.36710  0.28200  Biso   1.000  C
  C100     1.0000 0.47070  0.63290  0.78200  Biso   1.000  C
  H37      1.0000 0.93940  0.84850  0.25650  Biso   1.000  H
  H38      1.0000 0.56060  0.15150  0.75650  Biso   1.000  H
  H39      1.0000 0.06060  0.34850  0.24350  Biso   1.000  H
  H40      1.0000 0.43940  0.65150  0.74350  Biso   1.000  H
  C101     1.0000 0.35200  0.68950  0.01990  Biso   1.000  C
  C102     1.0000 0.14800  0.31050  0.51990  Biso   1.000  C
  C103     1.0000 0.64800  0.18950  0.48010  Biso   1.000  C
  C104     1.0000 0.85200  0.81050  0.98010  Biso   1.000  C
  H41      1.0000 0.38630  0.73610  0.99740  Biso   1.000  H
  H42      1.0000 0.11370  0.26390  0.49740  Biso   1.000  H
  H43      1.0000 0.61370  0.23610  0.50260  Biso   1.000  H
  H44      1.0000 0.88630  0.76390  0.00260  Biso   1.000  H
  C105     1.0000 0.98050  0.38760  0.02490  Biso   1.000  C
  C106     1.0000 0.51950  0.61240  0.52490  Biso   1.000  C
  C107     1.0000 0.01950  0.88760  0.47510  Biso   1.000  C
  C108     1.0000 0.48050  0.11240  0.97510  Biso   1.000  C
  H45      1.0000 0.95690  0.34130  0.05040  Biso   1.000  H
  H46      1.0000 0.54310  0.65870  0.55040  Biso   1.000  H
  H47      1.0000 0.04310  0.84130  0.44960  Biso   1.000  H
  H48      1.0000 0.45690  0.15870  0.94960  Biso   1.000  H
  C109     1.0000 0.12030  0.84780  0.13220  Biso   1.000  C
  C110     1.0000 0.37970  0.15220  0.63220  Biso   1.000  C
  C111     1.0000 0.87970  0.34780  0.36780  Biso   1.000  C
  C112     1.0000 0.62030  0.65220  0.86780  Biso   1.000  C
  H49      1.0000 0.18740  0.81680  0.11220  Biso   1.000  H
  H50      1.0000 0.31260  0.18320  0.61220  Biso   1.000  H
  H51      1.0000 0.81260  0.31680  0.38780  Biso   1.000  H
  H52      1.0000 0.68740  0.68320  0.88780  Biso   1.000  H
  C113     1.0000 0.89690  0.03820  0.10940  Biso   1.000  C
  C114     1.0000 0.60310  0.96180  0.60940  Biso   1.000  C
  C115     1.0000 0.10310  0.53820  0.39060  Biso   1.000  C
  C116     1.0000 0.39690  0.46180  0.89060  Biso   1.000  C
  C117     1.0000 0.19420  0.65130  0.93300  Biso   1.000  C
  C118     1.0000 0.30580  0.34870  0.43300  Biso   1.000  C
  C119     1.0000 0.80580  0.15130  0.56700  Biso   1.000  C
  C120     1.0000 0.69420  0.84870  0.06700  Biso   1.000  C
  C121     1.0000 0.23110  0.94220  0.95660  Biso   1.000  C
  C122     1.0000 0.26890  0.05780  0.45660  Biso   1.000  C
  C123     1.0000 0.76890  0.44220  0.54340  Biso   1.000  C
  C124     1.0000 0.73110  0.55780  0.04340  Biso   1.000  C
  H53      1.0000 0.29420  0.91350  0.93250  Biso   1.000  H
  H54      1.0000 0.20580  0.08650  0.43250  Biso   1.000  H
  H55      1.0000 0.70580  0.41350  0.56750  Biso   1.000  H
  H56      1.0000 0.79420  0.58650  0.06750  Biso   1.000  H
  C125     1.0000 0.17580  0.01800  0.93360  Biso   1.000  C
  C126     1.0000 0.32420  0.98200  0.43360  Biso   1.000  C
  C127     1.0000 0.82420  0.51800  0.56640  Biso   1.000  C
  C128     1.0000 0.67580  0.48200  0.06640  Biso   1.000  C
  H57      1.0000 0.20680  0.04000  0.89600  Biso   1.000  H
  H58      1.0000 0.29320  0.96000  0.39600  Biso   1.000  H
  H59      1.0000 0.79320  0.54000  0.60400  Biso   1.000  H
  H60      1.0000 0.70680  0.46000  0.10400  Biso   1.000  H
  C129     1.0000 0.91740  0.39660  0.96690  Biso   1.000  C
  C130     1.0000 0.58260  0.60340  0.46690  Biso   1.000  C
  C131     1.0000 0.08260  0.89660  0.53310  Biso   1.000  C
  C132     1.0000 0.41740  0.10340  0.03310  Biso   1.000  C
  H61      1.0000 0.85460  0.35610  0.95380  Biso   1.000  H
  H62      1.0000 0.64540  0.64390  0.45380  Biso   1.000  H
  H63      1.0000 0.14540  0.85610  0.54620  Biso   1.000  H
  H64      1.0000 0.35460  0.14390  0.04620  Biso   1.000  H
  C133     1.0000 0.04730  0.52460  0.94910  Biso   1.000  C
  C134     1.0000 0.45270  0.47540  0.44910  Biso   1.000  C
  C135     1.0000 0.95270  0.02460  0.55090  Biso   1.000  C
  C136     1.0000 0.54730  0.97540  0.05090  Biso   1.000  C
  C137     1.0000 0.94980  0.46610  0.92980  Biso   1.000  C
  C138     1.0000 0.55020  0.53390  0.42980  Biso   1.000  C
  C139     1.0000 0.05020  0.96610  0.57020  Biso   1.000  C
  C140     1.0000 0.44980  0.03390  0.07020  Biso   1.000  C
  H65      1.0000 0.90670  0.47410  0.89190  Biso   1.000  H
  H66      1.0000 0.59330  0.52590  0.39190  Biso   1.000  H
  H67      1.0000 0.09330  0.97410  0.60810  Biso   1.000  H
  H68      1.0000 0.40670  0.02590  0.10810  Biso   1.000  H
  C141     1.0000 0.39850  0.67210  0.07830  Biso   1.000  C
  C142     1.0000 0.10150  0.32790  0.57830  Biso   1.000  C
  C143     1.0000 0.60150  0.17210  0.42170  Biso   1.000  C
  C144     1.0000 0.89850  0.82790  0.92170  Biso   1.000  C
  H69      1.0000 0.46200  0.70820  0.09640  Biso   1.000  H
  H70      1.0000 0.03800  0.29180  0.59640  Biso   1.000  H
  H71      1.0000 0.53800  0.20820  0.40360  Biso   1.000  H
  H72      1.0000 0.96200  0.79180  0.90360  Biso   1.000  H
  C145     1.0000 0.07520  0.82250  0.19080  Biso   1.000  C
  C146     1.0000 0.42480  0.17750  0.69080  Biso   1.000  C
  C147     1.0000 0.92480  0.32250  0.30920  Biso   1.000  C
  C148     1.0000 0.57520  0.67750  0.80920  Biso   1.000  C
  H73      1.0000 0.11510  0.77620  0.21150  Biso   1.000  H
  H74      1.0000 0.38490  0.22380  0.71150  Biso   1.000  H
  H75      1.0000 0.88490  0.27620  0.28850  Biso   1.000  H
  H76      1.0000 0.61510  0.72380  0.78850  Biso   1.000  H
  N1       1.0000 0.07260  0.44300  0.04440  Biso   1.000  N
  N2       1.0000 0.42740  0.55700  0.54440  Biso   1.000  N
  N3       1.0000 0.92740  0.94300  0.45560  Biso   1.000  N
  N4       1.0000 0.57260  0.05700  0.95560  Biso   1.000  N
  N5       1.0000 0.91330  0.93500  0.19140  Biso   1.000  N
  N6       1.0000 0.58670  0.06500  0.69140  Biso   1.000  N
  N7       1.0000 0.08670  0.43500  0.30860  Biso   1.000  N
  N8       1.0000 0.41330  0.56500  0.80860  Biso   1.000  N
  N9       1.0000 0.79810  0.07320  0.14360  Biso   1.000  N
  N10      1.0000 0.70190  0.92680  0.64360  Biso   1.000  N
  N11      1.0000 0.20190  0.57320  0.35640  Biso   1.000  N
  N12      1.0000 0.29810  0.42680  0.85640  Biso   1.000  N
  N13      1.0000 0.25710  0.54810  0.08710  Biso   1.000  N
  N14      1.0000 0.24290  0.45190  0.58710  Biso   1.000  N
  N15      1.0000 0.74290  0.04810  0.41290  Biso   1.000  N
  N16      1.0000 0.75710  0.95190  0.91290  Biso   1.000  N
  N17      1.0000 0.08220  0.05940  0.96270  Biso   1.000  N
  N18      1.0000 0.41780  0.94060  0.46270  Biso   1.000  N
  N19      1.0000 0.91780  0.55940  0.53730  Biso   1.000  N
  N20      1.0000 0.58220  0.44060  0.03730  Biso   1.000  N
  N21      1.0000 0.24290  0.71750  0.89770  Biso   1.000  N
  N22      1.0000 0.25710  0.28250  0.39770  Biso   1.000  N
  N23      1.0000 0.75710  0.21750  0.60230  Biso   1.000  N
  N24      1.0000 0.74290  0.78250  0.10230  Biso   1.000  N
  N25      1.0000 0.03420  0.61080  0.85550  Biso   1.000  N
  N26      1.0000 0.46580  0.38920  0.35550  Biso   1.000  N
  N27      1.0000 0.96580  0.11080  0.64450  Biso   1.000  N
  N28      1.0000 0.53420  0.88920  0.14450  Biso   1.000  N
  N29      1.0000 0.19910  0.90830  0.01120  Biso   1.000  N
  N30      1.0000 0.30090  0.09170  0.51120  Biso   1.000  N
  N31      1.0000 0.80090  0.40830  0.48880  Biso   1.000  N
  N32      1.0000 0.69910  0.59170  0.98880  Biso   1.000  N
  O1       1.0000 0.11710  0.31800  0.14187  Biso   1.000  O
  O2       1.0000 0.38290  0.68200  0.64187  Biso   1.000  O
  O3       1.0000 0.88290  0.81800  0.35813  Biso   1.000  O
  O4       1.0000 0.61710  0.18200  0.85813  Biso   1.000  O
  O5       1.0000 0.88200  0.10630  0.27720  Biso   1.000  O
  O6       1.0000 0.61800  0.89370  0.77720  Biso   1.000  O
  O7       1.0000 0.11800  0.60630  0.22280  Biso   1.000  O
  O8       1.0000 0.38200  0.39370  0.72280  Biso   1.000  O
  O9       1.0000 0.57970  0.06320  0.22362  Biso   1.000  O
  O10      1.0000 0.92030  0.93680  0.72362  Biso   1.000  O
  O11      1.0000 0.42030  0.56320  0.27638  Biso   1.000  O
  O12      1.0000 0.07970  0.43680  0.77638  Biso   1.000  O
  O13      1.0000 0.31980  0.28720  0.10900  Biso   1.000  O
  O14      1.0000 0.18020  0.71280  0.60900  Biso   1.000  O
  O15      1.0000 0.68020  0.78720  0.39100  Biso   1.000  O
  O16      1.0000 0.81980  0.21280  0.89100  Biso   1.000  O
  O17      1.0000 0.00360  0.01300  0.33268  Biso   1.000  O
  O18      1.0000 0.49640  0.98700  0.83268  Biso   1.000  O
  O19      1.0000 0.99640  0.51300  0.16732  Biso   1.000  O
  O20      1.0000 0.50360  0.48700  0.66732  Biso   1.000  O
  O21      1.0000 0.47160  0.97290  0.28790  Biso   1.000  O
  O22      1.0000 0.02840  0.02710  0.78790  Biso   1.000  O
  O23      1.0000 0.52840  0.47290  0.21210  Biso   1.000  O
  O24      1.0000 0.97160  0.52710  0.71210  Biso   1.000  O
  O25      1.0000 0.58160  0.30930  0.16370  Biso   1.000  O
  O26      1.0000 0.91840  0.69070  0.66370  Biso   1.000  O
  O27      1.0000 0.41840  0.80930  0.33630  Biso   1.000  O
  O28      1.0000 0.08160  0.19070  0.83630  Biso   1.000  O
  H77      1.0000 0.58000  0.36800  0.17800  Biso   1.000  H
  H78      1.0000 0.92000  0.63200  0.67800  Biso   1.000  H
  H79      1.0000 0.42000  0.86800  0.32200  Biso   1.000  H
  H80      1.0000 0.08000  0.13200  0.82200  Biso   1.000  H
  O29      1.0000 0.26510  0.44100  0.20366  Biso   1.000  O
  O30      1.0000 0.23490  0.55900  0.70366  Biso   1.000  O
  O31      1.0000 0.73490  0.94100  0.29634  Biso   1.000  O
  O32      1.0000 0.76510  0.05900  0.79634  Biso   1.000  O
  H81      1.0000 0.50900  0.31400  0.14400  Biso   1.000  H
  H82      1.0000 0.99100  0.68600  0.64400  Biso   1.000  H
  H83      1.0000 0.49100  0.81400  0.35600  Biso   1.000  H
  H84      1.0000 0.00900  0.18600  0.85600  Biso   1.000  H
