data_image0
_cell_length_a       10.344
_cell_length_b       11.236
_cell_length_c       11.627
_cell_angle_alpha    79.103
_cell_angle_beta     85.05
_cell_angle_gamma    83.28

_symmetry_space_group_name_H-M    "P 1"
_symmetry_int_tables_number       1

loop_
  _symmetry_equiv_pos_as_xyz
  'x, y, z'

loop_
  _atom_site_label
  _atom_site_occupancy
  _atom_site_fract_x
  _atom_site_fract_y
  _atom_site_fract_z
  _atom_site_thermal_displace_type
  _atom_site_B_iso_or_equiv
  _atom_site_type_symbol
  Cu1      1.0000 0.00000  0.50000  0.50000  Biso   1.000  Cu
  Cu2      1.0000 0.21675  0.29393  0.70816  Biso   1.000  Cu
  Cu3      1.0000 0.78325  0.70607  0.29184  Biso   1.000  Cu
  O1       1.0000 0.78610  0.73880  0.99670  Biso   1.000  O
  O2       1.0000 0.21390  0.26120  0.00330  Biso   1.000  O
  O3       1.0000 0.44390  0.17960  0.94880  Biso   1.000  O
  O4       1.0000 0.55610  0.82040  0.05120  Biso   1.000  O
  O5       1.0000 0.87750  0.39590  0.58730  Biso   1.000  O
  O6       1.0000 0.12250  0.60410  0.41270  Biso   1.000  O
  O7       1.0000 0.04640  0.25430  0.61360  Biso   1.000  O
  O8       1.0000 0.95360  0.74570  0.38640  Biso   1.000  O
  O9       1.0000 0.99550  0.58260  0.63950  Biso   1.000  O
  O10      1.0000 0.00450  0.41740  0.36050  Biso   1.000  O
  O11      1.0000 0.90340  0.70900  0.15410  Biso   1.000  O
  O12      1.0000 0.09660  0.29100  0.84590  Biso   1.000  O
  O13      1.0000 0.18400  0.46930  0.66090  Biso   1.000  O
  O14      1.0000 0.81600  0.53070  0.33910  Biso   1.000  O
  O15      1.0000 0.45590  0.33900  0.80400  Biso   1.000  O
  O16      1.0000 0.54410  0.66100  0.19600  Biso   1.000  O
  N1       1.0000 0.75920  0.05400  0.48870  Biso   1.000  N
  N2       1.0000 0.24080  0.94600  0.51130  Biso   1.000  N
  N3       1.0000 0.67390  0.85910  0.65780  Biso   1.000  N
  N4       1.0000 0.32610  0.14090  0.34220  Biso   1.000  N
  N5       1.0000 0.28760  0.11770  0.74490  Biso   1.000  N
  N6       1.0000 0.71240  0.88230  0.25510  Biso   1.000  N
  N7       1.0000 0.35890  0.29430  0.57860  Biso   1.000  N
  N8       1.0000 0.64110  0.70570  0.42140  Biso   1.000  N
  C1       1.0000 0.30830  0.91330  0.84360  Biso   1.000  C
  C2       1.0000 0.69170  0.08670  0.15640  Biso   1.000  C
  C3       1.0000 0.82820  0.94930  0.51340  Biso   1.000  C
  C4       1.0000 0.17180  0.05070  0.48660  Biso   1.000  C
  C5       1.0000 0.23800  0.59350  0.96810  Biso   1.000  C
  C6       1.0000 0.76200  0.40650  0.03190  Biso   1.000  C
  C7       1.0000 0.78390  0.85140  0.59780  Biso   1.000  C
  C8       1.0000 0.21610  0.14860  0.40220  Biso   1.000  C
  C9       1.0000 0.42390  0.89100  0.78500  Biso   1.000  C
  C10      1.0000 0.57610  0.10900  0.21500  Biso   1.000  C
  C11      1.0000 0.38870  0.38560  0.49240  Biso   1.000  C
  C12      1.0000 0.61130  0.61440  0.50760  Biso   1.000  C
  C13      1.0000 0.58940  0.27640  0.43870  Biso   1.000  C
  C14      1.0000 0.41060  0.72360  0.56130  Biso   1.000  C
  C15      1.0000 0.50270  0.37790  0.42030  Biso   1.000  C
  C16      1.0000 0.49730  0.62210  0.57970  Biso   1.000  C
  C17      1.0000 0.56000  0.17750  0.52660  Biso   1.000  C
  C18      1.0000 0.44000  0.82250  0.47340  Biso   1.000  C
  C19      1.0000 0.88380  0.09170  0.75830  Biso   1.000  C
  C20      1.0000 0.11620  0.90830  0.24170  Biso   1.000  C
  C21      1.0000 0.59980  0.96790  0.63520  Biso   1.000  C
  C22      1.0000 0.40020  0.03210  0.36480  Biso   1.000  C
  C23      1.0000 0.80320  0.02170  0.83730  Biso   1.000  C
  C24      1.0000 0.19680  0.97830  0.16270  Biso   1.000  C
  C25      1.0000 0.40170  0.09420  0.68290  Biso   1.000  C
  C26      1.0000 0.59830  0.90580  0.31710  Biso   1.000  C
  C27      1.0000 0.68150  0.07030  0.87190  Biso   1.000  C
  C28      1.0000 0.31850  0.92970  0.12810  Biso   1.000  C
  C29      1.0000 0.63700  0.18950  0.82580  Biso   1.000  C
  C30      1.0000 0.36300  0.81050  0.17420  Biso   1.000  C
  C31      1.0000 0.50420  0.24560  0.85930  Biso   1.000  C
  C32      1.0000 0.49580  0.75440  0.14070  Biso   1.000  C
  C33      1.0000 0.47460  0.98120  0.70130  Biso   1.000  C
  C34      1.0000 0.52540  0.01880  0.29870  Biso   1.000  C
  C35      1.0000 0.64130  0.06280  0.55120  Biso   1.000  C
  C36      1.0000 0.35870  0.93720  0.44880  Biso   1.000  C
  C37      1.0000 0.71570  0.25930  0.74640  Biso   1.000  C
  C38      1.0000 0.28430  0.74070  0.25360  Biso   1.000  C
  C39      1.0000 0.22520  0.56360  0.85990  Biso   1.000  C
  C40      1.0000 0.77480  0.43640  0.14010  Biso   1.000  C
  C41      1.0000 0.10670  0.58560  0.80950  Biso   1.000  C
  C42      1.0000 0.89330  0.41440  0.19050  Biso   1.000  C
  C43      1.0000 0.93030  0.29180  0.63170  Biso   1.000  C
  C44      1.0000 0.06970  0.70820  0.36830  Biso   1.000  C
  C45      1.0000 0.99790  0.63710  0.86800  Biso   1.000  C
  C46      1.0000 0.00210  0.36290  0.13200  Biso   1.000  C
  C47      1.0000 0.12770  0.64200  0.02800  Biso   1.000  C
  C48      1.0000 0.87230  0.35800  0.97200  Biso   1.000  C
  C49      1.0000 0.88780  0.70770  0.04730  Biso   1.000  C
  C50      1.0000 0.11220  0.29230  0.95270  Biso   1.000  C
  C51      1.0000 0.44190  0.19110  0.59310  Biso   1.000  C
  C52      1.0000 0.55810  0.80890  0.40690  Biso   1.000  C
  C53      1.0000 0.84060  0.21130  0.71260  Biso   1.000  C
  C54      1.0000 0.15940  0.78870  0.28740  Biso   1.000  C
  C55      1.0000 0.00840  0.66360  0.97850  Biso   1.000  C
  C56      1.0000 0.99160  0.33640  0.02150  Biso   1.000  C
  C57      1.0000 0.09310  0.54270  0.69590  Biso   1.000  C
  C58      1.0000 0.90690  0.45730  0.30410  Biso   1.000  C
  C59      1.0000 0.24260  0.02890  0.82290  Biso   1.000  C
  C60      1.0000 0.75740  0.97110  0.17710  Biso   1.000  C
  H1       1.0000 0.63500  0.02600  0.90900  Biso   1.000  H
  H2       1.0000 0.36500  0.97400  0.09100  Biso   1.000  H
  H3       1.0000 0.91900  0.65700  0.83900  Biso   1.000  H
  H4       1.0000 0.08100  0.34300  0.16100  Biso   1.000  H
  H5       1.0000 0.16800  0.04300  0.87000  Biso   1.000  H
  H6       1.0000 0.83200  0.95700  0.13000  Biso   1.000  H
  H7       1.0000 0.30600  0.53000  0.82700  Biso   1.000  H
  H8       1.0000 0.69400  0.47000  0.17300  Biso   1.000  H
  H9       1.0000 0.96600  0.06100  0.73500  Biso   1.000  H
  H10      1.0000 0.03400  0.93900  0.26500  Biso   1.000  H
  H11      1.0000 0.31100  0.59800  0.98400  Biso   1.000  H
  H12      1.0000 0.68900  0.40200  0.01600  Biso   1.000  H
  H13      1.0000 0.82800  0.95900  0.85500  Biso   1.000  H
  H14      1.0000 0.17200  0.04100  0.14500  Biso   1.000  H
  H15      1.0000 0.13100  0.67000  0.09800  Biso   1.000  H
  H16      1.0000 0.86900  0.33000  0.90200  Biso   1.000  H
  H17      1.0000 0.67800  0.33000  0.71600  Biso   1.000  H
  H18      1.0000 0.32200  0.67000  0.28400  Biso   1.000  H
  H19      1.0000 0.27500  0.85900  0.89400  Biso   1.000  H
  H20      1.0000 0.72500  0.14100  0.10600  Biso   1.000  H
  H21      1.0000 0.51700  0.45300  0.34100  Biso   1.000  H
  H22      1.0000 0.48300  0.54700  0.65900  Biso   1.000  H
  H23      1.0000 0.67800  0.26500  0.38800  Biso   1.000  H
  H24      1.0000 0.32200  0.73500  0.61200  Biso   1.000  H
  H25      1.0000 0.90800  0.93300  0.46500  Biso   1.000  H
  H26      1.0000 0.09200  0.06700  0.53500  Biso   1.000  H
  H27      1.0000 0.32900  0.43800  0.47500  Biso   1.000  H
  H28      1.0000 0.67100  0.56200  0.52500  Biso   1.000  H
  H29      1.0000 0.82100  0.81200  0.60800  Biso   1.000  H
  H30      1.0000 0.17900  0.18800  0.39200  Biso   1.000  H
  H31      1.0000 0.45600  0.85400  0.78400  Biso   1.000  H
  H32      1.0000 0.54400  0.14600  0.21600  Biso   1.000  H
