data_image0
_cell_length_a       7.3246
_cell_length_b       9.963
_cell_length_c       17.2673
_cell_angle_alpha    90.085
_cell_angle_beta     101.21
_cell_angle_gamma    110.68

_symmetry_space_group_name_H-M    "P 1"
_symmetry_int_tables_number       1

loop_
  _symmetry_equiv_pos_as_xyz
  'x, y, z'

loop_
  _atom_site_label
  _atom_site_occupancy
  _atom_site_fract_x
  _atom_site_fract_y
  _atom_site_fract_z
  _atom_site_thermal_displace_type
  _atom_site_B_iso_or_equiv
  _atom_site_type_symbol
  Cu1      1.0000 0.76017  0.07031  0.04673  Biso   1.000  Cu
  Cu2      1.0000 0.23983  0.92969  0.95327  Biso   1.000  Cu
  Cu3      1.0000 0.54905  0.84254  0.48905  Biso   1.000  Cu
  Cu4      1.0000 0.45095  0.15746  0.51095  Biso   1.000  Cu
  S1       1.0000 0.57493  0.84492  0.98702  Biso   1.000  S
  S2       1.0000 0.42507  0.15508  0.01298  Biso   1.000  S
  S3       1.0000 0.76442  0.05114  0.55852  Biso   1.000  S
  S4       1.0000 0.23558  0.94886  0.44148  Biso   1.000  S
  N1       1.0000 0.96180  0.27380  0.07322  Biso   1.000  N
  N2       1.0000 0.03820  0.72620  0.92678  Biso   1.000  N
  N3       1.0000 0.85500  0.10166  0.94705  Biso   1.000  N
  N4       1.0000 0.14500  0.89834  0.05295  Biso   1.000  N
  N5       1.0000 0.78580  0.00340  0.88299  Biso   1.000  N
  N6       1.0000 0.21420  0.99660  0.11701  Biso   1.000  N
  N7       1.0000 0.57130  0.77920  0.83785  Biso   1.000  N
  N8       1.0000 0.42870  0.22080  0.16215  Biso   1.000  N
  H1       1.0000 0.60750  0.79350  0.79320  Biso   1.000  H
  H2       1.0000 0.39250  0.20650  0.20680  Biso   1.000  H
  H3       1.0000 0.48310  0.69840  0.84440  Biso   1.000  H
  H4       1.0000 0.51690  0.30160  0.15560  Biso   1.000  H
  N9       1.0000 0.36350  0.63510  0.45797  Biso   1.000  N
  N10      1.0000 0.63650  0.36490  0.54203  Biso   1.000  N
  N11      1.0000 0.49920  0.78400  0.59368  Biso   1.000  N
  N12      1.0000 0.50080  0.21600  0.40632  Biso   1.000  N
  N13      1.0000 0.58670  0.86850  0.66235  Biso   1.000  N
  N14      1.0000 0.41330  0.13150  0.33765  Biso   1.000  N
  N15      1.0000 0.80600  0.08970  0.71341  Biso   1.000  N
  N16      1.0000 0.19400  0.91030  0.28659  Biso   1.000  N
  H5       1.0000 0.78350  0.06650  0.75950  Biso   1.000  H
  H6       1.0000 0.21650  0.93350  0.24050  Biso   1.000  H
  H7       1.0000 0.88890  0.17340  0.70780  Biso   1.000  H
  H8       1.0000 0.11110  0.82660  0.29220  Biso   1.000  H
  N17      1.0000 0.74270  0.03480  0.15556  Biso   1.000  N
  N18      1.0000 0.25730  0.96520  0.84444  Biso   1.000  N
  N19      1.0000 0.81480  0.04320  0.29936  Biso   1.000  N
  N20      1.0000 0.18520  0.95680  0.70064  Biso   1.000  N
  N21      1.0000 0.64970  0.88530  0.39243  Biso   1.000  N
  N22      1.0000 0.35030  0.11470  0.60757  Biso   1.000  N
  C1       1.0000 0.00330  0.36140  0.13801  Biso   1.000  C
  C2       1.0000 0.99670  0.63860  0.86199  Biso   1.000  C
  H9       1.0000 0.93150  0.33030  0.17760  Biso   1.000  H
  H10      1.0000 0.06850  0.66970  0.82240  Biso   1.000  H
  C3       1.0000 0.15000  0.49730  0.14802  Biso   1.000  C
  C4       1.0000 0.85000  0.50270  0.85198  Biso   1.000  C
  H11      1.0000 0.17480  0.55680  0.19340  Biso   1.000  H
  H12      1.0000 0.82520  0.44320  0.80660  Biso   1.000  H
  C5       1.0000 0.25790  0.54300  0.09067  Biso   1.000  C
  C6       1.0000 0.74210  0.45700  0.90933  Biso   1.000  C
  H13      1.0000 0.35880  0.63320  0.09710  Biso   1.000  H
  H14      1.0000 0.64120  0.36680  0.90290  Biso   1.000  H
  C7       1.0000 0.21600  0.45420  0.02294  Biso   1.000  C
  C8       1.0000 0.78400  0.54580  0.97706  Biso   1.000  C
  H15      1.0000 0.28770  0.48340  0.98320  Biso   1.000  H
  H16      1.0000 0.71230  0.51660  0.01680  Biso   1.000  H
  C9       1.0000 0.06510  0.32110  0.01578  Biso   1.000  C
  C10      1.0000 0.93490  0.67890  0.98422  Biso   1.000  C
  C11      1.0000 0.00100  0.22050  0.94562  Biso   1.000  C
  C12      1.0000 0.99900  0.77950  0.05438  Biso   1.000  C
  H17      1.0000 0.06200  0.24110  0.90240  Biso   1.000  H
  H18      1.0000 0.93800  0.75890  0.09760  Biso   1.000  H
  C13      1.0000 0.65130  0.88180  0.89666  Biso   1.000  C
  C14      1.0000 0.34870  0.11820  0.10334  Biso   1.000  C
  C15      1.0000 0.30560  0.56130  0.38716  Biso   1.000  C
  C16      1.0000 0.69440  0.43870  0.61284  Biso   1.000  C
  H19      1.0000 0.34770  0.60830  0.34370  Biso   1.000  H
  H20      1.0000 0.65230  0.39170  0.65630  Biso   1.000  H
  C17      1.0000 0.18540  0.41790  0.37660  Biso   1.000  C
  C18      1.0000 0.81460  0.58210  0.62340  Biso   1.000  C
  H21      1.0000 0.14750  0.36890  0.32680  Biso   1.000  H
  H22      1.0000 0.85250  0.63110  0.67320  Biso   1.000  H
  C19      1.0000 0.12240  0.34810  0.44038  Biso   1.000  C
  C20      1.0000 0.87760  0.65190  0.55962  Biso   1.000  C
  H23      1.0000 0.04220  0.25110  0.43430  Biso   1.000  H
  H24      1.0000 0.95780  0.74890  0.56570  Biso   1.000  H
  C21      1.0000 0.17900  0.42300  0.51356  Biso   1.000  C
  C22      1.0000 0.82100  0.57700  0.48644  Biso   1.000  C
  H25      1.0000 0.13650  0.37780  0.55740  Biso   1.000  H
  H26      1.0000 0.86350  0.62220  0.44260  Biso   1.000  H
  C23      1.0000 0.30030  0.56680  0.52047  Biso   1.000  C
  C24      1.0000 0.69970  0.43320  0.47953  Biso   1.000  C
  C25      1.0000 0.37430  0.65530  0.59478  Biso   1.000  C
  C26      1.0000 0.62570  0.34470  0.40522  Biso   1.000  C
  H27      1.0000 0.33350  0.62080  0.64100  Biso   1.000  H
  H28      1.0000 0.66650  0.37920  0.35900  Biso   1.000  H
  C27      1.0000 0.71250  0.99570  0.65059  Biso   1.000  C
  C28      1.0000 0.28750  0.00430  0.34941  Biso   1.000  C
  C29      1.0000 0.76670  0.03050  0.22302  Biso   1.000  C
  C30      1.0000 0.23330  0.96950  0.77698  Biso   1.000  C
  C31      1.0000 0.71920  0.95390  0.34538  Biso   1.000  C
  C32      1.0000 0.28080  0.04610  0.65462  Biso   1.000  C
  Cl1      1.0000 0.27846  0.40354  0.76829  Biso   1.000  Cl
  Cl2      1.0000 0.72154  0.59646  0.23171  Biso   1.000  Cl
  O1       1.0000 0.45050  0.47740  0.73782  Biso   1.000  O
  O2       1.0000 0.54950  0.52260  0.26218  Biso   1.000  O
  O3       1.0000 0.28860  0.48180  0.83970  Biso   1.000  O
  O4       1.0000 0.71140  0.51820  0.16030  Biso   1.000  O
  O5       1.0000 0.10330  0.39360  0.71157  Biso   1.000  O
  O6       1.0000 0.89670  0.60640  0.28843  Biso   1.000  O
  O7       1.0000 0.26970  0.26440  0.78822  Biso   1.000  O
  O8       1.0000 0.73030  0.73560  0.21178  Biso   1.000  O
