data_image0
_cell_length_a       15.661
_cell_length_b       7.2182
_cell_length_c       21.894
_cell_angle_alpha    90
_cell_angle_beta     102.7
_cell_angle_gamma    90

_symmetry_space_group_name_H-M    "P 1"
_symmetry_int_tables_number       1

loop_
  _symmetry_equiv_pos_as_xyz
  'x, y, z'

loop_
  _atom_site_label
  _atom_site_occupancy
  _atom_site_fract_x
  _atom_site_fract_y
  _atom_site_fract_z
  _atom_site_thermal_displace_type
  _atom_site_B_iso_or_equiv
  _atom_site_type_symbol
  Cu1      1.0000 0.08961  0.21630  0.08727  Biso   1.000  Cu
  Cu2      1.0000 0.58961  0.71630  0.08727  Biso   1.000  Cu
  Cu3      1.0000 0.91039  0.21630  0.41273  Biso   1.000  Cu
  Cu4      1.0000 0.41039  0.71630  0.41273  Biso   1.000  Cu
  Cu5      1.0000 0.91039  0.78370  0.91273  Biso   1.000  Cu
  Cu6      1.0000 0.41039  0.28370  0.91273  Biso   1.000  Cu
  Cu7      1.0000 0.08961  0.78370  0.58727  Biso   1.000  Cu
  Cu8      1.0000 0.58961  0.28370  0.58727  Biso   1.000  Cu
  O1       1.0000 0.05192  0.37600  0.14922  Biso   1.000  O
  O2       1.0000 0.55192  0.87600  0.14922  Biso   1.000  O
  O3       1.0000 0.94808  0.37600  0.35078  Biso   1.000  O
  O4       1.0000 0.44808  0.87600  0.35078  Biso   1.000  O
  O5       1.0000 0.94808  0.62400  0.85078  Biso   1.000  O
  O6       1.0000 0.44808  0.12400  0.85078  Biso   1.000  O
  O7       1.0000 0.05192  0.62400  0.64922  Biso   1.000  O
  O8       1.0000 0.55192  0.12400  0.64922  Biso   1.000  O
  O9       1.0000 0.02200  0.63140  0.09150  Biso   1.000  O
  O10      1.0000 0.52200  0.13140  0.09150  Biso   1.000  O
  O11      1.0000 0.97800  0.63140  0.40850  Biso   1.000  O
  O12      1.0000 0.47800  0.13140  0.40850  Biso   1.000  O
  O13      1.0000 0.97800  0.36860  0.90850  Biso   1.000  O
  O14      1.0000 0.47800  0.86860  0.90850  Biso   1.000  O
  O15      1.0000 0.02200  0.36860  0.59150  Biso   1.000  O
  O16      1.0000 0.52200  0.86860  0.59150  Biso   1.000  O
  O17      1.0000 0.96499  0.17330  0.04521  Biso   1.000  O
  O18      1.0000 0.46499  0.67330  0.04521  Biso   1.000  O
  O19      1.0000 0.03501  0.17330  0.45479  Biso   1.000  O
  O20      1.0000 0.53501  0.67330  0.45479  Biso   1.000  O
  O21      1.0000 0.03501  0.82670  0.95479  Biso   1.000  O
  O22      1.0000 0.53501  0.32670  0.95479  Biso   1.000  O
  O23      1.0000 0.96499  0.82670  0.54521  Biso   1.000  O
  O24      1.0000 0.46499  0.32670  0.54521  Biso   1.000  O
  O25      1.0000 0.11148  0.43500  0.01445  Biso   1.000  O
  O26      1.0000 0.61148  0.93500  0.01445  Biso   1.000  O
  O27      1.0000 0.88852  0.43500  0.48555  Biso   1.000  O
  O28      1.0000 0.38852  0.93500  0.48555  Biso   1.000  O
  O29      1.0000 0.88852  0.56500  0.98555  Biso   1.000  O
  O30      1.0000 0.38852  0.06500  0.98555  Biso   1.000  O
  O31      1.0000 0.11148  0.56500  0.51445  Biso   1.000  O
  O32      1.0000 0.61148  0.06500  0.51445  Biso   1.000  O
  H1       1.0000 0.08160  0.50840  0.02880  Biso   1.000  H
  H2       1.0000 0.58160  0.00840  0.02880  Biso   1.000  H
  H3       1.0000 0.91840  0.50840  0.47120  Biso   1.000  H
  H4       1.0000 0.41840  0.00840  0.47120  Biso   1.000  H
  H5       1.0000 0.91840  0.49160  0.97120  Biso   1.000  H
  H6       1.0000 0.41840  0.99160  0.97120  Biso   1.000  H
  H7       1.0000 0.08160  0.49160  0.52880  Biso   1.000  H
  H8       1.0000 0.58160  0.99160  0.52880  Biso   1.000  H
  H9       1.0000 0.08020  0.40970  0.97460  Biso   1.000  H
  H10      1.0000 0.58020  0.90970  0.97460  Biso   1.000  H
  H11      1.0000 0.91980  0.40970  0.52540  Biso   1.000  H
  H12      1.0000 0.41980  0.90970  0.52540  Biso   1.000  H
  H13      1.0000 0.91980  0.59030  0.02540  Biso   1.000  H
  H14      1.0000 0.41980  0.09030  0.02540  Biso   1.000  H
  H15      1.0000 0.08020  0.59030  0.47460  Biso   1.000  H
  H16      1.0000 0.58020  0.09030  0.47460  Biso   1.000  H
  N1       1.0000 0.88912  0.99390  0.96375  Biso   1.000  N
  N2       1.0000 0.38912  0.49390  0.96375  Biso   1.000  N
  N3       1.0000 0.11088  0.99390  0.53625  Biso   1.000  N
  N4       1.0000 0.61088  0.49390  0.53625  Biso   1.000  N
  N5       1.0000 0.11088  0.00610  0.03625  Biso   1.000  N
  N6       1.0000 0.61088  0.50610  0.03625  Biso   1.000  N
  N7       1.0000 0.88912  0.00610  0.46375  Biso   1.000  N
  N8       1.0000 0.38912  0.50610  0.46375  Biso   1.000  N
  N9       1.0000 0.78300  0.76290  0.86131  Biso   1.000  N
  N10      1.0000 0.28300  0.26290  0.86131  Biso   1.000  N
  N11      1.0000 0.21700  0.76290  0.63869  Biso   1.000  N
  N12      1.0000 0.71700  0.26290  0.63869  Biso   1.000  N
  N13      1.0000 0.21700  0.23710  0.13869  Biso   1.000  N
  N14      1.0000 0.71700  0.73710  0.13869  Biso   1.000  N
  N15      1.0000 0.78300  0.23710  0.36131  Biso   1.000  N
  N16      1.0000 0.28300  0.73710  0.36131  Biso   1.000  N
  C1       1.0000 0.02970  0.54340  0.14117  Biso   1.000  C
  C2       1.0000 0.52970  0.04340  0.14117  Biso   1.000  C
  C3       1.0000 0.97030  0.54340  0.35883  Biso   1.000  C
  C4       1.0000 0.47030  0.04340  0.35883  Biso   1.000  C
  C5       1.0000 0.97030  0.45660  0.85883  Biso   1.000  C
  C6       1.0000 0.47030  0.95660  0.85883  Biso   1.000  C
  C7       1.0000 0.02970  0.45660  0.64117  Biso   1.000  C
  C8       1.0000 0.52970  0.95660  0.64117  Biso   1.000  C
  C9       1.0000 0.01390  0.64400  0.19801  Biso   1.000  C
  C10      1.0000 0.51390  0.14400  0.19801  Biso   1.000  C
  C11      1.0000 0.98610  0.64400  0.30199  Biso   1.000  C
  C12      1.0000 0.48610  0.14400  0.30199  Biso   1.000  C
  C13      1.0000 0.98610  0.35600  0.80199  Biso   1.000  C
  C14      1.0000 0.48610  0.85600  0.80199  Biso   1.000  C
  C15      1.0000 0.01390  0.35600  0.69801  Biso   1.000  C
  C16      1.0000 0.51390  0.85600  0.69801  Biso   1.000  C
  C17      1.0000 0.01170  0.83840  0.19806  Biso   1.000  C
  C18      1.0000 0.51170  0.33840  0.19806  Biso   1.000  C
  C19      1.0000 0.98830  0.83840  0.30194  Biso   1.000  C
  C20      1.0000 0.48830  0.33840  0.30194  Biso   1.000  C
  C21      1.0000 0.98830  0.16160  0.80194  Biso   1.000  C
  C22      1.0000 0.48830  0.66160  0.80194  Biso   1.000  C
  C23      1.0000 0.01170  0.16160  0.69806  Biso   1.000  C
  C24      1.0000 0.51170  0.66160  0.69806  Biso   1.000  C
  H17      1.0000 0.01820  0.90430  0.16290  Biso   1.000  H
  H18      1.0000 0.51820  0.40430  0.16290  Biso   1.000  H
  H19      1.0000 0.98180  0.90430  0.33710  Biso   1.000  H
  H20      1.0000 0.48180  0.40430  0.33710  Biso   1.000  H
  H21      1.0000 0.98180  0.09570  0.83710  Biso   1.000  H
  H22      1.0000 0.48180  0.59570  0.83710  Biso   1.000  H
  H23      1.0000 0.01820  0.09570  0.66290  Biso   1.000  H
  H24      1.0000 0.51820  0.59570  0.66290  Biso   1.000  H
  C25      1.0000 0.00000  0.92980  0.25000  Biso   1.000  C
  C26      1.0000 0.50000  0.42980  0.25000  Biso   1.000  C
  C27      1.0000 0.00000  0.07020  0.75000  Biso   1.000  C
  C28      1.0000 0.50000  0.57020  0.75000  Biso   1.000  C
  H25      1.0000 0.00000  0.05870  0.25000  Biso   1.000  H
  H26      1.0000 0.50000  0.55870  0.25000  Biso   1.000  H
  H27      1.0000 0.00000  0.94130  0.75000  Biso   1.000  H
  H28      1.0000 0.50000  0.44130  0.75000  Biso   1.000  H
  C29      1.0000 0.00000  0.55430  0.25000  Biso   1.000  C
  C30      1.0000 0.50000  0.05430  0.25000  Biso   1.000  C
  C31      1.0000 0.00000  0.44570  0.75000  Biso   1.000  C
  C32      1.0000 0.50000  0.94570  0.75000  Biso   1.000  C
  H29      1.0000 0.00000  0.42540  0.25000  Biso   1.000  H
  H30      1.0000 0.50000  0.92540  0.25000  Biso   1.000  H
  H31      1.0000 0.00000  0.57460  0.75000  Biso   1.000  H
  H32      1.0000 0.50000  0.07460  0.75000  Biso   1.000  H
  C33      1.0000 0.95850  0.04910  0.00310  Biso   1.000  C
  C34      1.0000 0.45850  0.54910  0.00310  Biso   1.000  C
  C35      1.0000 0.04150  0.04910  0.49690  Biso   1.000  C
  C36      1.0000 0.54150  0.54910  0.49690  Biso   1.000  C
  C37      1.0000 0.04150  0.95090  0.99690  Biso   1.000  C
  C38      1.0000 0.54150  0.45090  0.99690  Biso   1.000  C
  C39      1.0000 0.95850  0.95090  0.50310  Biso   1.000  C
  C40      1.0000 0.45850  0.45090  0.50310  Biso   1.000  C
  C41      1.0000 0.80660  0.08550  0.96675  Biso   1.000  C
  C42      1.0000 0.30660  0.58550  0.96675  Biso   1.000  C
  C43      1.0000 0.19340  0.08550  0.53325  Biso   1.000  C
  C44      1.0000 0.69340  0.58550  0.53325  Biso   1.000  C
  C45      1.0000 0.19340  0.91450  0.03325  Biso   1.000  C
  C46      1.0000 0.69340  0.41450  0.03325  Biso   1.000  C
  C47      1.0000 0.80660  0.91450  0.46675  Biso   1.000  C
  C48      1.0000 0.30660  0.41450  0.46675  Biso   1.000  C
  H33      1.0000 0.78460  0.03400  0.00120  Biso   1.000  H
  H34      1.0000 0.28460  0.53400  0.00120  Biso   1.000  H
  H35      1.0000 0.21540  0.03400  0.49880  Biso   1.000  H
  H36      1.0000 0.71540  0.53400  0.49880  Biso   1.000  H
  H37      1.0000 0.21540  0.96600  0.99880  Biso   1.000  H
  H38      1.0000 0.71540  0.46600  0.99880  Biso   1.000  H
  H39      1.0000 0.78460  0.96600  0.50120  Biso   1.000  H
  H40      1.0000 0.28460  0.46600  0.50120  Biso   1.000  H
  H41      1.0000 0.81730  0.21650  0.97490  Biso   1.000  H
  H42      1.0000 0.31730  0.71650  0.97490  Biso   1.000  H
  H43      1.0000 0.18270  0.21650  0.52510  Biso   1.000  H
  H44      1.0000 0.68270  0.71650  0.52510  Biso   1.000  H
  H45      1.0000 0.18270  0.78350  0.02510  Biso   1.000  H
  H46      1.0000 0.68270  0.28350  0.02510  Biso   1.000  H
  H47      1.0000 0.81730  0.78350  0.47490  Biso   1.000  H
  H48      1.0000 0.31730  0.28350  0.47490  Biso   1.000  H
  C49      1.0000 0.73860  0.06200  0.90670  Biso   1.000  C
  C50      1.0000 0.23860  0.56200  0.90670  Biso   1.000  C
  C51      1.0000 0.26140  0.06200  0.59330  Biso   1.000  C
  C52      1.0000 0.76140  0.56200  0.59330  Biso   1.000  C
  C53      1.0000 0.26140  0.93800  0.09330  Biso   1.000  C
  C54      1.0000 0.76140  0.43800  0.09330  Biso   1.000  C
  C55      1.0000 0.73860  0.93800  0.40670  Biso   1.000  C
  C56      1.0000 0.23860  0.43800  0.40670  Biso   1.000  C
  H49      1.0000 0.75960  0.11880  0.87260  Biso   1.000  H
  H50      1.0000 0.25960  0.61880  0.87260  Biso   1.000  H
  H51      1.0000 0.24040  0.11880  0.62740  Biso   1.000  H
  H52      1.0000 0.74040  0.61880  0.62740  Biso   1.000  H
  H53      1.0000 0.24040  0.88120  0.12740  Biso   1.000  H
  H54      1.0000 0.74040  0.38120  0.12740  Biso   1.000  H
  H55      1.0000 0.75960  0.88120  0.37260  Biso   1.000  H
  H56      1.0000 0.25960  0.38120  0.37260  Biso   1.000  H
  H57      1.0000 0.68550  0.12580  0.91040  Biso   1.000  H
  H58      1.0000 0.18550  0.62580  0.91040  Biso   1.000  H
  H59      1.0000 0.31450  0.12580  0.58960  Biso   1.000  H
  H60      1.0000 0.81450  0.62580  0.58960  Biso   1.000  H
  H61      1.0000 0.31450  0.87420  0.08960  Biso   1.000  H
  H62      1.0000 0.81450  0.37420  0.08960  Biso   1.000  H
  H63      1.0000 0.68550  0.87420  0.41040  Biso   1.000  H
  H64      1.0000 0.18550  0.37420  0.41040  Biso   1.000  H
  C57      1.0000 0.71780  0.86170  0.89140  Biso   1.000  C
  C58      1.0000 0.21780  0.36170  0.89140  Biso   1.000  C
  C59      1.0000 0.28220  0.86170  0.60860  Biso   1.000  C
  C60      1.0000 0.78220  0.36170  0.60860  Biso   1.000  C
  C61      1.0000 0.28220  0.13830  0.10860  Biso   1.000  C
  C62      1.0000 0.78220  0.63830  0.10860  Biso   1.000  C
  C63      1.0000 0.71780  0.13830  0.39140  Biso   1.000  C
  C64      1.0000 0.21780  0.63830  0.39140  Biso   1.000  C
  H65      1.0000 0.71460  0.79710  0.92970  Biso   1.000  H
  H66      1.0000 0.21460  0.29710  0.92970  Biso   1.000  H
  H67      1.0000 0.28540  0.79710  0.57030  Biso   1.000  H
  H68      1.0000 0.78540  0.29710  0.57030  Biso   1.000  H
  H69      1.0000 0.28540  0.20290  0.07030  Biso   1.000  H
  H70      1.0000 0.78540  0.70290  0.07030  Biso   1.000  H
  H71      1.0000 0.71460  0.20290  0.42970  Biso   1.000  H
  H72      1.0000 0.21460  0.70290  0.42970  Biso   1.000  H
  H73      1.0000 0.66050  0.85420  0.86340  Biso   1.000  H
  H74      1.0000 0.16050  0.35420  0.86340  Biso   1.000  H
  H75      1.0000 0.33950  0.85420  0.63660  Biso   1.000  H
  H76      1.0000 0.83950  0.35420  0.63660  Biso   1.000  H
  H77      1.0000 0.33950  0.14580  0.13660  Biso   1.000  H
  H78      1.0000 0.83950  0.64580  0.13660  Biso   1.000  H
  H79      1.0000 0.66050  0.14580  0.36340  Biso   1.000  H
  H80      1.0000 0.16050  0.64580  0.36340  Biso   1.000  H
  C65      1.0000 0.77980  0.83680  0.79750  Biso   1.000  C
  C66      1.0000 0.27980  0.33680  0.79750  Biso   1.000  C
  C67      1.0000 0.22020  0.83680  0.70250  Biso   1.000  C
  C68      1.0000 0.72020  0.33680  0.70250  Biso   1.000  C
  C69      1.0000 0.22020  0.16320  0.20250  Biso   1.000  C
  C70      1.0000 0.72020  0.66320  0.20250  Biso   1.000  C
  C71      1.0000 0.77980  0.16320  0.29750  Biso   1.000  C
  C72      1.0000 0.27980  0.66320  0.29750  Biso   1.000  C
  H81      1.0000 0.72110  0.82840  0.77300  Biso   1.000  H
  H82      1.0000 0.22110  0.32840  0.77300  Biso   1.000  H
  H83      1.0000 0.27890  0.82840  0.72700  Biso   1.000  H
  H84      1.0000 0.77890  0.32840  0.72700  Biso   1.000  H
  H85      1.0000 0.27890  0.17160  0.22700  Biso   1.000  H
  H86      1.0000 0.77890  0.67160  0.22700  Biso   1.000  H
  H87      1.0000 0.72110  0.17160  0.27300  Biso   1.000  H
  H88      1.0000 0.22110  0.67160  0.27300  Biso   1.000  H
  H89      1.0000 0.79820  0.96400  0.80040  Biso   1.000  H
  H90      1.0000 0.29820  0.46400  0.80040  Biso   1.000  H
  H91      1.0000 0.20180  0.96400  0.69960  Biso   1.000  H
  H92      1.0000 0.70180  0.46400  0.69960  Biso   1.000  H
  H93      1.0000 0.20180  0.03600  0.19960  Biso   1.000  H
  H94      1.0000 0.70180  0.53600  0.19960  Biso   1.000  H
  H95      1.0000 0.79820  0.03600  0.30040  Biso   1.000  H
  H96      1.0000 0.29820  0.53600  0.30040  Biso   1.000  H
  H97      1.0000 0.81820  0.76560  0.77790  Biso   1.000  H
  H98      1.0000 0.31820  0.26560  0.77790  Biso   1.000  H
  H99      1.0000 0.18180  0.76560  0.72210  Biso   1.000  H
  H100     1.0000 0.68180  0.26560  0.72210  Biso   1.000  H
  H101     1.0000 0.18180  0.23440  0.22210  Biso   1.000  H
  H102     1.0000 0.68180  0.73440  0.22210  Biso   1.000  H
  H103     1.0000 0.81820  0.23440  0.27790  Biso   1.000  H
  H104     1.0000 0.31820  0.73440  0.27790  Biso   1.000  H
  C73      1.0000 0.75560  0.56620  0.85480  Biso   1.000  C
  C74      1.0000 0.25560  0.06620  0.85480  Biso   1.000  C
  C75      1.0000 0.24440  0.56620  0.64520  Biso   1.000  C
  C76      1.0000 0.74440  0.06620  0.64520  Biso   1.000  C
  C77      1.0000 0.24440  0.43380  0.14520  Biso   1.000  C
  C78      1.0000 0.74440  0.93380  0.14520  Biso   1.000  C
  C79      1.0000 0.75560  0.43380  0.35480  Biso   1.000  C
  C80      1.0000 0.25560  0.93380  0.35480  Biso   1.000  C
  H105     1.0000 0.79590  0.49730  0.83630  Biso   1.000  H
  H106     1.0000 0.29590  0.99730  0.83630  Biso   1.000  H
  H107     1.0000 0.20410  0.49730  0.66370  Biso   1.000  H
  H108     1.0000 0.70410  0.99730  0.66370  Biso   1.000  H
  H109     1.0000 0.20410  0.50270  0.16370  Biso   1.000  H
  H110     1.0000 0.70410  0.00270  0.16370  Biso   1.000  H
  H111     1.0000 0.79590  0.50270  0.33630  Biso   1.000  H
  H112     1.0000 0.29590  0.00270  0.33630  Biso   1.000  H
  H113     1.0000 0.75510  0.51600  0.89530  Biso   1.000  H
  H114     1.0000 0.25510  0.01600  0.89530  Biso   1.000  H
  H115     1.0000 0.24490  0.51600  0.60470  Biso   1.000  H
  H116     1.0000 0.74490  0.01600  0.60470  Biso   1.000  H
  H117     1.0000 0.24490  0.48400  0.10470  Biso   1.000  H
  H118     1.0000 0.74490  0.98400  0.10470  Biso   1.000  H
  H119     1.0000 0.75510  0.48400  0.39530  Biso   1.000  H
  H120     1.0000 0.25510  0.98400  0.39530  Biso   1.000  H
  H121     1.0000 0.69800  0.55770  0.82850  Biso   1.000  H
  H122     1.0000 0.19800  0.05770  0.82850  Biso   1.000  H
  H123     1.0000 0.30200  0.55770  0.67150  Biso   1.000  H
  H124     1.0000 0.80200  0.05770  0.67150  Biso   1.000  H
  H125     1.0000 0.30200  0.44230  0.17150  Biso   1.000  H
  H126     1.0000 0.80200  0.94230  0.17150  Biso   1.000  H
  H127     1.0000 0.69800  0.44230  0.32850  Biso   1.000  H
  H128     1.0000 0.19800  0.94230  0.32850  Biso   1.000  H
