data_image0
_cell_length_a       7.29
_cell_length_b       8.411
_cell_length_c       11.453
_cell_angle_alpha    93.44
_cell_angle_beta     107.266
_cell_angle_gamma    112.504

_symmetry_space_group_name_H-M    "P 1"
_symmetry_int_tables_number       1

loop_
  _symmetry_equiv_pos_as_xyz
  'x, y, z'

loop_
  _atom_site_label
  _atom_site_occupancy
  _atom_site_fract_x
  _atom_site_fract_y
  _atom_site_fract_z
  _atom_site_thermal_displace_type
  _atom_site_B_iso_or_equiv
  _atom_site_type_symbol
  Cu1      1.0000 0.45300  0.67969  0.17498  Biso   1.000  Cu
  Cu2      1.0000 0.54700  0.32031  0.82502  Biso   1.000  Cu
  O1       1.0000 0.33980  0.43100  0.09200  Biso   1.000  O
  O2       1.0000 0.66020  0.56900  0.90800  Biso   1.000  O
  O3       1.0000 0.31840  0.60410  0.29940  Biso   1.000  O
  O4       1.0000 0.68160  0.39590  0.70060  Biso   1.000  O
  O5       1.0000 0.98460  0.54490  0.18270  Biso   1.000  O
  O6       1.0000 0.01540  0.45510  0.81730  Biso   1.000  O
  O7       1.0000 0.18760  0.72460  0.03030  Biso   1.000  O
  O8       1.0000 0.81240  0.27540  0.96970  Biso   1.000  O
  H1       1.0000 0.12280  0.66580  0.95850  Biso   1.000  H
  H2       1.0000 0.87720  0.33420  0.04150  Biso   1.000  H
  H3       1.0000 0.09760  0.69020  0.07450  Biso   1.000  H
  H4       1.0000 0.90240  0.30980  0.92550  Biso   1.000  H
  N1       1.0000 0.36540  0.27830  0.92640  Biso   1.000  N
  N2       1.0000 0.63460  0.72170  0.07360  Biso   1.000  N
  N3       1.0000 0.40220  0.06590  0.72230  Biso   1.000  N
  N4       1.0000 0.59780  0.93410  0.27770  Biso   1.000  N
  C1       1.0000 0.41720  0.41870  0.00700  Biso   1.000  C
  C2       1.0000 0.58280  0.58130  0.99300  Biso   1.000  C
  C3       1.0000 0.20050  0.11420  0.93200  Biso   1.000  C
  C4       1.0000 0.79950  0.88580  0.06800  Biso   1.000  C
  H5       1.0000 0.26000  0.06600  0.00070  Biso   1.000  H
  H6       1.0000 0.74000  0.93400  0.99930  Biso   1.000  H
  H7       1.0000 0.08890  0.13790  0.94770  Biso   1.000  H
  H8       1.0000 0.91110  0.86210  0.05230  Biso   1.000  H
  C5       1.0000 0.10820  0.98160  0.81250  Biso   1.000  C
  C6       1.0000 0.89180  0.01840  0.18750  Biso   1.000  C
  H9       1.0000 0.99940  0.87530  0.81980  Biso   1.000  H
  H10      1.0000 0.00060  0.12470  0.18020  Biso   1.000  H
  H11      1.0000 0.04130  0.02770  0.74500  Biso   1.000  H
  H12      1.0000 0.95870  0.97230  0.25500  Biso   1.000  H
  C7       1.0000 0.27050  0.93640  0.78000  Biso   1.000  C
  C8       1.0000 0.72950  0.06360  0.22000  Biso   1.000  C
  H13      1.0000 0.19770  0.82360  0.72320  Biso   1.000  H
  H14      1.0000 0.80230  0.17640  0.27680  Biso   1.000  H
  H15      1.0000 0.36370  0.92330  0.85550  Biso   1.000  H
  H16      1.0000 0.63630  0.07670  0.14450  Biso   1.000  H
  C9       1.0000 0.27300  0.06610  0.59550  Biso   1.000  C
  C10      1.0000 0.72700  0.93390  0.40450  Biso   1.000  C
  H17      1.0000 0.17020  0.10860  0.60090  Biso   1.000  H
  H18      1.0000 0.82980  0.89140  0.39910  Biso   1.000  H
  H19      1.0000 0.36300  0.14100  0.55640  Biso   1.000  H
  H20      1.0000 0.63700  0.85900  0.44360  Biso   1.000  H
  H21      1.0000 0.20170  0.94890  0.54710  Biso   1.000  H
  H22      1.0000 0.79830  0.05110  0.45290  Biso   1.000  H
  C11      1.0000 0.56440  0.00640  0.70970  Biso   1.000  C
  C12      1.0000 0.43560  0.99360  0.29030  Biso   1.000  C
  H23      1.0000 0.49570  0.88680  0.66540  Biso   1.000  H
  H24      1.0000 0.50430  0.11320  0.33460  Biso   1.000  H
  H25      1.0000 0.64350  0.07950  0.66450  Biso   1.000  H
  H26      1.0000 0.35650  0.92050  0.33550  Biso   1.000  H
  H27      1.0000 0.65870  0.01440  0.79100  Biso   1.000  H
  H28      1.0000 0.34130  0.98560  0.20900  Biso   1.000  H
  C13      1.0000 0.12330  0.56040  0.28170  Biso   1.000  C
  C14      1.0000 0.87670  0.43960  0.71830  Biso   1.000  C
  C15      1.0000 0.06050  0.52810  0.39590  Biso   1.000  C
  C16      1.0000 0.93950  0.47190  0.60410  Biso   1.000  C
  C17      1.0000 0.86220  0.51520  0.39170  Biso   1.000  C
  C18      1.0000 0.13780  0.48480  0.60830  Biso   1.000  C
  H29      1.0000 0.77050  0.52650  0.31980  Biso   1.000  H
  H30      1.0000 0.22950  0.47350  0.68020  Biso   1.000  H
  C19      1.0000 0.19790  0.51480  0.50430  Biso   1.000  C
  C20      1.0000 0.80210  0.48520  0.49570  Biso   1.000  C
  H31      1.0000 0.33130  0.52600  0.50750  Biso   1.000  H
  H32      1.0000 0.66870  0.47400  0.49250  Biso   1.000  H
