data_image0
_cell_length_a       5.682
_cell_length_b       27.2143
_cell_length_c       6.726
_cell_angle_alpha    90
_cell_angle_beta     107.618
_cell_angle_gamma    90

_symmetry_space_group_name_H-M    "P 1"
_symmetry_int_tables_number       1

loop_
  _symmetry_equiv_pos_as_xyz
  'x, y, z'

loop_
  _atom_site_label
  _atom_site_occupancy
  _atom_site_fract_x
  _atom_site_fract_y
  _atom_site_fract_z
  _atom_site_thermal_displace_type
  _atom_site_B_iso_or_equiv
  _atom_site_type_symbol
  Cu1      1.0000 0.22501  0.23109  0.46642  Biso   1.000  Cu
  Cu2      1.0000 0.27499  0.73109  0.03358  Biso   1.000  Cu
  Cu3      1.0000 0.77499  0.76891  0.53358  Biso   1.000  Cu
  Cu4      1.0000 0.72501  0.26891  0.96642  Biso   1.000  Cu
  Cu5      1.0000 0.45234  0.13829  0.33569  Biso   1.000  Cu
  Cu6      1.0000 0.04766  0.63829  0.16431  Biso   1.000  Cu
  Cu7      1.0000 0.54766  0.86171  0.66431  Biso   1.000  Cu
  Cu8      1.0000 0.95234  0.36171  0.83569  Biso   1.000  Cu
  O1       1.0000 0.52950  0.20047  0.47500  Biso   1.000  O
  O2       1.0000 0.97050  0.70047  0.02500  Biso   1.000  O
  O3       1.0000 0.47050  0.79953  0.52500  Biso   1.000  O
  O4       1.0000 0.02950  0.29953  0.97500  Biso   1.000  O
  H1       1.0000 0.60100  0.19810  0.58900  Biso   1.000  H
  H2       1.0000 0.89900  0.69810  0.91100  Biso   1.000  H
  H3       1.0000 0.39900  0.80190  0.41100  Biso   1.000  H
  H4       1.0000 0.10100  0.30190  0.08900  Biso   1.000  H
  O5       1.0000 0.87630  0.24983  0.37190  Biso   1.000  O
  O6       1.0000 0.62370  0.74983  0.12810  Biso   1.000  O
  O7       1.0000 0.12370  0.75017  0.62810  Biso   1.000  O
  O8       1.0000 0.37630  0.25017  0.87190  Biso   1.000  O
  H5       1.0000 0.84800  0.27680  0.40500  Biso   1.000  H
  H6       1.0000 0.65200  0.77680  0.09500  Biso   1.000  H
  H7       1.0000 0.15200  0.72320  0.59500  Biso   1.000  H
  H8       1.0000 0.34800  0.22320  0.90500  Biso   1.000  H
  H9       1.0000 0.79900  0.23070  0.40600  Biso   1.000  H
  H10      1.0000 0.70100  0.73070  0.09400  Biso   1.000  H
  H11      1.0000 0.20100  0.76930  0.59400  Biso   1.000  H
  H12      1.0000 0.29900  0.26930  0.90600  Biso   1.000  H
  C1       1.0000 0.99330  0.10062  0.70530  Biso   1.000  C
  C2       1.0000 0.50670  0.60062  0.79470  Biso   1.000  C
  C3       1.0000 0.00670  0.89938  0.29470  Biso   1.000  C
  C4       1.0000 0.49330  0.39938  0.20530  Biso   1.000  C
  C5       1.0000 0.90330  0.11943  0.86350  Biso   1.000  C
  C6       1.0000 0.59670  0.61943  0.63650  Biso   1.000  C
  C7       1.0000 0.09670  0.88057  0.13650  Biso   1.000  C
  C8       1.0000 0.40330  0.38057  0.36350  Biso   1.000  C
  C9       1.0000 0.75870  0.08806  0.94410  Biso   1.000  C
  C10      1.0000 0.74130  0.58806  0.55590  Biso   1.000  C
  C11      1.0000 0.24130  0.91194  0.05590  Biso   1.000  C
  C12      1.0000 0.25870  0.41194  0.44410  Biso   1.000  C
  C13      1.0000 0.70770  0.04012  0.87240  Biso   1.000  C
  C14      1.0000 0.79230  0.54012  0.62760  Biso   1.000  C
  C15      1.0000 0.29230  0.95988  0.12760  Biso   1.000  C
  C16      1.0000 0.20770  0.45988  0.37240  Biso   1.000  C
  H13      1.0000 0.60980  0.02000  0.92890  Biso   1.000  H
  H14      1.0000 0.89020  0.52000  0.57110  Biso   1.000  H
  H15      1.0000 0.39020  0.98000  0.07110  Biso   1.000  H
  H16      1.0000 0.10980  0.48000  0.42890  Biso   1.000  H
  C17      1.0000 0.79940  0.02179  0.71880  Biso   1.000  C
  C18      1.0000 0.70060  0.52179  0.78120  Biso   1.000  C
  C19      1.0000 0.20060  0.97821  0.28120  Biso   1.000  C
  C20      1.0000 0.29940  0.47821  0.21880  Biso   1.000  C
  H17      1.0000 0.76690  0.98920  0.67160  Biso   1.000  H
  H18      1.0000 0.73310  0.48920  0.82840  Biso   1.000  H
  H19      1.0000 0.23310  0.01080  0.32840  Biso   1.000  H
  H20      1.0000 0.26690  0.51080  0.17160  Biso   1.000  H
  C21      1.0000 0.94040  0.05261  0.63580  Biso   1.000  C
  C22      1.0000 0.55960  0.55261  0.86420  Biso   1.000  C
  C23      1.0000 0.05960  0.94739  0.36420  Biso   1.000  C
  C24      1.0000 0.44040  0.44739  0.13580  Biso   1.000  C
  H21      1.0000 0.00170  0.04070  0.53000  Biso   1.000  H
  H22      1.0000 0.49830  0.54070  0.97000  Biso   1.000  H
  H23      1.0000 0.99830  0.95930  0.47000  Biso   1.000  H
  H24      1.0000 0.50170  0.45930  0.03000  Biso   1.000  H
  C25      1.0000 0.13380  0.13131  0.59500  Biso   1.000  C
  C26      1.0000 0.36620  0.63131  0.90500  Biso   1.000  C
  C27      1.0000 0.86620  0.86869  0.40500  Biso   1.000  C
  C28      1.0000 0.63380  0.36869  0.09500  Biso   1.000  C
  O9       1.0000 0.12300  0.17704  0.61460  Biso   1.000  O
  O10      1.0000 0.37700  0.67704  0.88540  Biso   1.000  O
  O11      1.0000 0.87700  0.82296  0.38540  Biso   1.000  O
  O12      1.0000 0.62300  0.32296  0.11460  Biso   1.000  O
  O13      1.0000 0.24880  0.10890  0.48710  Biso   1.000  O
  O14      1.0000 0.25120  0.60890  0.01290  Biso   1.000  O
  O15      1.0000 0.75120  0.89110  0.51290  Biso   1.000  O
  O16      1.0000 0.74880  0.39110  0.98710  Biso   1.000  O
  C29      1.0000 0.95850  0.17169  0.94870  Biso   1.000  C
  C30      1.0000 0.54150  0.67169  0.55130  Biso   1.000  C
  C31      1.0000 0.04150  0.82831  0.05130  Biso   1.000  C
  C32      1.0000 0.45850  0.32831  0.44870  Biso   1.000  C
  O17      1.0000 0.78980  0.20317  0.87260  Biso   1.000  O
  O18      1.0000 0.71020  0.70317  0.62740  Biso   1.000  O
  O19      1.0000 0.21020  0.79683  0.12740  Biso   1.000  O
  O20      1.0000 0.28980  0.29683  0.37260  Biso   1.000  O
  O21      1.0000 0.15770  0.18036  0.08570  Biso   1.000  O
  O22      1.0000 0.34230  0.68036  0.41430  Biso   1.000  O
  O23      1.0000 0.84230  0.81964  0.91430  Biso   1.000  O
  O24      1.0000 0.65770  0.31964  0.58570  Biso   1.000  O
  C33      1.0000 0.64830  0.10528  0.10710  Biso   1.000  C
  C34      1.0000 0.85170  0.60528  0.39290  Biso   1.000  C
  C35      1.0000 0.35170  0.89472  0.89290  Biso   1.000  C
  C36      1.0000 0.14830  0.39472  0.60710  Biso   1.000  C
  O25      1.0000 0.48970  0.07966  0.15770  Biso   1.000  O
  O26      1.0000 0.01030  0.57966  0.34230  Biso   1.000  O
  O27      1.0000 0.51030  0.92034  0.84230  Biso   1.000  O
  O28      1.0000 0.98970  0.42034  0.65770  Biso   1.000  O
  O29      1.0000 0.70950  0.14632  0.19510  Biso   1.000  O
  O30      1.0000 0.79050  0.64632  0.30490  Biso   1.000  O
  O31      1.0000 0.29050  0.85368  0.80490  Biso   1.000  O
  O32      1.0000 0.20950  0.35368  0.69510  Biso   1.000  O
