data_image0
_cell_length_a       12.5446
_cell_length_b       15.4392
_cell_length_c       15.9536
_cell_angle_alpha    94.702
_cell_angle_beta     95.584
_cell_angle_gamma    100.257

_symmetry_space_group_name_H-M    "P 1"
_symmetry_int_tables_number       1

loop_
  _symmetry_equiv_pos_as_xyz
  'x, y, z'

loop_
  _atom_site_label
  _atom_site_occupancy
  _atom_site_fract_x
  _atom_site_fract_y
  _atom_site_fract_z
  _atom_site_thermal_displace_type
  _atom_site_B_iso_or_equiv
  _atom_site_type_symbol
  P1       1.0000 0.83919  0.14548  0.75827  Biso   1.000  P
  P2       1.0000 0.16081  0.85452  0.24173  Biso   1.000  P
  P3       1.0000 0.04144  0.35944  0.82198  Biso   1.000  P
  P4       1.0000 0.95856  0.64056  0.17802  Biso   1.000  P
  Mo1      1.0000 0.11788  0.19176  0.71487  Biso   1.000  Mo
  Mo2      1.0000 0.88212  0.80824  0.28513  Biso   1.000  Mo
  Mo3      1.0000 0.88978  0.27685  0.60852  Biso   1.000  Mo
  Mo4      1.0000 0.11022  0.72315  0.39148  Biso   1.000  Mo
  Mo5      1.0000 0.77100  0.35994  0.77178  Biso   1.000  Mo
  Mo6      1.0000 0.22900  0.64006  0.22822  Biso   1.000  Mo
  Mo7      1.0000 0.84998  0.27182  0.94819  Biso   1.000  Mo
  Mo8      1.0000 0.15002  0.72818  0.05181  Biso   1.000  Mo
  Mo9      1.0000 0.04906  0.15612  0.90846  Biso   1.000  Mo
  Mo10     1.0000 0.95094  0.84388  0.09154  Biso   1.000  Mo
  Cu1      1.0000 0.00000  0.50000  0.50000  Biso   1.000  Cu
  Cu2      1.0000 0.44500  0.28815  0.75217  Biso   1.000  Cu
  Cu3      1.0000 0.55500  0.71185  0.24783  Biso   1.000  Cu
  Cu4      1.0000 0.77809  0.92975  0.76799  Biso   1.000  Cu
  Cu5      1.0000 0.22191  0.07025  0.23201  Biso   1.000  Cu
  N1       1.0000 0.85200  0.53330  0.49390  Biso   1.000  N
  N2       1.0000 0.14800  0.46670  0.50610  Biso   1.000  N
  N3       1.0000 0.82870  0.60310  0.45590  Biso   1.000  N
  N4       1.0000 0.17130  0.39690  0.54410  Biso   1.000  N
  H1       1.0000 0.87410  0.63640  0.42980  Biso   1.000  H
  H2       1.0000 0.12590  0.36360  0.57020  Biso   1.000  H
  N5       1.0000 0.95960  0.42690  0.38780  Biso   1.000  N
  N6       1.0000 0.04040  0.57310  0.61220  Biso   1.000  N
  N7       1.0000 0.98120  0.45370  0.31290  Biso   1.000  N
  N8       1.0000 0.01880  0.54630  0.68710  Biso   1.000  N
  H3       1.0000 0.01210  0.50660  0.30610  Biso   1.000  H
  H4       1.0000 0.98790  0.49340  0.69390  Biso   1.000  H
  N9       1.0000 0.42160  0.41240  0.73980  Biso   1.000  N
  N10      1.0000 0.57840  0.58760  0.26020  Biso   1.000  N
  N11      1.0000 0.32580  0.43830  0.74580  Biso   1.000  N
  N12      1.0000 0.67420  0.56170  0.25420  Biso   1.000  N
  H5       1.0000 0.26580  0.40340  0.75090  Biso   1.000  H
  H6       1.0000 0.73420  0.59660  0.24910  Biso   1.000  H
  N13      1.0000 0.43200  0.31360  0.87650  Biso   1.000  N
  N14      1.0000 0.56800  0.68640  0.12350  Biso   1.000  N
  N15      1.0000 0.33970  0.30140  0.91210  Biso   1.000  N
  N16      1.0000 0.66030  0.69860  0.08790  Biso   1.000  N
  H7       1.0000 0.27850  0.27230  0.88700  Biso   1.000  H
  H8       1.0000 0.72150  0.72770  0.11300  Biso   1.000  H
  N17      1.0000 0.45490  0.16270  0.77020  Biso   1.000  N
  N18      1.0000 0.54510  0.83730  0.22980  Biso   1.000  N
  N19      1.0000 0.54790  0.14340  0.80560  Biso   1.000  N
  N20      1.0000 0.45210  0.85660  0.19440  Biso   1.000  N
  H9       1.0000 0.60890  0.18020  0.81570  Biso   1.000  H
  H10      1.0000 0.39110  0.81980  0.18430  Biso   1.000  H
  N21      1.0000 0.46730  0.26940  0.62860  Biso   1.000  N
  N22      1.0000 0.53270  0.73060  0.37140  Biso   1.000  N
  N23      1.0000 0.41490  0.20170  0.57580  Biso   1.000  N
  N24      1.0000 0.58510  0.79830  0.42420  Biso   1.000  N
  H11      1.0000 0.36670  0.16010  0.58980  Biso   1.000  H
  H12      1.0000 0.63330  0.83990  0.41020  Biso   1.000  H
  N25      1.0000 0.72960  0.93040  0.88400  Biso   1.000  N
  N26      1.0000 0.27040  0.06960  0.11600  Biso   1.000  N
  N27      1.0000 0.76050  0.99860  0.94490  Biso   1.000  N
  N28      1.0000 0.23950  0.00140  0.05510  Biso   1.000  N
  H13      1.0000 0.80790  0.04510  0.94050  Biso   1.000  H
  H14      1.0000 0.19210  0.95490  0.05950  Biso   1.000  H
  N29      1.0000 0.85450  0.92700  0.66290  Biso   1.000  N
  N30      1.0000 0.14550  0.07300  0.33710  Biso   1.000  N
  N31      1.0000 0.84190  0.98130  0.60280  Biso   1.000  N
  N32      1.0000 0.15810  0.01870  0.39720  Biso   1.000  N
  H15      1.0000 0.81380  0.02800  0.60940  Biso   1.000  H
  H16      1.0000 0.18620  0.97200  0.39060  Biso   1.000  H
  N33      1.0000 0.76670  0.79920  0.76520  Biso   1.000  N
  N34      1.0000 0.23330  0.20080  0.23480  Biso   1.000  N
  N35      1.0000 0.81350  0.75690  0.82420  Biso   1.000  N
  N36      1.0000 0.18650  0.24310  0.17580  Biso   1.000  N
  H17      1.0000 0.85030  0.78300  0.87060  Biso   1.000  H
  H18      1.0000 0.14970  0.21700  0.12940  Biso   1.000  H
  C1       1.0000 0.76200  0.50040  0.52490  Biso   1.000  C
  C2       1.0000 0.23800  0.49960  0.47510  Biso   1.000  C
  H19      1.0000 0.75320  0.45070  0.55460  Biso   1.000  H
  H20      1.0000 0.24680  0.54930  0.44540  Biso   1.000  H
  C3       1.0000 0.68280  0.54920  0.50770  Biso   1.000  C
  C4       1.0000 0.31720  0.45080  0.49230  Biso   1.000  C
  H21      1.0000 0.61250  0.53930  0.52340  Biso   1.000  H
  H22      1.0000 0.38750  0.46070  0.47660  Biso   1.000  H
  C5       1.0000 0.72760  0.61500  0.46300  Biso   1.000  C
  C6       1.0000 0.27240  0.38500  0.53700  Biso   1.000  C
  H23      1.0000 0.69430  0.65920  0.44190  Biso   1.000  H
  H24      1.0000 0.30570  0.34080  0.55810  Biso   1.000  H
  C7       1.0000 0.91180  0.34390  0.37010  Biso   1.000  C
  C8       1.0000 0.08820  0.65610  0.62990  Biso   1.000  C
  H25      1.0000 0.88590  0.30720  0.40990  Biso   1.000  H
  H26      1.0000 0.11410  0.69280  0.59010  Biso   1.000  H
  C9       1.0000 0.90490  0.31800  0.28440  Biso   1.000  C
  C10      1.0000 0.09510  0.68200  0.71560  Biso   1.000  C
  H27      1.0000 0.87530  0.26240  0.25640  Biso   1.000  H
  H28      1.0000 0.12470  0.73760  0.74360  Biso   1.000  H
  C11      1.0000 0.95030  0.39020  0.25070  Biso   1.000  C
  C12      1.0000 0.04970  0.60980  0.74930  Biso   1.000  C
  H29      1.0000 0.95830  0.39460  0.19380  Biso   1.000  H
  H30      1.0000 0.04170  0.60540  0.80620  Biso   1.000  H
  C13      1.0000 0.49270  0.48460  0.73470  Biso   1.000  C
  C14      1.0000 0.50730  0.51540  0.26530  Biso   1.000  C
  H31      1.0000 0.56670  0.48660  0.73130  Biso   1.000  H
  H32      1.0000 0.43330  0.51340  0.26870  Biso   1.000  H
  C15      1.0000 0.44220  0.55740  0.73510  Biso   1.000  C
  C16      1.0000 0.55780  0.44260  0.26490  Biso   1.000  C
  H33      1.0000 0.47410  0.61590  0.73100  Biso   1.000  H
  H34      1.0000 0.52590  0.38410  0.26900  Biso   1.000  H
  C17      1.0000 0.33610  0.52510  0.74290  Biso   1.000  C
  C18      1.0000 0.66390  0.47490  0.25710  Biso   1.000  C
  H35      1.0000 0.28070  0.55770  0.74560  Biso   1.000  H
  H36      1.0000 0.71930  0.44230  0.25440  Biso   1.000  H
  C19      1.0000 0.50520  0.36040  0.93540  Biso   1.000  C
  C20      1.0000 0.49480  0.63960  0.06460  Biso   1.000  C
  H37      1.0000 0.57840  0.37880  0.92880  Biso   1.000  H
  H38      1.0000 0.42160  0.62120  0.07120  Biso   1.000  H
  C21      1.0000 0.45840  0.37840  0.00860  Biso   1.000  C
  C22      1.0000 0.54160  0.62160  0.99140  Biso   1.000  C
  H39      1.0000 0.49240  0.41050  0.05890  Biso   1.000  H
  H40      1.0000 0.50760  0.58950  0.94110  Biso   1.000  H
  C23      1.0000 0.35340  0.33950  0.99080  Biso   1.000  C
  C24      1.0000 0.64660  0.66050  0.00920  Biso   1.000  C
  H41      1.0000 0.29970  0.33930  0.02710  Biso   1.000  H
  H42      1.0000 0.70030  0.66070  0.97290  Biso   1.000  H
  C25      1.0000 0.53210  0.31800  0.58240  Biso   1.000  C
  C26      1.0000 0.46790  0.68200  0.41760  Biso   1.000  C
  H43      1.0000 0.57870  0.37110  0.60260  Biso   1.000  H
  H44      1.0000 0.42130  0.62890  0.39740  Biso   1.000  H
  C27      1.0000 0.52100  0.27940  0.50060  Biso   1.000  C
  C28      1.0000 0.47900  0.72060  0.49940  Biso   1.000  C
  H45      1.0000 0.55810  0.30030  0.45640  Biso   1.000  H
  H46      1.0000 0.44190  0.69970  0.54360  Biso   1.000  H
  C29      1.0000 0.44560  0.20520  0.49760  Biso   1.000  C
  C30      1.0000 0.55440  0.79480  0.50240  Biso   1.000  C
  H47      1.0000 0.41980  0.16440  0.45070  Biso   1.000  H
  H48      1.0000 0.58020  0.83560  0.54930  Biso   1.000  H
  C31      1.0000 0.38110  0.08850  0.76610  Biso   1.000  C
  C32      1.0000 0.61890  0.91150  0.23390  Biso   1.000  C
  H49      1.0000 0.30830  0.08250  0.74460  Biso   1.000  H
  H50      1.0000 0.69170  0.91750  0.25540  Biso   1.000  H
  C33      1.0000 0.42750  0.02190  0.79800  Biso   1.000  C
  C34      1.0000 0.57250  0.97810  0.20200  Biso   1.000  C
  H51      1.0000 0.39370  0.96380  0.80170  Biso   1.000  H
  H52      1.0000 0.60630  0.03620  0.19830  Biso   1.000  H
  C35      1.0000 0.53340  0.05970  0.82300  Biso   1.000  C
  C36      1.0000 0.46660  0.94030  0.17700  Biso   1.000  C
  H53      1.0000 0.58650  0.03180  0.84800  Biso   1.000  H
  H54      1.0000 0.41350  0.96820  0.15200  Biso   1.000  H
  C37      1.0000 0.65510  0.87390  0.91530  Biso   1.000  C
  C38      1.0000 0.34490  0.12610  0.08470  Biso   1.000  C
  H55      1.0000 0.61870  0.82010  0.88700  Biso   1.000  H
  H56      1.0000 0.38130  0.17990  0.11300  Biso   1.000  H
  C39      1.0000 0.63890  0.90560  0.99550  Biso   1.000  C
  C40      1.0000 0.36110  0.09440  0.00450  Biso   1.000  C
  H57      1.0000 0.59070  0.87860  0.03050  Biso   1.000  H
  H58      1.0000 0.40930  0.12140  0.96950  Biso   1.000  H
  C41      1.0000 0.70820  0.98460  0.01260  Biso   1.000  C
  C42      1.0000 0.29180  0.01540  0.98740  Biso   1.000  C
  H59      1.0000 0.71740  0.02210  0.06250  Biso   1.000  H
  H60      1.0000 0.28260  0.97790  0.93750  Biso   1.000  H
  C43      1.0000 0.90350  0.86660  0.62780  Biso   1.000  C
  C44      1.0000 0.09650  0.13340  0.37220  Biso   1.000  C
  H61      1.0000 0.92470  0.82060  0.65540  Biso   1.000  H
  H62      1.0000 0.07530  0.17940  0.34460  Biso   1.000  H
  C45      1.0000 0.91930  0.88000  0.54540  Biso   1.000  C
  C46      1.0000 0.08070  0.12000  0.45460  Biso   1.000  C
  H63      1.0000 0.95090  0.84600  0.50760  Biso   1.000  H
  H64      1.0000 0.04910  0.15400  0.49240  Biso   1.000  H
  C47      1.0000 0.87840  0.95370  0.53150  Biso   1.000  C
  C48      1.0000 0.12160  0.04630  0.46850  Biso   1.000  C
  H65      1.0000 0.87620  0.98020  0.48130  Biso   1.000  H
  H66      1.0000 0.12380  0.01980  0.51870  Biso   1.000  H
  C49      1.0000 0.71830  0.73530  0.70660  Biso   1.000  C
  C50      1.0000 0.28170  0.26470  0.29340  Biso   1.000  C
  H67      1.0000 0.67710  0.74410  0.65740  Biso   1.000  H
  H68      1.0000 0.32290  0.25590  0.34260  Biso   1.000  H
  C51      1.0000 0.73660  0.65350  0.72740  Biso   1.000  C
  C52      1.0000 0.26340  0.34650  0.27260  Biso   1.000  C
  H69      1.0000 0.71250  0.59890  0.69590  Biso   1.000  H
  H70      1.0000 0.28750  0.40110  0.30410  Biso   1.000  H
  C53      1.0000 0.79680  0.67050  0.80330  Biso   1.000  C
  C54      1.0000 0.20320  0.32950  0.19670  Biso   1.000  C
  H71      1.0000 0.82200  0.62910  0.83530  Biso   1.000  H
  H72      1.0000 0.17800  0.37090  0.16470  Biso   1.000  H
  O1       1.0000 0.15890  0.17970  0.83260  Biso   1.000  O
  O2       1.0000 0.84110  0.82030  0.16740  Biso   1.000  O
  O3       1.0000 0.96470  0.15790  0.78250  Biso   1.000  O
  O4       1.0000 0.03530  0.84210  0.21750  Biso   1.000  O
  O5       1.0000 0.09680  0.08440  0.67340  Biso   1.000  O
  O6       1.0000 0.90320  0.91560  0.32660  Biso   1.000  O
  O7       1.0000 0.24540  0.23340  0.68900  Biso   1.000  O
  O8       1.0000 0.75460  0.76660  0.31100  Biso   1.000  O
  O9       1.0000 0.02200  0.23620  0.63430  Biso   1.000  O
  O10      1.0000 0.97800  0.76380  0.36570  Biso   1.000  O
  O11      1.0000 0.13260  0.33230  0.77710  Biso   1.000  O
  O12      1.0000 0.86740  0.66770  0.22290  Biso   1.000  O
  O13      1.0000 0.83580  0.22020  0.51360  Biso   1.000  O
  O14      1.0000 0.16420  0.77980  0.48640  Biso   1.000  O
  O15      1.0000 0.94780  0.37870  0.57820  Biso   1.000  O
  O16      1.0000 0.05220  0.62130  0.42180  Biso   1.000  O
  O17      1.0000 0.82130  0.15580  0.66420  Biso   1.000  O
  O18      1.0000 0.17870  0.84420  0.33580  Biso   1.000  O
  O19      1.0000 0.76950  0.31220  0.65620  Biso   1.000  O
  O20      1.0000 0.23050  0.68780  0.34380  Biso   1.000  O
  O21      1.0000 0.78420  0.46860  0.75730  Biso   1.000  O
  O22      1.0000 0.21580  0.53140  0.24270  Biso   1.000  O
  O23      1.0000 0.63370  0.32660  0.77870  Biso   1.000  O
  O24      1.0000 0.36630  0.67340  0.22130  Biso   1.000  O
  O25      1.0000 0.79510  0.21970  0.80830  Biso   1.000  O
  O26      1.0000 0.20490  0.78030  0.19170  Biso   1.000  O
  O27      1.0000 0.82630  0.37270  0.88980  Biso   1.000  O
  O28      1.0000 0.17370  0.62730  0.11020  Biso   1.000  O
  O29      1.0000 0.72160  0.23030  0.96950  Biso   1.000  O
  O30      1.0000 0.27840  0.76970  0.03050  Biso   1.000  O
  O31      1.0000 0.91370  0.32630  0.04180  Biso   1.000  O
  O32      1.0000 0.08630  0.67370  0.95820  Biso   1.000  O
  O33      1.0000 0.90710  0.16410  0.94530  Biso   1.000  O
  O34      1.0000 0.09290  0.83590  0.05470  Biso   1.000  O
  O35      1.0000 0.01420  0.30180  0.89330  Biso   1.000  O
  O36      1.0000 0.98580  0.69820  0.10670  Biso   1.000  O
  O37      1.0000 0.12940  0.19920  0.00020  Biso   1.000  O
  O38      1.0000 0.87060  0.80080  0.99980  Biso   1.000  O
  O39      1.0000 0.03240  0.04410  0.90770  Biso   1.000  O
  O40      1.0000 0.96760  0.95590  0.09230  Biso   1.000  O
  O41      1.0000 0.94280  0.35630  0.75510  Biso   1.000  O
  O42      1.0000 0.05720  0.64370  0.24490  Biso   1.000  O
  O43      1.0000 0.78340  0.05620  0.77880  Biso   1.000  O
  O44      1.0000 0.21660  0.94380  0.22120  Biso   1.000  O
  O45      1.0000 0.07720  0.45720  0.86290  Biso   1.000  O
  O46      1.0000 0.92280  0.54280  0.13710  Biso   1.000  O
  O47      1.0000 0.11800  0.45800  0.02730  Biso   1.000  O
  O48      1.0000 0.88200  0.54200  0.97270  Biso   1.000  O
  O49      1.0000 0.60220  0.05720  0.60140  Biso   1.000  O
  O50      1.0000 0.39780  0.94280  0.39860  Biso   1.000  O
  O51      1.0000 0.72530  0.13460  0.36240  Biso   1.000  O
  O52      1.0000 0.27470  0.86540  0.63760  Biso   1.000  O
  O53      1.0000 0.37470  0.00890  0.56310  Biso   1.000  O
  O54      1.0000 0.62530  0.99110  0.43690  Biso   1.000  O
  O55      1.0000 0.04190  0.86980  0.87600  Biso   1.000  O
  O56      1.0000 0.95810  0.13020  0.12400  Biso   1.000  O
  O57      1.0000 0.43120  0.78890  0.72390  Biso   1.000  O
  O58      1.0000 0.56880  0.21110  0.27610  Biso   1.000  O
  O59      1.0000 0.84740  0.06930  0.25490  Biso   1.000  O
  O60      1.0000 0.15260  0.93070  0.74510  Biso   1.000  O
  O61      1.0000 0.61250  0.90500  0.69080  Biso   1.000  O
  O62      1.0000 0.38750  0.09500  0.30920  Biso   1.000  O
  H73      1.0000 0.59500  0.95250  0.68220  Biso   1.000  H
  H74      1.0000 0.40500  0.04750  0.31780  Biso   1.000  H
  O63      1.0000 0.35280  0.75350  0.87380  Biso   1.000  O
  O64      1.0000 0.64720  0.24650  0.12620  Biso   1.000  O
