data_image0
_cell_length_a       9.187
_cell_length_b       12.409
_cell_length_c       22.099
_cell_angle_alpha    90.64
_cell_angle_beta     94.513
_cell_angle_gamma    95.49

_symmetry_space_group_name_H-M    "P 1"
_symmetry_int_tables_number       1

loop_
  _symmetry_equiv_pos_as_xyz
  'x, y, z'

loop_
  _atom_site_label
  _atom_site_occupancy
  _atom_site_fract_x
  _atom_site_fract_y
  _atom_site_fract_z
  _atom_site_thermal_displace_type
  _atom_site_B_iso_or_equiv
  _atom_site_type_symbol
  Mo1      1.0000 0.61738  0.70621  0.36358  Biso   1.000  Mo
  Mo2      1.0000 0.38262  0.29379  0.63642  Biso   1.000  Mo
  Mo3      1.0000 0.69038  0.52750  0.23688  Biso   1.000  Mo
  Mo4      1.0000 0.30962  0.47250  0.76312  Biso   1.000  Mo
  Mo5      1.0000 0.47086  0.60317  0.11758  Biso   1.000  Mo
  Mo6      1.0000 0.52914  0.39683  0.88242  Biso   1.000  Mo
  Mo7      1.0000 0.36202  0.84863  0.15094  Biso   1.000  Mo
  Mo8      1.0000 0.63798  0.15137  0.84906  Biso   1.000  Mo
  Mo9      1.0000 0.47636  0.92273  0.29452  Biso   1.000  Mo
  Mo10     1.0000 0.52364  0.07727  0.70548  Biso   1.000  Mo
  P1       1.0000 0.34960  0.64584  0.25567  Biso   1.000  P
  P2       1.0000 0.65040  0.35416  0.74433  Biso   1.000  P
  P3       1.0000 0.70660  0.79174  0.21288  Biso   1.000  P
  P4       1.0000 0.29340  0.20826  0.78712  Biso   1.000  P
  O1       1.0000 0.34240  0.76690  0.24250  Biso   1.000  O
  O2       1.0000 0.65760  0.23310  0.75750  Biso   1.000  O
  O3       1.0000 0.64690  0.54200  0.15050  Biso   1.000  O
  O4       1.0000 0.35310  0.45800  0.84950  Biso   1.000  O
  O5       1.0000 0.50050  0.82770  0.36410  Biso   1.000  O
  O6       1.0000 0.49950  0.17230  0.63590  Biso   1.000  O
  O7       1.0000 0.32080  0.69950  0.12480  Biso   1.000  O
  O8       1.0000 0.67920  0.30050  0.87520  Biso   1.000  O
  O9       1.0000 0.68790  0.59730  0.31370  Biso   1.000  O
  O10      1.0000 0.31210  0.40270  0.68630  Biso   1.000  O
  O11      1.0000 0.56230  0.63840  0.42610  Biso   1.000  O
  O12      1.0000 0.43770  0.36160  0.57390  Biso   1.000  O
  O13      1.0000 0.40470  0.63340  0.32190  Biso   1.000  O
  O14      1.0000 0.59530  0.36660  0.67810  Biso   1.000  O
  O15      1.0000 0.59100  0.77600  0.15860  Biso   1.000  O
  O16      1.0000 0.40900  0.22400  0.84140  Biso   1.000  O
  O17      1.0000 0.46850  0.94840  0.20900  Biso   1.000  O
  O18      1.0000 0.53150  0.05160  0.79100  Biso   1.000  O
  O19      1.0000 0.79730  0.69640  0.21930  Biso   1.000  O
  O20      1.0000 0.20270  0.30360  0.78070  Biso   1.000  O
  O21      1.0000 0.18760  0.88230  0.15110  Biso   1.000  O
  O22      1.0000 0.81240  0.11770  0.84890  Biso   1.000  O
  O23      1.0000 0.63980  0.80960  0.27330  Biso   1.000  O
  O24      1.0000 0.36020  0.19040  0.72670  Biso   1.000  O
  O25      1.0000 0.42120  0.90240  0.08550  Biso   1.000  O
  O26      1.0000 0.57880  0.09760  0.91450  Biso   1.000  O
  O27      1.0000 0.19980  0.58080  0.24400  Biso   1.000  O
  O28      1.0000 0.80020  0.41920  0.75600  Biso   1.000  O
  O29      1.0000 0.78590  0.76970  0.39020  Biso   1.000  O
  O30      1.0000 0.21410  0.23030  0.60980  Biso   1.000  O
  O31      1.0000 0.58830  0.40900  0.24880  Biso   1.000  O
  O32      1.0000 0.41170  0.59100  0.75120  Biso   1.000  O
  O33      1.0000 0.46220  0.59760  0.21660  Biso   1.000  O
  O34      1.0000 0.53780  0.40240  0.78340  Biso   1.000  O
  O35      1.0000 0.53200  0.64160  0.04950  Biso   1.000  O
  O36      1.0000 0.46800  0.35840  0.95050  Biso   1.000  O
  O37      1.0000 0.86490  0.48940  0.23630  Biso   1.000  O
  O38      1.0000 0.13510  0.51060  0.76370  Biso   1.000  O
  O39      1.0000 0.80880  0.89620  0.19940  Biso   1.000  O
  O40      1.0000 0.19120  0.10380  0.80060  Biso   1.000  O
  O41      1.0000 0.59900  0.02860  0.31950  Biso   1.000  O
  O42      1.0000 0.40100  0.97140  0.68050  Biso   1.000  O
  O43      1.0000 0.31020  0.96210  0.31070  Biso   1.000  O
  O44      1.0000 0.68980  0.03790  0.68930  Biso   1.000  O
  O45      1.0000 0.35830  0.48860  0.10290  Biso   1.000  O
  O46      1.0000 0.64170  0.51140  0.89710  Biso   1.000  O
  C1       1.0000 0.72960  0.86780  0.05260  Biso   1.000  C
  C2       1.0000 0.27040  0.13220  0.94740  Biso   1.000  C
  H1       1.0000 0.67550  0.85070  0.08560  Biso   1.000  H
  H2       1.0000 0.32450  0.14930  0.91440  Biso   1.000  H
  C3       1.0000 0.85460  0.83070  0.04420  Biso   1.000  C
  C4       1.0000 0.14540  0.16930  0.95580  Biso   1.000  C
  H3       1.0000 0.90120  0.78270  0.06930  Biso   1.000  H
  H4       1.0000 0.09880  0.21730  0.93070  Biso   1.000  H
  C5       1.0000 0.90550  0.87310  0.99310  Biso   1.000  C
  C6       1.0000 0.09450  0.12690  0.00690  Biso   1.000  C
  H5       1.0000 0.99290  0.86250  0.97640  Biso   1.000  H
  H6       1.0000 0.00710  0.13750  0.02360  Biso   1.000  H
  C7       1.0000 0.63790  0.11150  0.11630  Biso   1.000  C
  C8       1.0000 0.36210  0.88850  0.88370  Biso   1.000  C
  H7       1.0000 0.67470  0.04920  0.13160  Biso   1.000  H
  H8       1.0000 0.32530  0.95080  0.86840  Biso   1.000  H
  C9       1.0000 0.63730  0.20900  0.14940  Biso   1.000  C
  C10      1.0000 0.36270  0.79100  0.85060  Biso   1.000  C
  H9       1.0000 0.67220  0.22400  0.18950  Biso   1.000  H
  H10      1.0000 0.32780  0.77600  0.81050  Biso   1.000  H
  C11      1.0000 0.57530  0.27490  0.11000  Biso   1.000  C
  C12      1.0000 0.42470  0.72510  0.89000  Biso   1.000  C
  H11      1.0000 0.55900  0.34630  0.11820  Biso   1.000  H
  H12      1.0000 0.44100  0.65370  0.88180  Biso   1.000  H
  C13      1.0000 0.02000  0.38000  0.05930  Biso   1.000  C
  C14      1.0000 0.98000  0.62000  0.94070  Biso   1.000  C
  H13      1.0000 0.10590  0.34570  0.06190  Biso   1.000  H
  H14      1.0000 0.89410  0.65430  0.93810  Biso   1.000  H
  C15      1.0000 0.91060  0.36740  0.01140  Biso   1.000  C
  C16      1.0000 0.08940  0.63260  0.98860  Biso   1.000  C
  H15      1.0000 0.90990  0.32370  0.97690  Biso   1.000  H
  H16      1.0000 0.09010  0.67630  0.02310  Biso   1.000  H
  C17      1.0000 0.80570  0.43160  0.02510  Biso   1.000  C
  C18      1.0000 0.19430  0.56840  0.97490  Biso   1.000  C
  H17      1.0000 0.71930  0.44060  0.00160  Biso   1.000  H
  H18      1.0000 0.28070  0.55940  0.99840  Biso   1.000  H
  C19      1.0000 0.06520  0.27210  0.19950  Biso   1.000  C
  C20      1.0000 0.93480  0.72790  0.80050  Biso   1.000  C
  H19      1.0000 0.96560  0.26190  0.18720  Biso   1.000  H
  H20      1.0000 0.03440  0.73810  0.81280  Biso   1.000  H
  C21      1.0000 0.14830  0.19230  0.21870  Biso   1.000  C
  C22      1.0000 0.85170  0.80770  0.78130  Biso   1.000  C
  H21      1.0000 0.11700  0.11920  0.22160  Biso   1.000  H
  H22      1.0000 0.88300  0.88080  0.77840  Biso   1.000  H
  C23      1.0000 0.28290  0.23920  0.23260  Biso   1.000  C
  C24      1.0000 0.71710  0.76080  0.76740  Biso   1.000  C
  H23      1.0000 0.36350  0.20500  0.24770  Biso   1.000  H
  H24      1.0000 0.63650  0.79500  0.75230  Biso   1.000  H
  C25      1.0000 0.15090  0.42330  0.37060  Biso   1.000  C
  C26      1.0000 0.84910  0.57670  0.62940  Biso   1.000  C
  H25      1.0000 0.10230  0.43210  0.33280  Biso   1.000  H
  H26      1.0000 0.89770  0.56790  0.66720  Biso   1.000  H
  C27      1.0000 0.11290  0.34860  0.41160  Biso   1.000  C
  C28      1.0000 0.88710  0.65140  0.58840  Biso   1.000  C
  H27      1.0000 0.03700  0.29320  0.40690  Biso   1.000  H
  H28      1.0000 0.96300  0.70680  0.59310  Biso   1.000  H
  C29      1.0000 0.21230  0.37160  0.46320  Biso   1.000  C
  C30      1.0000 0.78770  0.62840  0.53680  Biso   1.000  C
  H29      1.0000 0.21020  0.33580  0.49990  Biso   1.000  H
  H30      1.0000 0.78980  0.66420  0.50010  Biso   1.000  H
  C31      1.0000 0.59820  0.38140  0.39070  Biso   1.000  C
  C32      1.0000 0.40180  0.61860  0.60930  Biso   1.000  C
  H31      1.0000 0.54460  0.42000  0.36250  Biso   1.000  H
  H32      1.0000 0.45540  0.58000  0.63750  Biso   1.000  H
  C33      1.0000 0.68260  0.30220  0.37570  Biso   1.000  C
  C34      1.0000 0.31740  0.69780  0.62430  Biso   1.000  C
  H33      1.0000 0.69810  0.27730  0.33710  Biso   1.000  H
  H34      1.0000 0.30190  0.72270  0.66290  Biso   1.000  H
  C35      1.0000 0.73950  0.26740  0.43060  Biso   1.000  C
  C36      1.0000 0.26050  0.73260  0.56940  Biso   1.000  C
  H35      1.0000 0.80250  0.21340  0.43660  Biso   1.000  H
  H36      1.0000 0.19750  0.78660  0.56340  Biso   1.000  H
  C37      1.0000 0.24370  0.07520  0.42430  Biso   1.000  C
  C38      1.0000 0.75630  0.92480  0.57570  Biso   1.000  C
  H37      1.0000 0.18670  0.06610  0.38760  Biso   1.000  H
  H38      1.0000 0.81330  0.93390  0.61240  Biso   1.000  H
  C39      1.0000 0.38680  0.11720  0.43090  Biso   1.000  C
  C40      1.0000 0.61320  0.88280  0.56910  Biso   1.000  C
  H39      1.0000 0.44430  0.14260  0.40030  Biso   1.000  H
  H40      1.0000 0.55570  0.85740  0.59970  Biso   1.000  H
  C41      1.0000 0.42690  0.11450  0.48870  Biso   1.000  C
  C42      1.0000 0.57310  0.88550  0.51130  Biso   1.000  C
  H41      1.0000 0.52040  0.13630  0.50640  Biso   1.000  H
  H42      1.0000 0.47960  0.86370  0.49360  Biso   1.000  H
  Cu1      1.0000 0.50000  0.00000  0.00000  Biso   1.000  Cu
  Cu2      1.0000 0.08567  0.51007  0.17583  Biso   1.000  Cu
  Cu3      1.0000 0.91433  0.48993  0.82417  Biso   1.000  Cu
  Cu4      1.0000 0.50000  0.50000  0.50000  Biso   1.000  Cu
  Cu5      1.0000 0.00000  0.00000  0.50000  Biso   1.000  Cu
  N1       1.0000 0.68870  0.93290  0.00860  Biso   1.000  N
  N2       1.0000 0.31130  0.06710  0.99140  Biso   1.000  N
  N3       1.0000 0.79640  0.93660  0.97130  Biso   1.000  N
  N4       1.0000 0.20360  0.06340  0.02870  Biso   1.000  N
  H43      1.0000 0.79830  0.97310  0.93840  Biso   1.000  H
  H44      1.0000 0.20170  0.02690  0.06160  Biso   1.000  H
  N5       1.0000 0.57880  0.12100  0.06030  Biso   1.000  N
  N6       1.0000 0.42120  0.87900  0.93970  Biso   1.000  N
  N7       1.0000 0.54060  0.22280  0.05740  Biso   1.000  N
  N8       1.0000 0.45940  0.77720  0.94260  Biso   1.000  N
  H45      1.0000 0.49920  0.25040  0.02580  Biso   1.000  H
  H46      1.0000 0.50080  0.74960  0.97420  Biso   1.000  H
  N9       1.0000 0.98220  0.44840  0.10060  Biso   1.000  N
  N10      1.0000 0.01780  0.55160  0.89940  Biso   1.000  N
  N11      1.0000 0.85030  0.47930  0.07880  Biso   1.000  N
  N12      1.0000 0.14970  0.52070  0.92120  Biso   1.000  N
  H47      1.0000 0.80170  0.52380  0.09710  Biso   1.000  H
  H48      1.0000 0.19830  0.47620  0.90290  Biso   1.000  H
  N13      1.0000 0.14510  0.36510  0.20060  Biso   1.000  N
  N14      1.0000 0.85490  0.63490  0.79940  Biso   1.000  N
  N15      1.0000 0.28160  0.34410  0.22080  Biso   1.000  N
  N16      1.0000 0.71840  0.65590  0.77920  Biso   1.000  N
  H49      1.0000 0.35660  0.39140  0.22550  Biso   1.000  H
  H50      1.0000 0.64340  0.60860  0.77450  Biso   1.000  H
  N17      1.0000 0.30960  0.45350  0.45060  Biso   1.000  N
  N18      1.0000 0.69040  0.54650  0.54940  Biso   1.000  N
  N19      1.0000 0.27100  0.48240  0.39430  Biso   1.000  N
  N20      1.0000 0.72900  0.51760  0.60570  Biso   1.000  N
  H51      1.0000 0.31800  0.53320  0.37540  Biso   1.000  H
  H52      1.0000 0.68200  0.46680  0.62460  Biso   1.000  H
  N21      1.0000 0.60100  0.39720  0.44960  Biso   1.000  N
  N22      1.0000 0.39900  0.60280  0.55040  Biso   1.000  N
  N23      1.0000 0.68760  0.32560  0.47370  Biso   1.000  N
  N24      1.0000 0.31240  0.67440  0.52630  Biso   1.000  N
  H53      1.0000 0.70720  0.31800  0.51200  Biso   1.000  H
  H54      1.0000 0.29280  0.68200  0.48800  Biso   1.000  H
  N25      1.0000 0.19690  0.04880  0.47930  Biso   1.000  N
  N26      1.0000 0.80310  0.95120  0.52070  Biso   1.000  N
  N27      1.0000 0.31310  0.07560  0.51840  Biso   1.000  N
  N28      1.0000 0.68690  0.92440  0.48160  Biso   1.000  N
  H55      1.0000 0.31450  0.06890  0.55720  Biso   1.000  H
  H56      1.0000 0.68550  0.93110  0.44280  Biso   1.000  H
  O47      1.0000 0.23640  0.76710  0.41320  Biso   1.000  O
  O48      1.0000 0.76360  0.23290  0.58680  Biso   1.000  O
  O49      1.0000 0.02720  0.67690  0.32730  Biso   1.000  O
  O50      1.0000 0.97280  0.32310  0.67270  Biso   1.000  O
  O51      1.0000 0.01100  0.90110  0.29600  Biso   1.000  O
  O52      1.0000 0.98900  0.09890  0.70400  Biso   1.000  O
  O53      1.0000 0.88340  0.02950  0.38560  Biso   1.000  O
  O54      1.0000 0.11660  0.97050  0.61440  Biso   1.000  O
  O55      1.0000 0.01690  0.85420  0.46530  Biso   1.000  O
  O56      1.0000 0.98310  0.14580  0.53470  Biso   1.000  O
  H57      1.0000 0.08790  0.85660  0.44490  Biso   1.000  H
  H58      1.0000 0.91210  0.14340  0.55510  Biso   1.000  H
  O57      1.0000 0.01580  0.65490  0.15250  Biso   1.000  O
  O58      1.0000 0.98420  0.34510  0.84750  Biso   1.000  O
  H59      1.0000 0.96500  0.67530  0.17850  Biso   1.000  H
  H60      1.0000 0.03500  0.32470  0.82150  Biso   1.000  H
