data_image0
_cell_length_a       14.751
_cell_length_b       21.635
_cell_length_c       16.489
_cell_angle_alpha    90
_cell_angle_beta     110.343
_cell_angle_gamma    90

_symmetry_space_group_name_H-M    "P 1"
_symmetry_int_tables_number       1

loop_
  _symmetry_equiv_pos_as_xyz
  'x, y, z'

loop_
  _atom_site_label
  _atom_site_occupancy
  _atom_site_fract_x
  _atom_site_fract_y
  _atom_site_fract_z
  _atom_site_thermal_displace_type
  _atom_site_B_iso_or_equiv
  _atom_site_type_symbol
  P1       1.0000 0.13648  0.19788  0.35185  Biso   1.000  P
  P2       1.0000 0.36352  0.69788  0.14815  Biso   1.000  P
  P3       1.0000 0.86352  0.80212  0.64815  Biso   1.000  P
  P4       1.0000 0.63648  0.30212  0.85185  Biso   1.000  P
  P5       1.0000 0.87130  0.23878  0.22853  Biso   1.000  P
  P6       1.0000 0.62870  0.73878  0.27147  Biso   1.000  P
  P7       1.0000 0.12870  0.76122  0.77147  Biso   1.000  P
  P8       1.0000 0.37130  0.26122  0.72853  Biso   1.000  P
  Mo1      1.0000 0.06155  0.34750  0.32759  Biso   1.000  Mo
  Mo2      1.0000 0.43845  0.84750  0.17241  Biso   1.000  Mo
  Mo3      1.0000 0.93845  0.65250  0.67241  Biso   1.000  Mo
  Mo4      1.0000 0.56155  0.15250  0.82759  Biso   1.000  Mo
  Mo5      1.0000 0.98350  0.25060  0.45262  Biso   1.000  Mo
  Mo6      1.0000 0.51650  0.75060  0.04738  Biso   1.000  Mo
  Mo7      1.0000 0.01650  0.74940  0.54738  Biso   1.000  Mo
  Mo8      1.0000 0.48350  0.24940  0.95262  Biso   1.000  Mo
  Mo9      1.0000 0.92849  0.11033  0.35391  Biso   1.000  Mo
  Mo10     1.0000 0.57151  0.61033  0.14609  Biso   1.000  Mo
  Mo11     1.0000 0.07151  0.88967  0.64609  Biso   1.000  Mo
  Mo12     1.0000 0.42849  0.38967  0.85391  Biso   1.000  Mo
  Mo13     1.0000 0.00862  0.11139  0.18506  Biso   1.000  Mo
  Mo14     1.0000 0.49138  0.61139  0.31494  Biso   1.000  Mo
  Mo15     1.0000 0.99138  0.88861  0.81494  Biso   1.000  Mo
  Mo16     1.0000 0.50862  0.38861  0.68506  Biso   1.000  Mo
  Mo17     1.0000 0.04666  0.27413  0.14432  Biso   1.000  Mo
  Mo18     1.0000 0.45334  0.77413  0.35568  Biso   1.000  Mo
  Mo19     1.0000 0.95334  0.72587  0.85568  Biso   1.000  Mo
  Mo20     1.0000 0.54666  0.22587  0.64432  Biso   1.000  Mo
  O1       1.0000 0.98890  0.40840  0.33010  Biso   1.000  O
  O2       1.0000 0.51110  0.90840  0.16990  Biso   1.000  O
  O3       1.0000 0.01110  0.59160  0.66990  Biso   1.000  O
  O4       1.0000 0.48890  0.09160  0.83010  Biso   1.000  O
  O5       1.0000 0.17560  0.37750  0.36180  Biso   1.000  O
  O6       1.0000 0.32440  0.87750  0.13820  Biso   1.000  O
  O7       1.0000 0.82440  0.62250  0.63820  Biso   1.000  O
  O8       1.0000 0.67560  0.12250  0.86180  Biso   1.000  O
  O9       1.0000 0.03640  0.34790  0.20520  Biso   1.000  O
  O10      1.0000 0.46360  0.84790  0.29480  Biso   1.000  O
  O11      1.0000 0.96360  0.65210  0.79480  Biso   1.000  O
  O12      1.0000 0.53640  0.15210  0.70520  Biso   1.000  O
  O13      1.0000 0.10000  0.25470  0.29260  Biso   1.000  O
  O14      1.0000 0.40000  0.75470  0.20740  Biso   1.000  O
  O15      1.0000 0.90000  0.74530  0.70740  Biso   1.000  O
  O16      1.0000 0.60000  0.24530  0.79260  Biso   1.000  O
  O17      1.0000 0.92190  0.28110  0.30650  Biso   1.000  O
  O18      1.0000 0.57810  0.78110  0.19350  Biso   1.000  O
  O19      1.0000 0.07810  0.71890  0.69350  Biso   1.000  O
  O20      1.0000 0.42190  0.21890  0.80650  Biso   1.000  O
  O21      1.0000 0.07460  0.30630  0.43530  Biso   1.000  O
  O22      1.0000 0.42540  0.80630  0.06470  Biso   1.000  O
  O23      1.0000 0.92540  0.69370  0.56470  Biso   1.000  O
  O24      1.0000 0.57460  0.19370  0.93530  Biso   1.000  O
  O25      1.0000 0.90110  0.29880  0.47050  Biso   1.000  O
  O26      1.0000 0.59890  0.79880  0.02950  Biso   1.000  O
  O27      1.0000 0.09890  0.70120  0.52950  Biso   1.000  O
  O28      1.0000 0.40110  0.20120  0.97050  Biso   1.000  O
  O29      1.0000 0.04800  0.22600  0.55470  Biso   1.000  O
  O30      1.0000 0.45200  0.72600  0.94530  Biso   1.000  O
  O31      1.0000 0.95200  0.77400  0.44530  Biso   1.000  O
  O32      1.0000 0.54800  0.27400  0.05470  Biso   1.000  O
  O33      1.0000 0.89550  0.18420  0.40540  Biso   1.000  O
  O34      1.0000 0.60450  0.68420  0.09460  Biso   1.000  O
  O35      1.0000 0.10450  0.81580  0.59460  Biso   1.000  O
  O36      1.0000 0.39550  0.31580  0.90540  Biso   1.000  O
  O37      1.0000 0.06510  0.18310  0.39940  Biso   1.000  O
  O38      1.0000 0.43490  0.68310  0.10060  Biso   1.000  O
  O39      1.0000 0.93490  0.81690  0.60060  Biso   1.000  O
  O40      1.0000 0.56510  0.31690  0.89940  Biso   1.000  O
  O41      1.0000 0.98800  0.06750  0.44350  Biso   1.000  O
  O42      1.0000 0.51200  0.56750  0.05650  Biso   1.000  O
  O43      1.0000 0.01200  0.93250  0.55650  Biso   1.000  O
  O44      1.0000 0.48800  0.43250  0.94350  Biso   1.000  O
  O45      1.0000 0.81630  0.07900  0.31520  Biso   1.000  O
  O46      1.0000 0.68370  0.57900  0.18480  Biso   1.000  O
  O47      1.0000 0.18370  0.92100  0.68480  Biso   1.000  O
  O48      1.0000 0.31630  0.42100  0.81520  Biso   1.000  O
  O49      1.0000 0.98940  0.07060  0.28060  Biso   1.000  O
  O50      1.0000 0.51060  0.57060  0.21940  Biso   1.000  O
  O51      1.0000 0.01060  0.92940  0.71940  Biso   1.000  O
  O52      1.0000 0.48940  0.42940  0.78060  Biso   1.000  O
  O53      1.0000 0.91690  0.17280  0.24510  Biso   1.000  O
  O54      1.0000 0.58310  0.67280  0.25490  Biso   1.000  O
  O55      1.0000 0.08310  0.82720  0.75490  Biso   1.000  O
  O56      1.0000 0.41690  0.32720  0.74510  Biso   1.000  O
  O57      1.0000 0.90130  0.09340  0.10270  Biso   1.000  O
  O58      1.0000 0.59870  0.59340  0.39730  Biso   1.000  O
  O59      1.0000 0.09870  0.90660  0.89730  Biso   1.000  O
  O60      1.0000 0.40130  0.40660  0.60270  Biso   1.000  O
  O61      1.0000 0.08700  0.05960  0.16830  Biso   1.000  O
  O62      1.0000 0.41300  0.55960  0.33170  Biso   1.000  O
  O63      1.0000 0.91300  0.94040  0.83170  Biso   1.000  O
  O64      1.0000 0.58700  0.44040  0.66830  Biso   1.000  O
  O65      1.0000 0.03270  0.18680  0.13990  Biso   1.000  O
  O66      1.0000 0.46730  0.68680  0.36010  Biso   1.000  O
  O67      1.0000 0.96730  0.81320  0.86010  Biso   1.000  O
  O68      1.0000 0.53270  0.31320  0.63990  Biso   1.000  O
  O69      1.0000 0.13910  0.14350  0.29510  Biso   1.000  O
  O70      1.0000 0.36090  0.64350  0.20490  Biso   1.000  O
  O71      1.0000 0.86090  0.85650  0.70490  Biso   1.000  O
  O72      1.0000 0.63910  0.35650  0.79510  Biso   1.000  O
  O73      1.0000 0.97800  0.29490  0.04080  Biso   1.000  O
  O74      1.0000 0.52200  0.79490  0.45920  Biso   1.000  O
  O75      1.0000 0.02200  0.70510  0.95920  Biso   1.000  O
  O76      1.0000 0.47800  0.20510  0.54080  Biso   1.000  O
  O77      1.0000 0.16020  0.28010  0.14400  Biso   1.000  O
  O78      1.0000 0.33980  0.78010  0.35600  Biso   1.000  O
  O79      1.0000 0.83980  0.71990  0.85600  Biso   1.000  O
  O80      1.0000 0.66020  0.21990  0.64400  Biso   1.000  O
  O81      1.0000 0.76470  0.23690  0.20770  Biso   1.000  O
  O82      1.0000 0.73530  0.73690  0.29230  Biso   1.000  O
  O83      1.0000 0.23530  0.76310  0.79230  Biso   1.000  O
  O84      1.0000 0.26470  0.26310  0.70770  Biso   1.000  O
  O85      1.0000 0.89230  0.26490  0.15030  Biso   1.000  O
  O86      1.0000 0.60770  0.76490  0.34970  Biso   1.000  O
  O87      1.0000 0.10770  0.73510  0.84970  Biso   1.000  O
  O88      1.0000 0.39230  0.23510  0.65030  Biso   1.000  O
  O89      1.0000 0.23600  0.21140  0.41540  Biso   1.000  O
  O90      1.0000 0.26400  0.71140  0.08460  Biso   1.000  O
  O91      1.0000 0.76400  0.78860  0.58460  Biso   1.000  O
  O92      1.0000 0.73600  0.28860  0.91540  Biso   1.000  O
  Cu1      1.0000 0.64577  0.23751  0.23186  Biso   1.000  Cu
  Cu2      1.0000 0.85423  0.73751  0.26814  Biso   1.000  Cu
  Cu3      1.0000 0.35423  0.76249  0.76814  Biso   1.000  Cu
  Cu4      1.0000 0.14577  0.26249  0.73186  Biso   1.000  Cu
  Cu5      1.0000 0.79776  0.28116  0.03719  Biso   1.000  Cu
  Cu6      1.0000 0.70224  0.78116  0.46281  Biso   1.000  Cu
  Cu7      1.0000 0.20224  0.71884  0.96281  Biso   1.000  Cu
  Cu8      1.0000 0.29776  0.21884  0.53719  Biso   1.000  Cu
  Cu9      1.0000 0.20250  0.98561  0.20232  Biso   1.000  Cu
  Cu10     1.0000 0.29750  0.48561  0.29768  Biso   1.000  Cu
  Cu11     1.0000 0.79750  0.01439  0.79768  Biso   1.000  Cu
  Cu12     1.0000 0.70250  0.51439  0.70232  Biso   1.000  Cu
  N1       1.0000 0.51370  0.23810  0.24010  Biso   1.000  N
  N2       1.0000 0.98630  0.73810  0.25990  Biso   1.000  N
  N3       1.0000 0.48630  0.76190  0.75990  Biso   1.000  N
  N4       1.0000 0.01370  0.26190  0.74010  Biso   1.000  N
  N5       1.0000 0.43540  0.23140  0.16940  Biso   1.000  N
  N6       1.0000 0.06460  0.73140  0.33060  Biso   1.000  N
  N7       1.0000 0.56460  0.76860  0.83060  Biso   1.000  N
  N8       1.0000 0.93540  0.26860  0.66940  Biso   1.000  N
  H1       1.0000 0.43360  0.23160  0.11670  Biso   1.000  H
  H2       1.0000 0.06640  0.73160  0.38330  Biso   1.000  H
  H3       1.0000 0.56640  0.76840  0.88330  Biso   1.000  H
  H4       1.0000 0.93360  0.26840  0.61670  Biso   1.000  H
  N9       1.0000 0.66180  0.32780  0.25950  Biso   1.000  N
  N10      1.0000 0.83820  0.82780  0.24050  Biso   1.000  N
  N11      1.0000 0.33820  0.67220  0.74050  Biso   1.000  N
  N12      1.0000 0.16180  0.17220  0.75950  Biso   1.000  N
  N13      1.0000 0.74680  0.35690  0.28160  Biso   1.000  N
  N14      1.0000 0.75320  0.85690  0.21840  Biso   1.000  N
  N15      1.0000 0.25320  0.64310  0.71840  Biso   1.000  N
  N16      1.0000 0.24680  0.14310  0.78160  Biso   1.000  N
  H5       1.0000 0.80160  0.33840  0.29450  Biso   1.000  H
  H6       1.0000 0.69840  0.83840  0.20550  Biso   1.000  H
  H7       1.0000 0.19840  0.66160  0.70550  Biso   1.000  H
  H8       1.0000 0.30160  0.16160  0.79450  Biso   1.000  H
  N17      1.0000 0.62180  0.15160  0.18650  Biso   1.000  N
  N18      1.0000 0.87820  0.65160  0.31350  Biso   1.000  N
  N19      1.0000 0.37820  0.84840  0.81350  Biso   1.000  N
  N20      1.0000 0.12180  0.34840  0.68650  Biso   1.000  N
  N21      1.0000 0.57800  0.10510  0.20800  Biso   1.000  N
  N22      1.0000 0.92200  0.60510  0.29200  Biso   1.000  N
  N23      1.0000 0.42200  0.89490  0.79200  Biso   1.000  N
  N24      1.0000 0.07800  0.39490  0.70800  Biso   1.000  N
  H9       1.0000 0.55850  0.10500  0.25150  Biso   1.000  H
  H10      1.0000 0.94150  0.60500  0.24850  Biso   1.000  H
  H11      1.0000 0.44150  0.89500  0.74850  Biso   1.000  H
  H12      1.0000 0.05850  0.39500  0.75150  Biso   1.000  H
  N25      1.0000 0.77930  0.36810  0.06470  Biso   1.000  N
  N26      1.0000 0.72070  0.86810  0.43530  Biso   1.000  N
  N27      1.0000 0.22070  0.63190  0.93530  Biso   1.000  N
  N28      1.0000 0.27930  0.13190  0.56470  Biso   1.000  N
  N29      1.0000 0.69410  0.39650  0.03990  Biso   1.000  N
  N30      1.0000 0.80590  0.89650  0.46010  Biso   1.000  N
  N31      1.0000 0.30590  0.60350  0.96010  Biso   1.000  N
  N32      1.0000 0.19410  0.10350  0.53990  Biso   1.000  N
  H13      1.0000 0.64040  0.37980  0.00880  Biso   1.000  H
  H14      1.0000 0.85960  0.87980  0.49120  Biso   1.000  H
  H15      1.0000 0.35960  0.62020  0.99120  Biso   1.000  H
  H16      1.0000 0.14040  0.12020  0.50880  Biso   1.000  H
  N33      1.0000 0.10530  0.92870  0.12300  Biso   1.000  N
  N34      1.0000 0.39470  0.42870  0.37700  Biso   1.000  N
  N35      1.0000 0.89470  0.07130  0.87700  Biso   1.000  N
  N36      1.0000 0.60530  0.57130  0.62300  Biso   1.000  N
  N37      1.0000 0.12150  0.86960  0.10710  Biso   1.000  N
  N38      1.0000 0.37850  0.36960  0.39290  Biso   1.000  N
  N39      1.0000 0.87850  0.13040  0.89290  Biso   1.000  N
  N40      1.0000 0.62150  0.63040  0.60710  Biso   1.000  N
  H17      1.0000 0.17730  0.85210  0.12500  Biso   1.000  H
  H18      1.0000 0.32270  0.35210  0.37500  Biso   1.000  H
  H19      1.0000 0.82270  0.14790  0.87500  Biso   1.000  H
  H20      1.0000 0.67730  0.64790  0.62500  Biso   1.000  H
  N41      1.0000 0.24620  0.01470  0.10740  Biso   1.000  N
  N42      1.0000 0.25380  0.51470  0.39260  Biso   1.000  N
  N43      1.0000 0.75380  0.98530  0.89260  Biso   1.000  N
  N44      1.0000 0.74620  0.48530  0.60740  Biso   1.000  N
  N45      1.0000 0.21400  0.99180  0.02610  Biso   1.000  N
  N46      1.0000 0.28600  0.49180  0.47390  Biso   1.000  N
  N47      1.0000 0.78600  0.00820  0.97390  Biso   1.000  N
  N48      1.0000 0.71400  0.50820  0.52610  Biso   1.000  N
  H21      1.0000 0.17560  0.96060  0.01100  Biso   1.000  H
  H22      1.0000 0.32440  0.46060  0.48900  Biso   1.000  H
  H23      1.0000 0.82440  0.03940  0.98900  Biso   1.000  H
  H24      1.0000 0.67560  0.53940  0.51100  Biso   1.000  H
  N49      1.0000 0.31680  0.02820  0.28780  Biso   1.000  N
  N50      1.0000 0.18320  0.52820  0.21220  Biso   1.000  N
  N51      1.0000 0.68320  0.97180  0.71220  Biso   1.000  N
  N52      1.0000 0.81680  0.47180  0.78780  Biso   1.000  N
  N53      1.0000 0.30710  0.07500  0.33580  Biso   1.000  N
  N54      1.0000 0.19290  0.57500  0.16420  Biso   1.000  N
  N55      1.0000 0.69290  0.92500  0.66420  Biso   1.000  N
  N56      1.0000 0.80710  0.42500  0.83580  Biso   1.000  N
  H25      1.0000 0.25430  0.09490  0.32810  Biso   1.000  H
  H26      1.0000 0.24570  0.59490  0.17190  Biso   1.000  H
  H27      1.0000 0.74570  0.90510  0.67190  Biso   1.000  H
  H28      1.0000 0.75430  0.40510  0.82810  Biso   1.000  H
  N57      1.0000 0.17410  0.95020  0.30210  Biso   1.000  N
  N58      1.0000 0.32590  0.45020  0.19790  Biso   1.000  N
  N59      1.0000 0.82590  0.04980  0.69790  Biso   1.000  N
  N60      1.0000 0.67410  0.54980  0.80210  Biso   1.000  N
  N61      1.0000 0.11260  0.97100  0.33910  Biso   1.000  N
  N62      1.0000 0.38740  0.47100  0.16090  Biso   1.000  N
  N63      1.0000 0.88740  0.02900  0.66090  Biso   1.000  N
  N64      1.0000 0.61260  0.52900  0.83910  Biso   1.000  N
  H29      1.0000 0.07760  0.00350  0.32230  Biso   1.000  H
  H30      1.0000 0.42240  0.50350  0.17770  Biso   1.000  H
  H31      1.0000 0.92240  0.99650  0.67770  Biso   1.000  H
  H32      1.0000 0.57760  0.49650  0.82230  Biso   1.000  H
  C1       1.0000 0.48930  0.23180  0.30610  Biso   1.000  C
  C2       1.0000 0.01070  0.73180  0.19390  Biso   1.000  C
  C3       1.0000 0.51070  0.76820  0.69390  Biso   1.000  C
  C4       1.0000 0.98930  0.26820  0.80610  Biso   1.000  C
  H33      1.0000 0.53110  0.23160  0.36320  Biso   1.000  H
  H34      1.0000 0.96890  0.73160  0.13680  Biso   1.000  H
  H35      1.0000 0.46890  0.76840  0.63680  Biso   1.000  H
  H36      1.0000 0.03110  0.26840  0.86320  Biso   1.000  H
  C5       1.0000 0.38500  0.22500  0.27750  Biso   1.000  C
  C6       1.0000 0.11500  0.72500  0.22250  Biso   1.000  C
  C7       1.0000 0.61500  0.77500  0.72250  Biso   1.000  C
  C8       1.0000 0.88500  0.27500  0.77750  Biso   1.000  C
  H37      1.0000 0.34610  0.22190  0.31120  Biso   1.000  H
  H38      1.0000 0.15390  0.72190  0.18880  Biso   1.000  H
  H39      1.0000 0.65390  0.77810  0.68880  Biso   1.000  H
  H40      1.0000 0.84610  0.27810  0.81120  Biso   1.000  H
  C9       1.0000 0.35960  0.22430  0.19700  Biso   1.000  C
  C10      1.0000 0.14040  0.72430  0.30300  Biso   1.000  C
  C11      1.0000 0.64040  0.77570  0.80300  Biso   1.000  C
  C12      1.0000 0.85960  0.27570  0.69700  Biso   1.000  C
  H41      1.0000 0.29600  0.21950  0.15960  Biso   1.000  H
  H42      1.0000 0.20400  0.71950  0.34040  Biso   1.000  H
  H43      1.0000 0.70400  0.78050  0.84040  Biso   1.000  H
  H44      1.0000 0.79600  0.28050  0.65960  Biso   1.000  H
  C13      1.0000 0.59740  0.37140  0.24570  Biso   1.000  C
  C14      1.0000 0.90260  0.87140  0.25430  Biso   1.000  C
  C15      1.0000 0.40260  0.62860  0.75430  Biso   1.000  C
  C16      1.0000 0.09740  0.12860  0.74570  Biso   1.000  C
  H45      1.0000 0.53120  0.36460  0.22910  Biso   1.000  H
  H46      1.0000 0.96880  0.86460  0.27090  Biso   1.000  H
  H47      1.0000 0.46880  0.63540  0.77090  Biso   1.000  H
  H48      1.0000 0.03120  0.13540  0.72910  Biso   1.000  H
  C17      1.0000 0.64040  0.43010  0.25900  Biso   1.000  C
  C18      1.0000 0.85960  0.93010  0.24100  Biso   1.000  C
  C19      1.0000 0.35960  0.56990  0.74100  Biso   1.000  C
  C20      1.0000 0.14040  0.06990  0.75900  Biso   1.000  C
  H49      1.0000 0.61070  0.46850  0.25400  Biso   1.000  H
  H50      1.0000 0.88930  0.96850  0.24600  Biso   1.000  H
  H51      1.0000 0.38930  0.53150  0.74600  Biso   1.000  H
  H52      1.0000 0.11070  0.03150  0.75400  Biso   1.000  H
  C21      1.0000 0.73670  0.41700  0.28100  Biso   1.000  C
  C22      1.0000 0.76330  0.91700  0.21900  Biso   1.000  C
  C23      1.0000 0.26330  0.58300  0.71900  Biso   1.000  C
  C24      1.0000 0.23670  0.08300  0.78100  Biso   1.000  C
  H53      1.0000 0.78640  0.44590  0.29350  Biso   1.000  H
  H54      1.0000 0.71360  0.94590  0.20650  Biso   1.000  H
  H55      1.0000 0.21360  0.55410  0.70650  Biso   1.000  H
  H56      1.0000 0.28640  0.05410  0.79350  Biso   1.000  H
  C25      1.0000 0.64050  0.13460  0.11890  Biso   1.000  C
  C26      1.0000 0.85950  0.63460  0.38110  Biso   1.000  C
  C27      1.0000 0.35950  0.86540  0.88110  Biso   1.000  C
  C28      1.0000 0.14050  0.36540  0.61890  Biso   1.000  C
  H57      1.0000 0.67330  0.15840  0.09100  Biso   1.000  H
  H58      1.0000 0.82670  0.65840  0.40900  Biso   1.000  H
  H59      1.0000 0.32670  0.84160  0.90900  Biso   1.000  H
  H60      1.0000 0.17330  0.34160  0.59100  Biso   1.000  H
  C29      1.0000 0.60820  0.08160  0.09660  Biso   1.000  C
  C30      1.0000 0.89180  0.58160  0.40340  Biso   1.000  C
  C31      1.0000 0.39180  0.91840  0.90340  Biso   1.000  C
  C32      1.0000 0.10820  0.41840  0.59660  Biso   1.000  C
  H61      1.0000 0.61190  0.06190  0.04770  Biso   1.000  H
  H62      1.0000 0.88810  0.56190  0.45230  Biso   1.000  H
  H63      1.0000 0.38810  0.93810  0.95230  Biso   1.000  H
  H64      1.0000 0.11190  0.43810  0.54770  Biso   1.000  H
  C33      1.0000 0.56720  0.05520  0.15010  Biso   1.000  C
  C34      1.0000 0.93280  0.55520  0.34990  Biso   1.000  C
  C35      1.0000 0.43280  0.94480  0.84990  Biso   1.000  C
  C36      1.0000 0.06720  0.44480  0.65010  Biso   1.000  C
  H65      1.0000 0.54020  0.01620  0.14900  Biso   1.000  H
  H66      1.0000 0.95980  0.51620  0.35100  Biso   1.000  H
  H67      1.0000 0.45980  0.98380  0.85100  Biso   1.000  H
  H68      1.0000 0.04020  0.48380  0.64900  Biso   1.000  H
  C37      1.0000 0.84410  0.40850  0.10810  Biso   1.000  C
  C38      1.0000 0.65590  0.90850  0.39190  Biso   1.000  C
  C39      1.0000 0.15590  0.59150  0.89190  Biso   1.000  C
  C40      1.0000 0.34410  0.09150  0.60810  Biso   1.000  C
  H69      1.0000 0.91030  0.40160  0.13250  Biso   1.000  H
  H70      1.0000 0.58970  0.90160  0.36750  Biso   1.000  H
  H71      1.0000 0.08970  0.59840  0.86750  Biso   1.000  H
  H72      1.0000 0.41030  0.09840  0.63250  Biso   1.000  H
  C41      1.0000 0.79560  0.46460  0.11130  Biso   1.000  C
  C42      1.0000 0.70440  0.96460  0.38870  Biso   1.000  C
  C43      1.0000 0.20440  0.53540  0.88870  Biso   1.000  C
  C44      1.0000 0.29560  0.03540  0.61130  Biso   1.000  C
  H73      1.0000 0.82350  0.50130  0.13770  Biso   1.000  H
  H74      1.0000 0.67650  0.00130  0.36230  Biso   1.000  H
  H75      1.0000 0.17650  0.49870  0.86230  Biso   1.000  H
  H76      1.0000 0.32350  0.99870  0.63770  Biso   1.000  H
  C45      1.0000 0.70270  0.45390  0.06920  Biso   1.000  C
  C46      1.0000 0.79730  0.95390  0.43080  Biso   1.000  C
  C47      1.0000 0.29730  0.54610  0.93080  Biso   1.000  C
  C48      1.0000 0.20270  0.04610  0.56920  Biso   1.000  C
  H77      1.0000 0.65240  0.48180  0.06160  Biso   1.000  H
  H78      1.0000 0.84760  0.98180  0.43840  Biso   1.000  H
  H79      1.0000 0.34760  0.51820  0.93840  Biso   1.000  H
  H80      1.0000 0.15240  0.01820  0.56160  Biso   1.000  H
  C49      1.0000 0.01090  0.93710  0.08480  Biso   1.000  C
  C50      1.0000 0.48910  0.43710  0.41520  Biso   1.000  C
  C51      1.0000 0.98910  0.06290  0.91520  Biso   1.000  C
  C52      1.0000 0.51090  0.56290  0.58480  Biso   1.000  C
  H81      1.0000 0.97760  0.97370  0.08420  Biso   1.000  H
  H82      1.0000 0.52240  0.47370  0.41580  Biso   1.000  H
  H83      1.0000 0.02240  0.02630  0.91580  Biso   1.000  H
  H84      1.0000 0.47760  0.52630  0.58420  Biso   1.000  H
  C53      1.0000 0.96980  0.88150  0.04560  Biso   1.000  C
  C54      1.0000 0.53020  0.38150  0.45440  Biso   1.000  C
  C55      1.0000 0.03020  0.11850  0.95440  Biso   1.000  C
  C56      1.0000 0.46980  0.61850  0.54560  Biso   1.000  C
  H85      1.0000 0.90470  0.87410  0.01490  Biso   1.000  H
  H86      1.0000 0.59530  0.37410  0.48510  Biso   1.000  H
  H87      1.0000 0.09530  0.12590  0.98510  Biso   1.000  H
  H88      1.0000 0.40470  0.62590  0.51490  Biso   1.000  H
  C57      1.0000 0.04060  0.84180  0.06050  Biso   1.000  C
  C58      1.0000 0.45940  0.34180  0.43950  Biso   1.000  C
  C59      1.0000 0.95940  0.15820  0.93950  Biso   1.000  C
  C60      1.0000 0.54060  0.65820  0.56050  Biso   1.000  C
  H89      1.0000 0.03480  0.80100  0.04160  Biso   1.000  H
  H90      1.0000 0.46520  0.30100  0.45840  Biso   1.000  H
  H91      1.0000 0.96520  0.19900  0.95840  Biso   1.000  H
  H92      1.0000 0.53480  0.69900  0.54160  Biso   1.000  H
  C61      1.0000 0.30390  0.06170  0.10470  Biso   1.000  C
  C62      1.0000 0.19610  0.56170  0.39530  Biso   1.000  C
  C63      1.0000 0.69610  0.93830  0.89530  Biso   1.000  C
  C64      1.0000 0.80390  0.43830  0.60470  Biso   1.000  C
  H93      1.0000 0.33770  0.08660  0.15140  Biso   1.000  H
  H94      1.0000 0.16230  0.58660  0.34860  Biso   1.000  H
  H95      1.0000 0.66230  0.91340  0.84860  Biso   1.000  H
  H96      1.0000 0.83770  0.41340  0.65140  Biso   1.000  H
  C65      1.0000 0.30560  0.06750  0.02040  Biso   1.000  C
  C66      1.0000 0.19440  0.56750  0.47960  Biso   1.000  C
  C67      1.0000 0.69440  0.93250  0.97960  Biso   1.000  C
  C68      1.0000 0.80560  0.43250  0.52040  Biso   1.000  C
  H97      1.0000 0.33980  0.09660  0.00110  Biso   1.000  H
  H98      1.0000 0.16020  0.59660  0.49890  Biso   1.000  H
  H99      1.0000 0.66020  0.90340  0.99890  Biso   1.000  H
  H100     1.0000 0.83980  0.40340  0.50110  Biso   1.000  H
  C69      1.0000 0.24640  0.02150  0.97180  Biso   1.000  C
  C70      1.0000 0.25360  0.52150  0.52820  Biso   1.000  C
  C71      1.0000 0.75360  0.97850  0.02820  Biso   1.000  C
  C72      1.0000 0.74640  0.47850  0.47180  Biso   1.000  C
  H101     1.0000 0.23240  0.01330  0.91340  Biso   1.000  H
  H102     1.0000 0.26760  0.51330  0.58660  Biso   1.000  H
  H103     1.0000 0.76760  0.98670  0.08660  Biso   1.000  H
  H104     1.0000 0.73240  0.48670  0.41340  Biso   1.000  H
  C73      1.0000 0.40560  0.00890  0.32120  Biso   1.000  C
  C74      1.0000 0.09440  0.50890  0.17880  Biso   1.000  C
  C75      1.0000 0.59440  0.99110  0.67880  Biso   1.000  C
  C76      1.0000 0.90560  0.49110  0.82120  Biso   1.000  C
  H105     1.0000 0.43110  0.97550  0.30090  Biso   1.000  H
  H106     1.0000 0.06890  0.47550  0.19910  Biso   1.000  H
  H107     1.0000 0.56890  0.02450  0.69910  Biso   1.000  H
  H108     1.0000 0.93110  0.52450  0.80090  Biso   1.000  H
  C77      1.0000 0.45670  0.04520  0.39090  Biso   1.000  C
  C78      1.0000 0.04330  0.54520  0.10910  Biso   1.000  C
  C79      1.0000 0.54330  0.95480  0.60910  Biso   1.000  C
  C80      1.0000 0.95670  0.45480  0.89090  Biso   1.000  C
  H109     1.0000 0.52150  0.04170  0.42530  Biso   1.000  H
  H110     1.0000 0.97850  0.54170  0.07470  Biso   1.000  H
  H111     1.0000 0.47850  0.95830  0.57470  Biso   1.000  H
  H112     1.0000 0.02150  0.45830  0.92530  Biso   1.000  H
  C81      1.0000 0.39190  0.08670  0.39810  Biso   1.000  C
  C82      1.0000 0.10810  0.58670  0.10190  Biso   1.000  C
  C83      1.0000 0.60810  0.91330  0.60190  Biso   1.000  C
  C84      1.0000 0.89190  0.41330  0.89810  Biso   1.000  C
  H113     1.0000 0.40390  0.11800  0.43910  Biso   1.000  H
  H114     1.0000 0.09610  0.61800  0.06090  Biso   1.000  H
  H115     1.0000 0.59610  0.88200  0.56090  Biso   1.000  H
  H116     1.0000 0.90390  0.38200  0.93910  Biso   1.000  H
  C85      1.0000 0.21170  0.89950  0.34580  Biso   1.000  C
  C86      1.0000 0.28830  0.39950  0.15420  Biso   1.000  C
  C87      1.0000 0.78830  0.10050  0.65420  Biso   1.000  C
  C88      1.0000 0.71170  0.60050  0.84580  Biso   1.000  C
  H117     1.0000 0.25640  0.87370  0.33460  Biso   1.000  H
  H118     1.0000 0.24360  0.37370  0.16540  Biso   1.000  H
  H119     1.0000 0.74360  0.12630  0.66540  Biso   1.000  H
  H120     1.0000 0.75640  0.62630  0.83460  Biso   1.000  H
  C89      1.0000 0.17270  0.89080  0.41240  Biso   1.000  C
  C90      1.0000 0.32730  0.39080  0.08760  Biso   1.000  C
  C91      1.0000 0.82730  0.10920  0.58760  Biso   1.000  C
  C92      1.0000 0.67270  0.60920  0.91240  Biso   1.000  C
  H121     1.0000 0.18750  0.85950  0.45350  Biso   1.000  H
  H122     1.0000 0.31250  0.35950  0.04650  Biso   1.000  H
  H123     1.0000 0.81250  0.14050  0.54650  Biso   1.000  H
  H124     1.0000 0.68750  0.64050  0.95350  Biso   1.000  H
  C93      1.0000 0.11130  0.93650  0.40360  Biso   1.000  C
  C94      1.0000 0.38870  0.43650  0.09640  Biso   1.000  C
  C95      1.0000 0.88870  0.06350  0.59640  Biso   1.000  C
  C96      1.0000 0.61130  0.56350  0.90360  Biso   1.000  C
  H125     1.0000 0.07340  0.94310  0.43750  Biso   1.000  H
  H126     1.0000 0.42660  0.44310  0.06250  Biso   1.000  H
  H127     1.0000 0.92660  0.05690  0.56250  Biso   1.000  H
  H128     1.0000 0.57340  0.55690  0.93750  Biso   1.000  H
  O93      1.0000 0.70820  0.20450  0.37910  Biso   1.000  O
  O94      1.0000 0.79180  0.70450  0.12090  Biso   1.000  O
  O95      1.0000 0.29180  0.79550  0.62090  Biso   1.000  O
  O96      1.0000 0.20820  0.29550  0.87910  Biso   1.000  O
  O97      1.0000 0.77770  0.19010  0.02390  Biso   1.000  O
  O98      1.0000 0.72230  0.69010  0.47610  Biso   1.000  O
  O99      1.0000 0.22230  0.80990  0.97610  Biso   1.000  O
  O100     1.0000 0.27770  0.30990  0.52390  Biso   1.000  O
