data_image0
_cell_length_a       16.142
_cell_length_b       13.9222
_cell_length_c       23.3927
_cell_angle_alpha    90
_cell_angle_beta     90
_cell_angle_gamma    90

_symmetry_space_group_name_H-M    "P 1"
_symmetry_int_tables_number       1

loop_
  _symmetry_equiv_pos_as_xyz
  'x, y, z'

loop_
  _atom_site_label
  _atom_site_occupancy
  _atom_site_fract_x
  _atom_site_fract_y
  _atom_site_fract_z
  _atom_site_thermal_displace_type
  _atom_site_B_iso_or_equiv
  _atom_site_type_symbol
  P1       1.0000 0.39836  0.81357  0.28868  Biso   1.000  P
  P2       1.0000 0.10164  0.18643  0.28868  Biso   1.000  P
  P3       1.0000 0.60164  0.81357  0.21132  Biso   1.000  P
  P4       1.0000 0.89836  0.18643  0.21132  Biso   1.000  P
  P5       1.0000 0.60164  0.18643  0.71132  Biso   1.000  P
  P6       1.0000 0.89836  0.81357  0.71132  Biso   1.000  P
  P7       1.0000 0.39836  0.18643  0.78868  Biso   1.000  P
  P8       1.0000 0.10164  0.81357  0.78868  Biso   1.000  P
  Mo1      1.0000 0.50000  0.02211  0.25000  Biso   1.000  Mo
  Mo2      1.0000 0.00000  0.97789  0.25000  Biso   1.000  Mo
  Mo3      1.0000 0.50000  0.97789  0.75000  Biso   1.000  Mo
  Mo4      1.0000 0.00000  0.02211  0.75000  Biso   1.000  Mo
  Mo5      1.0000 0.41058  0.88319  0.14873  Biso   1.000  Mo
  Mo6      1.0000 0.08942  0.11681  0.14873  Biso   1.000  Mo
  Mo7      1.0000 0.58942  0.88319  0.35127  Biso   1.000  Mo
  Mo8      1.0000 0.91058  0.11681  0.35127  Biso   1.000  Mo
  Mo9      1.0000 0.58942  0.11681  0.85127  Biso   1.000  Mo
  Mo10     1.0000 0.91058  0.88319  0.85127  Biso   1.000  Mo
  Mo11     1.0000 0.41058  0.11681  0.64873  Biso   1.000  Mo
  Mo12     1.0000 0.08942  0.88319  0.64873  Biso   1.000  Mo
  Mo13     1.0000 0.46459  0.65147  0.17544  Biso   1.000  Mo
  Mo14     1.0000 0.03541  0.34853  0.17544  Biso   1.000  Mo
  Mo15     1.0000 0.53541  0.65147  0.32456  Biso   1.000  Mo
  Mo16     1.0000 0.96459  0.34853  0.32456  Biso   1.000  Mo
  Mo17     1.0000 0.53541  0.34853  0.82456  Biso   1.000  Mo
  Mo18     1.0000 0.96459  0.65147  0.82456  Biso   1.000  Mo
  Mo19     1.0000 0.46459  0.34853  0.67544  Biso   1.000  Mo
  Mo20     1.0000 0.03541  0.65147  0.67544  Biso   1.000  Mo
  O1       1.0000 0.45100  0.09720  0.29620  Biso   1.000  O
  O2       1.0000 0.04900  0.90280  0.29620  Biso   1.000  O
  O3       1.0000 0.54900  0.09720  0.20380  Biso   1.000  O
  O4       1.0000 0.95100  0.90280  0.20380  Biso   1.000  O
  O5       1.0000 0.54900  0.90280  0.70380  Biso   1.000  O
  O6       1.0000 0.95100  0.09720  0.70380  Biso   1.000  O
  O7       1.0000 0.45100  0.90280  0.79620  Biso   1.000  O
  O8       1.0000 0.04900  0.09720  0.79620  Biso   1.000  O
  O9       1.0000 0.40530  0.98350  0.20470  Biso   1.000  O
  O10      1.0000 0.09470  0.01650  0.20470  Biso   1.000  O
  O11      1.0000 0.59470  0.98350  0.29530  Biso   1.000  O
  O12      1.0000 0.90530  0.01650  0.29530  Biso   1.000  O
  O13      1.0000 0.59470  0.01650  0.79530  Biso   1.000  O
  O14      1.0000 0.90530  0.98350  0.79530  Biso   1.000  O
  O15      1.0000 0.40530  0.01650  0.70470  Biso   1.000  O
  O16      1.0000 0.09470  0.98350  0.70470  Biso   1.000  O
  O17      1.0000 0.45300  0.94450  0.09260  Biso   1.000  O
  O18      1.0000 0.04700  0.05550  0.09260  Biso   1.000  O
  O19      1.0000 0.54700  0.94450  0.40740  Biso   1.000  O
  O20      1.0000 0.95300  0.05550  0.40740  Biso   1.000  O
  O21      1.0000 0.54700  0.05550  0.90740  Biso   1.000  O
  O22      1.0000 0.95300  0.94450  0.90740  Biso   1.000  O
  O23      1.0000 0.45300  0.05550  0.59260  Biso   1.000  O
  O24      1.0000 0.04700  0.94450  0.59260  Biso   1.000  O
  O25      1.0000 0.30810  0.87730  0.13370  Biso   1.000  O
  O26      1.0000 0.19190  0.12270  0.13370  Biso   1.000  O
  O27      1.0000 0.69190  0.87730  0.36630  Biso   1.000  O
  O28      1.0000 0.80810  0.12270  0.36630  Biso   1.000  O
  O29      1.0000 0.69190  0.12270  0.86630  Biso   1.000  O
  O30      1.0000 0.80810  0.87730  0.86630  Biso   1.000  O
  O31      1.0000 0.30810  0.12270  0.63370  Biso   1.000  O
  O32      1.0000 0.19190  0.87730  0.63370  Biso   1.000  O
  O33      1.0000 0.44500  0.75750  0.12370  Biso   1.000  O
  O34      1.0000 0.05500  0.24250  0.12370  Biso   1.000  O
  O35      1.0000 0.55500  0.75750  0.37630  Biso   1.000  O
  O36      1.0000 0.94500  0.24250  0.37630  Biso   1.000  O
  O37      1.0000 0.55500  0.24250  0.87630  Biso   1.000  O
  O38      1.0000 0.94500  0.75750  0.87630  Biso   1.000  O
  O39      1.0000 0.44500  0.24250  0.62370  Biso   1.000  O
  O40      1.0000 0.05500  0.75750  0.62370  Biso   1.000  O
  O41      1.0000 0.40770  0.79040  0.22430  Biso   1.000  O
  O42      1.0000 0.09230  0.20960  0.22430  Biso   1.000  O
  O43      1.0000 0.59230  0.79040  0.27570  Biso   1.000  O
  O44      1.0000 0.90770  0.20960  0.27570  Biso   1.000  O
  O45      1.0000 0.59230  0.20960  0.77570  Biso   1.000  O
  O46      1.0000 0.90770  0.79040  0.77570  Biso   1.000  O
  O47      1.0000 0.40770  0.20960  0.72430  Biso   1.000  O
  O48      1.0000 0.09230  0.79040  0.72430  Biso   1.000  O
  O49      1.0000 0.50840  0.56890  0.13100  Biso   1.000  O
  O50      1.0000 0.99160  0.43110  0.13100  Biso   1.000  O
  O51      1.0000 0.49160  0.56890  0.36900  Biso   1.000  O
  O52      1.0000 0.00840  0.43110  0.36900  Biso   1.000  O
  O53      1.0000 0.49160  0.43110  0.86900  Biso   1.000  O
  O54      1.0000 0.00840  0.56890  0.86900  Biso   1.000  O
  O55      1.0000 0.50840  0.43110  0.63100  Biso   1.000  O
  O56      1.0000 0.99160  0.56890  0.63100  Biso   1.000  O
  O57      1.0000 0.36450  0.60900  0.18130  Biso   1.000  O
  O58      1.0000 0.13550  0.39100  0.18130  Biso   1.000  O
  O59      1.0000 0.63550  0.60900  0.31870  Biso   1.000  O
  O60      1.0000 0.86450  0.39100  0.31870  Biso   1.000  O
  O61      1.0000 0.63550  0.39100  0.81870  Biso   1.000  O
  O62      1.0000 0.86450  0.60900  0.81870  Biso   1.000  O
  O63      1.0000 0.36450  0.39100  0.68130  Biso   1.000  O
  O64      1.0000 0.13550  0.60900  0.68130  Biso   1.000  O
  O65      1.0000 0.41590  0.72480  0.32300  Biso   1.000  O
  O66      1.0000 0.08410  0.27520  0.32300  Biso   1.000  O
  O67      1.0000 0.58410  0.72480  0.17700  Biso   1.000  O
  O68      1.0000 0.91590  0.27520  0.17700  Biso   1.000  O
  O69      1.0000 0.58410  0.27520  0.67700  Biso   1.000  O
  O70      1.0000 0.91590  0.72480  0.67700  Biso   1.000  O
  O71      1.0000 0.41590  0.27520  0.82300  Biso   1.000  O
  O72      1.0000 0.08410  0.72480  0.82300  Biso   1.000  O
  O73      1.0000 0.50000  0.61470  0.25000  Biso   1.000  O
  O74      1.0000 0.00000  0.38530  0.25000  Biso   1.000  O
  O75      1.0000 0.50000  0.38530  0.75000  Biso   1.000  O
  O76      1.0000 0.00000  0.61470  0.75000  Biso   1.000  O
  O77      1.0000 0.30700  0.84120  0.30020  Biso   1.000  O
  O78      1.0000 0.19300  0.15880  0.30020  Biso   1.000  O
  O79      1.0000 0.69300  0.84120  0.19980  Biso   1.000  O
  O80      1.0000 0.80700  0.15880  0.19980  Biso   1.000  O
  O81      1.0000 0.69300  0.15880  0.69980  Biso   1.000  O
  O82      1.0000 0.80700  0.84120  0.69980  Biso   1.000  O
  O83      1.0000 0.30700  0.15880  0.80020  Biso   1.000  O
  O84      1.0000 0.19300  0.84120  0.80020  Biso   1.000  O
  O85      1.0000 0.45560  0.89660  0.30580  Biso   1.000  O
  O86      1.0000 0.04440  0.10340  0.30580  Biso   1.000  O
  O87      1.0000 0.54440  0.89660  0.19420  Biso   1.000  O
  O88      1.0000 0.95560  0.10340  0.19420  Biso   1.000  O
  O89      1.0000 0.54440  0.10340  0.69420  Biso   1.000  O
  O90      1.0000 0.95560  0.89660  0.69420  Biso   1.000  O
  O91      1.0000 0.45560  0.10340  0.80580  Biso   1.000  O
  O92      1.0000 0.04440  0.89660  0.80580  Biso   1.000  O
  Cu1      1.0000 0.50000  0.00000  0.00000  Biso   1.000  Cu
  Cu2      1.0000 0.00000  0.00000  0.00000  Biso   1.000  Cu
  Cu3      1.0000 0.50000  0.00000  0.50000  Biso   1.000  Cu
  Cu4      1.0000 0.00000  0.00000  0.50000  Biso   1.000  Cu
  Cu5      1.0000 0.25000  0.50000  0.18139  Biso   1.000  Cu
  Cu6      1.0000 0.75000  0.50000  0.31861  Biso   1.000  Cu
  Cu7      1.0000 0.75000  0.50000  0.81861  Biso   1.000  Cu
  Cu8      1.0000 0.25000  0.50000  0.68139  Biso   1.000  Cu
  N1       1.0000 0.44190  0.12700  0.00950  Biso   1.000  N
  N2       1.0000 0.05810  0.87300  0.00950  Biso   1.000  N
  N3       1.0000 0.55810  0.12700  0.49050  Biso   1.000  N
  N4       1.0000 0.94190  0.87300  0.49050  Biso   1.000  N
  N5       1.0000 0.55810  0.87300  0.99050  Biso   1.000  N
  N6       1.0000 0.94190  0.12700  0.99050  Biso   1.000  N
  N7       1.0000 0.44190  0.87300  0.50950  Biso   1.000  N
  N8       1.0000 0.05810  0.12700  0.50950  Biso   1.000  N
  N9       1.0000 0.45060  0.20360  0.97540  Biso   1.000  N
  N10      1.0000 0.04940  0.79640  0.97540  Biso   1.000  N
  N11      1.0000 0.54940  0.20360  0.52460  Biso   1.000  N
  N12      1.0000 0.95060  0.79640  0.52460  Biso   1.000  N
  N13      1.0000 0.54940  0.79640  0.02460  Biso   1.000  N
  N14      1.0000 0.95060  0.20360  0.02460  Biso   1.000  N
  N15      1.0000 0.45060  0.79640  0.47540  Biso   1.000  N
  N16      1.0000 0.04940  0.20360  0.47540  Biso   1.000  N
  H1       1.0000 0.48130  0.20400  0.94530  Biso   1.000  H
  H2       1.0000 0.01870  0.79600  0.94530  Biso   1.000  H
  H3       1.0000 0.51870  0.20400  0.55470  Biso   1.000  H
  H4       1.0000 0.98130  0.79600  0.55470  Biso   1.000  H
  H5       1.0000 0.51870  0.79600  0.05470  Biso   1.000  H
  H6       1.0000 0.98130  0.20400  0.05470  Biso   1.000  H
  H7       1.0000 0.48130  0.79600  0.44530  Biso   1.000  H
  H8       1.0000 0.01870  0.20400  0.44530  Biso   1.000  H
  N17      1.0000 0.60090  0.05650  0.03520  Biso   1.000  N
  N18      1.0000 0.89910  0.94350  0.03520  Biso   1.000  N
  N19      1.0000 0.39910  0.05650  0.46480  Biso   1.000  N
  N20      1.0000 0.10090  0.94350  0.46480  Biso   1.000  N
  N21      1.0000 0.39910  0.94350  0.96480  Biso   1.000  N
  N22      1.0000 0.10090  0.05650  0.96480  Biso   1.000  N
  N23      1.0000 0.60090  0.94350  0.53520  Biso   1.000  N
  N24      1.0000 0.89910  0.05650  0.53520  Biso   1.000  N
  N25      1.0000 0.60710  0.07040  0.09020  Biso   1.000  N
  N26      1.0000 0.89290  0.92960  0.09020  Biso   1.000  N
  N27      1.0000 0.39290  0.07040  0.40980  Biso   1.000  N
  N28      1.0000 0.10710  0.92960  0.40980  Biso   1.000  N
  N29      1.0000 0.39290  0.92960  0.90980  Biso   1.000  N
  N30      1.0000 0.10710  0.07040  0.90980  Biso   1.000  N
  N31      1.0000 0.60710  0.92960  0.59020  Biso   1.000  N
  N32      1.0000 0.89290  0.07040  0.59020  Biso   1.000  N
  H9       1.0000 0.57150  0.05020  0.11480  Biso   1.000  H
  H10      1.0000 0.92850  0.94980  0.11480  Biso   1.000  H
  H11      1.0000 0.42850  0.05020  0.38520  Biso   1.000  H
  H12      1.0000 0.07150  0.94980  0.38520  Biso   1.000  H
  H13      1.0000 0.42850  0.94980  0.88520  Biso   1.000  H
  H14      1.0000 0.07150  0.05020  0.88520  Biso   1.000  H
  H15      1.0000 0.57150  0.94980  0.61480  Biso   1.000  H
  H16      1.0000 0.92850  0.05020  0.61480  Biso   1.000  H
  N33      1.0000 0.32260  0.38500  0.18210  Biso   1.000  N
  N34      1.0000 0.17740  0.61500  0.18210  Biso   1.000  N
  N35      1.0000 0.67740  0.38500  0.31790  Biso   1.000  N
  N36      1.0000 0.82260  0.61500  0.31790  Biso   1.000  N
  N37      1.0000 0.67740  0.61500  0.81790  Biso   1.000  N
  N38      1.0000 0.82260  0.38500  0.81790  Biso   1.000  N
  N39      1.0000 0.32260  0.61500  0.68210  Biso   1.000  N
  N40      1.0000 0.17740  0.38500  0.68210  Biso   1.000  N
  N41      1.0000 0.29420  0.29690  0.19080  Biso   1.000  N
  N42      1.0000 0.20580  0.70310  0.19080  Biso   1.000  N
  N43      1.0000 0.70580  0.29690  0.30920  Biso   1.000  N
  N44      1.0000 0.79420  0.70310  0.30920  Biso   1.000  N
  N45      1.0000 0.70580  0.70310  0.80920  Biso   1.000  N
  N46      1.0000 0.79420  0.29690  0.80920  Biso   1.000  N
  N47      1.0000 0.29420  0.70310  0.69080  Biso   1.000  N
  N48      1.0000 0.20580  0.29690  0.69080  Biso   1.000  N
  H17      1.0000 0.24270  0.28200  0.19370  Biso   1.000  H
  H18      1.0000 0.25730  0.71800  0.19370  Biso   1.000  H
  H19      1.0000 0.75730  0.28200  0.30630  Biso   1.000  H
  H20      1.0000 0.74270  0.71800  0.30630  Biso   1.000  H
  H21      1.0000 0.75730  0.71800  0.80630  Biso   1.000  H
  H22      1.0000 0.74270  0.28200  0.80630  Biso   1.000  H
  H23      1.0000 0.24270  0.71800  0.69370  Biso   1.000  H
  H24      1.0000 0.25730  0.28200  0.69370  Biso   1.000  H
  N49      1.0000 0.25000  0.50000  0.09590  Biso   1.000  N
  N50      1.0000 0.75000  0.50000  0.40410  Biso   1.000  N
  N51      1.0000 0.75000  0.50000  0.90410  Biso   1.000  N
  N52      1.0000 0.25000  0.50000  0.59590  Biso   1.000  N
  N53      1.0000 0.29640  0.53500  0.06110  Biso   1.000  N
  N54      1.0000 0.20360  0.46500  0.06110  Biso   1.000  N
  N55      1.0000 0.70360  0.53500  0.43890  Biso   1.000  N
  N56      1.0000 0.79640  0.46500  0.43890  Biso   1.000  N
  N57      1.0000 0.70360  0.46500  0.93890  Biso   1.000  N
  N58      1.0000 0.79640  0.53500  0.93890  Biso   1.000  N
  N59      1.0000 0.29640  0.46500  0.56110  Biso   1.000  N
  N60      1.0000 0.20360  0.53500  0.56110  Biso   1.000  N
  H25      1.0000 0.33900  0.56730  0.07230  Biso   1.000  H
  H26      1.0000 0.16100  0.43270  0.07230  Biso   1.000  H
  H27      1.0000 0.66100  0.56730  0.42770  Biso   1.000  H
  H28      1.0000 0.83900  0.43270  0.42770  Biso   1.000  H
  H29      1.0000 0.66100  0.43270  0.92770  Biso   1.000  H
  H30      1.0000 0.83900  0.56730  0.92770  Biso   1.000  H
  H31      1.0000 0.33900  0.43270  0.57230  Biso   1.000  H
  H32      1.0000 0.16100  0.56730  0.57230  Biso   1.000  H
  C1       1.0000 0.38810  0.15700  0.04830  Biso   1.000  C
  C2       1.0000 0.11190  0.84300  0.04830  Biso   1.000  C
  C3       1.0000 0.61190  0.15700  0.45170  Biso   1.000  C
  C4       1.0000 0.88810  0.84300  0.45170  Biso   1.000  C
  C5       1.0000 0.61190  0.84300  0.95170  Biso   1.000  C
  C6       1.0000 0.88810  0.15700  0.95170  Biso   1.000  C
  C7       1.0000 0.38810  0.84300  0.54830  Biso   1.000  C
  C8       1.0000 0.11190  0.15700  0.54830  Biso   1.000  C
  H33      1.0000 0.36800  0.11880  0.07780  Biso   1.000  H
  H34      1.0000 0.13200  0.88120  0.07780  Biso   1.000  H
  H35      1.0000 0.63200  0.11880  0.42220  Biso   1.000  H
  H36      1.0000 0.86800  0.88120  0.42220  Biso   1.000  H
  H37      1.0000 0.63200  0.88120  0.92220  Biso   1.000  H
  H38      1.0000 0.86800  0.11880  0.92220  Biso   1.000  H
  H39      1.0000 0.36800  0.88120  0.57780  Biso   1.000  H
  H40      1.0000 0.13200  0.11880  0.57780  Biso   1.000  H
  C9       1.0000 0.36600  0.24940  0.04010  Biso   1.000  C
  C10      1.0000 0.13400  0.75060  0.04010  Biso   1.000  C
  C11      1.0000 0.63400  0.24940  0.45990  Biso   1.000  C
  C12      1.0000 0.86600  0.75060  0.45990  Biso   1.000  C
  C13      1.0000 0.63400  0.75060  0.95990  Biso   1.000  C
  C14      1.0000 0.86600  0.24940  0.95990  Biso   1.000  C
  C15      1.0000 0.36600  0.75060  0.54010  Biso   1.000  C
  C16      1.0000 0.13400  0.24940  0.54010  Biso   1.000  C
  H41      1.0000 0.32990  0.28560  0.06240  Biso   1.000  H
  H42      1.0000 0.17010  0.71440  0.06240  Biso   1.000  H
  H43      1.0000 0.67010  0.28560  0.43760  Biso   1.000  H
  H44      1.0000 0.82990  0.71440  0.43760  Biso   1.000  H
  H45      1.0000 0.67010  0.71440  0.93760  Biso   1.000  H
  H46      1.0000 0.82990  0.28560  0.93760  Biso   1.000  H
  H47      1.0000 0.32990  0.71440  0.56240  Biso   1.000  H
  H48      1.0000 0.17010  0.28560  0.56240  Biso   1.000  H
  C17      1.0000 0.40710  0.27850  0.99280  Biso   1.000  C
  C18      1.0000 0.09290  0.72150  0.99280  Biso   1.000  C
  C19      1.0000 0.59290  0.27850  0.50720  Biso   1.000  C
  C20      1.0000 0.90710  0.72150  0.50720  Biso   1.000  C
  C21      1.0000 0.59290  0.72150  0.00720  Biso   1.000  C
  C22      1.0000 0.90710  0.27850  0.00720  Biso   1.000  C
  C23      1.0000 0.40710  0.72150  0.49280  Biso   1.000  C
  C24      1.0000 0.09290  0.27850  0.49280  Biso   1.000  C
  H49      1.0000 0.40520  0.33890  0.97590  Biso   1.000  H
  H50      1.0000 0.09480  0.66110  0.97590  Biso   1.000  H
  H51      1.0000 0.59480  0.33890  0.52410  Biso   1.000  H
  H52      1.0000 0.90520  0.66110  0.52410  Biso   1.000  H
  H53      1.0000 0.59480  0.66110  0.02410  Biso   1.000  H
  H54      1.0000 0.90520  0.33890  0.02410  Biso   1.000  H
  H55      1.0000 0.40520  0.66110  0.47590  Biso   1.000  H
  H56      1.0000 0.09480  0.33890  0.47590  Biso   1.000  H
  C25      1.0000 0.66630  0.10050  0.01370  Biso   1.000  C
  C26      1.0000 0.83370  0.89950  0.01370  Biso   1.000  C
  C27      1.0000 0.33370  0.10050  0.48630  Biso   1.000  C
  C28      1.0000 0.16630  0.89950  0.48630  Biso   1.000  C
  C29      1.0000 0.33370  0.89950  0.98630  Biso   1.000  C
  C30      1.0000 0.16630  0.10050  0.98630  Biso   1.000  C
  C31      1.0000 0.66630  0.89950  0.51370  Biso   1.000  C
  C32      1.0000 0.83370  0.10050  0.51370  Biso   1.000  C
  H57      1.0000 0.67740  0.10720  0.97490  Biso   1.000  H
  H58      1.0000 0.82260  0.89280  0.97490  Biso   1.000  H
  H59      1.0000 0.32260  0.10720  0.52510  Biso   1.000  H
  H60      1.0000 0.17740  0.89280  0.52510  Biso   1.000  H
  H61      1.0000 0.32260  0.89280  0.02510  Biso   1.000  H
  H62      1.0000 0.17740  0.10720  0.02510  Biso   1.000  H
  H63      1.0000 0.67740  0.89280  0.47490  Biso   1.000  H
  H64      1.0000 0.82260  0.10720  0.47490  Biso   1.000  H
  C33      1.0000 0.71480  0.13430  0.05640  Biso   1.000  C
  C34      1.0000 0.78520  0.86570  0.05640  Biso   1.000  C
  C35      1.0000 0.28520  0.13430  0.44360  Biso   1.000  C
  C36      1.0000 0.21480  0.86570  0.44360  Biso   1.000  C
  C37      1.0000 0.28520  0.86570  0.94360  Biso   1.000  C
  C38      1.0000 0.21480  0.13430  0.94360  Biso   1.000  C
  C39      1.0000 0.71480  0.86570  0.55640  Biso   1.000  C
  C40      1.0000 0.78520  0.13430  0.55640  Biso   1.000  C
  H65      1.0000 0.76670  0.16270  0.05250  Biso   1.000  H
  H66      1.0000 0.73330  0.83730  0.05250  Biso   1.000  H
  H67      1.0000 0.23330  0.16270  0.44750  Biso   1.000  H
  H68      1.0000 0.26670  0.83730  0.44750  Biso   1.000  H
  H69      1.0000 0.23330  0.83730  0.94750  Biso   1.000  H
  H70      1.0000 0.26670  0.16270  0.94750  Biso   1.000  H
  H71      1.0000 0.76670  0.83730  0.55250  Biso   1.000  H
  H72      1.0000 0.73330  0.16270  0.55250  Biso   1.000  H
  C41      1.0000 0.67530  0.12000  0.10400  Biso   1.000  C
  C42      1.0000 0.82470  0.88000  0.10400  Biso   1.000  C
  C43      1.0000 0.32470  0.12000  0.39600  Biso   1.000  C
  C44      1.0000 0.17530  0.88000  0.39600  Biso   1.000  C
  C45      1.0000 0.32470  0.88000  0.89600  Biso   1.000  C
  C46      1.0000 0.17530  0.12000  0.89600  Biso   1.000  C
  C47      1.0000 0.67530  0.88000  0.60400  Biso   1.000  C
  C48      1.0000 0.82470  0.12000  0.60400  Biso   1.000  C
  H73      1.0000 0.69130  0.13930  0.14040  Biso   1.000  H
  H74      1.0000 0.80870  0.86070  0.14040  Biso   1.000  H
  H75      1.0000 0.30870  0.13930  0.35960  Biso   1.000  H
  H76      1.0000 0.19130  0.86070  0.35960  Biso   1.000  H
  H77      1.0000 0.30870  0.86070  0.85960  Biso   1.000  H
  H78      1.0000 0.19130  0.13930  0.85960  Biso   1.000  H
  H79      1.0000 0.69130  0.86070  0.64040  Biso   1.000  H
  H80      1.0000 0.80870  0.13930  0.64040  Biso   1.000  H
  C49      1.0000 0.40360  0.37630  0.17840  Biso   1.000  C
  C50      1.0000 0.09640  0.62370  0.17840  Biso   1.000  C
  C51      1.0000 0.59640  0.37630  0.32160  Biso   1.000  C
  C52      1.0000 0.90360  0.62370  0.32160  Biso   1.000  C
  C53      1.0000 0.59640  0.62370  0.82160  Biso   1.000  C
  C54      1.0000 0.90360  0.37630  0.82160  Biso   1.000  C
  C55      1.0000 0.40360  0.62370  0.67840  Biso   1.000  C
  C56      1.0000 0.09640  0.37630  0.67840  Biso   1.000  C
  H81      1.0000 0.44010  0.42550  0.16910  Biso   1.000  H
  H82      1.0000 0.05990  0.57450  0.16910  Biso   1.000  H
  H83      1.0000 0.55990  0.42550  0.33090  Biso   1.000  H
  H84      1.0000 0.94010  0.57450  0.33090  Biso   1.000  H
  H85      1.0000 0.55990  0.57450  0.83090  Biso   1.000  H
  H86      1.0000 0.94010  0.42550  0.83090  Biso   1.000  H
  H87      1.0000 0.44010  0.57450  0.66910  Biso   1.000  H
  H88      1.0000 0.05990  0.42550  0.66910  Biso   1.000  H
  C57      1.0000 0.42590  0.28210  0.19070  Biso   1.000  C
  C58      1.0000 0.07410  0.71790  0.19070  Biso   1.000  C
  C59      1.0000 0.57410  0.28210  0.30930  Biso   1.000  C
  C60      1.0000 0.92590  0.71790  0.30930  Biso   1.000  C
  C61      1.0000 0.57410  0.71790  0.80930  Biso   1.000  C
  C62      1.0000 0.92590  0.28210  0.80930  Biso   1.000  C
  C63      1.0000 0.42590  0.71790  0.69070  Biso   1.000  C
  C64      1.0000 0.07410  0.28210  0.69070  Biso   1.000  C
  H89      1.0000 0.47950  0.25880  0.19530  Biso   1.000  H
  H90      1.0000 0.02050  0.74120  0.19530  Biso   1.000  H
  H91      1.0000 0.52050  0.25880  0.30470  Biso   1.000  H
  H92      1.0000 0.97950  0.74120  0.30470  Biso   1.000  H
  H93      1.0000 0.52050  0.74120  0.80470  Biso   1.000  H
  H94      1.0000 0.97950  0.25880  0.80470  Biso   1.000  H
  H95      1.0000 0.47950  0.74120  0.69530  Biso   1.000  H
  H96      1.0000 0.02050  0.25880  0.69530  Biso   1.000  H
  C65      1.0000 0.35850  0.23310  0.19460  Biso   1.000  C
  C66      1.0000 0.14150  0.76690  0.19460  Biso   1.000  C
  C67      1.0000 0.64150  0.23310  0.30540  Biso   1.000  C
  C68      1.0000 0.85850  0.76690  0.30540  Biso   1.000  C
  C69      1.0000 0.64150  0.76690  0.80540  Biso   1.000  C
  C70      1.0000 0.85850  0.23310  0.80540  Biso   1.000  C
  C71      1.0000 0.35850  0.76690  0.69460  Biso   1.000  C
  C72      1.0000 0.14150  0.23310  0.69460  Biso   1.000  C
  H97      1.0000 0.35420  0.16690  0.19910  Biso   1.000  H
  H98      1.0000 0.14580  0.83310  0.19910  Biso   1.000  H
  H99      1.0000 0.64580  0.16690  0.30090  Biso   1.000  H
  H100     1.0000 0.85420  0.83310  0.30090  Biso   1.000  H
  H101     1.0000 0.64580  0.83310  0.80090  Biso   1.000  H
  H102     1.0000 0.85420  0.16690  0.80090  Biso   1.000  H
  H103     1.0000 0.35420  0.83310  0.69910  Biso   1.000  H
  H104     1.0000 0.14580  0.16690  0.69910  Biso   1.000  H
  C73      1.0000 0.28200  0.52500  0.00760  Biso   1.000  C
  C74      1.0000 0.21800  0.47500  0.00760  Biso   1.000  C
  C75      1.0000 0.71800  0.52500  0.49240  Biso   1.000  C
  C76      1.0000 0.78200  0.47500  0.49240  Biso   1.000  C
  C77      1.0000 0.71800  0.47500  0.99240  Biso   1.000  C
  C78      1.0000 0.78200  0.52500  0.99240  Biso   1.000  C
  C79      1.0000 0.28200  0.47500  0.50760  Biso   1.000  C
  C80      1.0000 0.21800  0.52500  0.50760  Biso   1.000  C
  H105     1.0000 0.31190  0.54850  0.97660  Biso   1.000  H
  H106     1.0000 0.18810  0.45150  0.97660  Biso   1.000  H
  H107     1.0000 0.68810  0.54850  0.52340  Biso   1.000  H
  H108     1.0000 0.81190  0.45150  0.52340  Biso   1.000  H
  H109     1.0000 0.68810  0.45150  0.02340  Biso   1.000  H
  H110     1.0000 0.81190  0.54850  0.02340  Biso   1.000  H
  H111     1.0000 0.31190  0.45150  0.47660  Biso   1.000  H
  H112     1.0000 0.18810  0.54850  0.47660  Biso   1.000  H
  O93      1.0000 0.25000  0.00000  0.24830  Biso   1.000  O
  O94      1.0000 0.75000  0.00000  0.25170  Biso   1.000  O
  O95      1.0000 0.75000  0.00000  0.75170  Biso   1.000  O
  O96      1.0000 0.25000  0.00000  0.74830  Biso   1.000  O
  N61      1.0000 0.25000  0.50000  0.26620  Biso   1.000  N
  N62      1.0000 0.75000  0.50000  0.23380  Biso   1.000  N
  N63      1.0000 0.75000  0.50000  0.73380  Biso   1.000  N
  N64      1.0000 0.25000  0.50000  0.76620  Biso   1.000  N
  N65      1.0000 0.21360  0.42950  0.29760  Biso   1.000  N
  N66      1.0000 0.28640  0.57050  0.29760  Biso   1.000  N
  N67      1.0000 0.78640  0.42950  0.20240  Biso   1.000  N
  N68      1.0000 0.71360  0.57050  0.20240  Biso   1.000  N
  N69      1.0000 0.78640  0.57050  0.70240  Biso   1.000  N
  N70      1.0000 0.71360  0.42950  0.70240  Biso   1.000  N
  N71      1.0000 0.21360  0.57050  0.79760  Biso   1.000  N
  N72      1.0000 0.28640  0.42950  0.79760  Biso   1.000  N
  C81      1.0000 0.25200  0.40000  0.35100  Biso   1.000  C
  C82      1.0000 0.24800  0.60000  0.35100  Biso   1.000  C
  C83      1.0000 0.74800  0.40000  0.14900  Biso   1.000  C
  C84      1.0000 0.75200  0.60000  0.14900  Biso   1.000  C
  C85      1.0000 0.74800  0.60000  0.64900  Biso   1.000  C
  C86      1.0000 0.75200  0.40000  0.64900  Biso   1.000  C
  C87      1.0000 0.25200  0.60000  0.85100  Biso   1.000  C
  C88      1.0000 0.24800  0.40000  0.85100  Biso   1.000  C
  C89      1.0000 0.32500  0.44800  0.35230  Biso   1.000  C
  C90      1.0000 0.17500  0.55200  0.35230  Biso   1.000  C
  C91      1.0000 0.67500  0.44800  0.14770  Biso   1.000  C
  C92      1.0000 0.82500  0.55200  0.14770  Biso   1.000  C
  C93      1.0000 0.67500  0.55200  0.64770  Biso   1.000  C
  C94      1.0000 0.82500  0.44800  0.64770  Biso   1.000  C
  C95      1.0000 0.32500  0.55200  0.85230  Biso   1.000  C
  C96      1.0000 0.17500  0.44800  0.85230  Biso   1.000  C
  C97      1.0000 0.16300  0.50900  0.29720  Biso   1.000  C
  C98      1.0000 0.33700  0.49100  0.29720  Biso   1.000  C
  C99      1.0000 0.83700  0.50900  0.20280  Biso   1.000  C
  C100     1.0000 0.66300  0.49100  0.20280  Biso   1.000  C
  C101     1.0000 0.83700  0.49100  0.70280  Biso   1.000  C
  C102     1.0000 0.66300  0.50900  0.70280  Biso   1.000  C
  C103     1.0000 0.16300  0.49100  0.79720  Biso   1.000  C
  C104     1.0000 0.33700  0.50900  0.79720  Biso   1.000  C
