data_image0
_cell_length_a       6.7727
_cell_length_b       4.9337
_cell_length_c       11.498
_cell_angle_alpha    90
_cell_angle_beta     90
_cell_angle_gamma    90

_symmetry_space_group_name_H-M    "P 1"
_symmetry_int_tables_number       1

loop_
  _symmetry_equiv_pos_as_xyz
  'x, y, z'

loop_
  _atom_site_label
  _atom_site_occupancy
  _atom_site_fract_x
  _atom_site_fract_y
  _atom_site_fract_z
  _atom_site_thermal_displace_type
  _atom_site_B_iso_or_equiv
  _atom_site_type_symbol
  O1       1.0000 0.00000  0.53730  0.04270  Biso   1.000  O
  O2       1.0000 0.50000  0.46270  0.54270  Biso   1.000  O
  S1       1.0000 0.00000  0.67130  0.15739  Biso   1.000  S
  S2       1.0000 0.50000  0.32870  0.65739  Biso   1.000  S
  O3       1.0000 0.00000  0.97370  0.13790  Biso   1.000  O
  O4       1.0000 0.50000  0.02630  0.63790  Biso   1.000  O
  Cu1      1.0000 0.00000  0.08447  0.97606  Biso   1.000  Cu
  Cu2      1.0000 0.50000  0.91553  0.47606  Biso   1.000  Cu
  N1       1.0000 0.29520  0.05510  0.97200  Biso   1.000  N
  N2       1.0000 0.20480  0.94490  0.47200  Biso   1.000  N
  N3       1.0000 0.79520  0.94490  0.47200  Biso   1.000  N
  N4       1.0000 0.70480  0.05510  0.97200  Biso   1.000  N
  O5       1.0000 0.17850  0.59860  0.22340  Biso   1.000  O
  O6       1.0000 0.32150  0.40140  0.72340  Biso   1.000  O
  O7       1.0000 0.67850  0.40140  0.72340  Biso   1.000  O
  O8       1.0000 0.82150  0.59860  0.22340  Biso   1.000  O
  C1       1.0000 0.39760  0.89640  0.90210  Biso   1.000  C
  C2       1.0000 0.10240  0.10360  0.40210  Biso   1.000  C
  C3       1.0000 0.89760  0.10360  0.40210  Biso   1.000  C
  C4       1.0000 0.60240  0.89640  0.90210  Biso   1.000  C
  H1       1.0000 0.33080  0.78150  0.85150  Biso   1.000  H
  H2       1.0000 0.16920  0.21850  0.35150  Biso   1.000  H
  H3       1.0000 0.83080  0.21850  0.35150  Biso   1.000  H
  H4       1.0000 0.66920  0.78150  0.85150  Biso   1.000  H
  C5       1.0000 0.39880  0.20260  0.04720  Biso   1.000  C
  C6       1.0000 0.10120  0.79740  0.54720  Biso   1.000  C
  C7       1.0000 0.89880  0.79740  0.54720  Biso   1.000  C
  C8       1.0000 0.60120  0.20260  0.04720  Biso   1.000  C
  H5       1.0000 0.33210  0.30880  0.10120  Biso   1.000  H
  H6       1.0000 0.16790  0.69120  0.60120  Biso   1.000  H
  H7       1.0000 0.83210  0.69120  0.60120  Biso   1.000  H
  H8       1.0000 0.66790  0.30880  0.10120  Biso   1.000  H
  O9       1.0000 0.00000  0.15800  0.80800  Biso   1.000  O
  O10      1.0000 0.50000  0.84200  0.30800  Biso   1.000  O
