data_image0
_cell_length_a       14.1491
_cell_length_b       27.6324
_cell_length_c       11.1397
_cell_angle_alpha    90
_cell_angle_beta     90
_cell_angle_gamma    90

_symmetry_space_group_name_H-M    "P 1"
_symmetry_int_tables_number       1

loop_
  _symmetry_equiv_pos_as_xyz
  'x, y, z'

loop_
  _atom_site_label
  _atom_site_occupancy
  _atom_site_fract_x
  _atom_site_fract_y
  _atom_site_fract_z
  _atom_site_thermal_displace_type
  _atom_site_B_iso_or_equiv
  _atom_site_type_symbol
  Cu1      1.0000 0.00000  0.74173  0.61145  Biso   1.000  Cu
  Cu2      1.0000 0.00000  0.75827  0.11145  Biso   1.000  Cu
  Cu3      1.0000 0.00000  0.24173  0.88855  Biso   1.000  Cu
  Cu4      1.0000 0.00000  0.25827  0.38855  Biso   1.000  Cu
  Cu5      1.0000 0.50000  0.24173  0.61145  Biso   1.000  Cu
  Cu6      1.0000 0.50000  0.25827  0.11145  Biso   1.000  Cu
  Cu7      1.0000 0.50000  0.74173  0.88855  Biso   1.000  Cu
  Cu8      1.0000 0.50000  0.75827  0.38855  Biso   1.000  Cu
  O1       1.0000 0.14932  0.71670  0.81173  Biso   1.000  O
  O2       1.0000 0.85068  0.78330  0.31173  Biso   1.000  O
  O3       1.0000 0.85068  0.21670  0.68827  Biso   1.000  O
  O4       1.0000 0.14932  0.28330  0.18827  Biso   1.000  O
  O5       1.0000 0.64932  0.21670  0.81173  Biso   1.000  O
  O6       1.0000 0.35068  0.28330  0.31173  Biso   1.000  O
  O7       1.0000 0.35068  0.71670  0.68827  Biso   1.000  O
  O8       1.0000 0.64932  0.78330  0.18827  Biso   1.000  O
  O9       1.0000 0.85068  0.28330  0.18827  Biso   1.000  O
  O10      1.0000 0.14932  0.21670  0.68827  Biso   1.000  O
  O11      1.0000 0.14932  0.78330  0.31173  Biso   1.000  O
  O12      1.0000 0.85068  0.71670  0.81173  Biso   1.000  O
  O13      1.0000 0.35068  0.78330  0.18827  Biso   1.000  O
  O14      1.0000 0.64932  0.71670  0.68827  Biso   1.000  O
  O15      1.0000 0.64932  0.28330  0.31173  Biso   1.000  O
  O16      1.0000 0.35068  0.21670  0.81173  Biso   1.000  O
  N1       1.0000 0.09307  0.79631  0.59390  Biso   1.000  N
  N2       1.0000 0.90693  0.70369  0.09390  Biso   1.000  N
  N3       1.0000 0.90693  0.29631  0.90610  Biso   1.000  N
  N4       1.0000 0.09307  0.20369  0.40610  Biso   1.000  N
  N5       1.0000 0.59307  0.29631  0.59390  Biso   1.000  N
  N6       1.0000 0.40693  0.20369  0.09390  Biso   1.000  N
  N7       1.0000 0.40693  0.79631  0.90610  Biso   1.000  N
  N8       1.0000 0.59307  0.70369  0.40610  Biso   1.000  N
  N9       1.0000 0.90693  0.20369  0.40610  Biso   1.000  N
  N10      1.0000 0.09307  0.29631  0.90610  Biso   1.000  N
  N11      1.0000 0.09307  0.70369  0.09390  Biso   1.000  N
  N12      1.0000 0.90693  0.79631  0.59390  Biso   1.000  N
  N13      1.0000 0.40693  0.70369  0.40610  Biso   1.000  N
  N14      1.0000 0.59307  0.79631  0.90610  Biso   1.000  N
  N15      1.0000 0.59307  0.20369  0.09390  Biso   1.000  N
  N16      1.0000 0.40693  0.29631  0.59390  Biso   1.000  N
  O17      1.0000 0.00000  0.72872  0.39790  Biso   1.000  O
  O18      1.0000 0.00000  0.77128  0.89790  Biso   1.000  O
  O19      1.0000 0.00000  0.22872  0.10210  Biso   1.000  O
  O20      1.0000 0.00000  0.27128  0.60210  Biso   1.000  O
  O21      1.0000 0.50000  0.22872  0.39790  Biso   1.000  O
  O22      1.0000 0.50000  0.27128  0.89790  Biso   1.000  O
  O23      1.0000 0.50000  0.72872  0.10210  Biso   1.000  O
  O24      1.0000 0.50000  0.77128  0.60210  Biso   1.000  O
  H1       1.0000 0.95240  0.74080  0.36860  Biso   1.000  H
  H2       1.0000 0.04760  0.75920  0.86860  Biso   1.000  H
  H3       1.0000 0.04760  0.24080  0.13140  Biso   1.000  H
  H4       1.0000 0.95240  0.25920  0.63140  Biso   1.000  H
  H5       1.0000 0.45240  0.24080  0.36860  Biso   1.000  H
  H6       1.0000 0.54760  0.25920  0.86860  Biso   1.000  H
  H7       1.0000 0.54760  0.74080  0.13140  Biso   1.000  H
  H8       1.0000 0.45240  0.75920  0.63140  Biso   1.000  H
  H9       1.0000 0.04760  0.25920  0.63140  Biso   1.000  H
  H10      1.0000 0.95240  0.24080  0.13140  Biso   1.000  H
  H11      1.0000 0.95240  0.75920  0.86860  Biso   1.000  H
  H12      1.0000 0.04760  0.74080  0.36860  Biso   1.000  H
  H13      1.0000 0.54760  0.75920  0.63140  Biso   1.000  H
  H14      1.0000 0.45240  0.74080  0.13140  Biso   1.000  H
  H15      1.0000 0.45240  0.25920  0.86860  Biso   1.000  H
  H16      1.0000 0.54760  0.24080  0.36860  Biso   1.000  H
  O25      1.0000 0.09384  0.69198  0.63375  Biso   1.000  O
  O26      1.0000 0.90616  0.80802  0.13375  Biso   1.000  O
  O27      1.0000 0.90616  0.19198  0.86625  Biso   1.000  O
  O28      1.0000 0.09384  0.30802  0.36625  Biso   1.000  O
  O29      1.0000 0.59384  0.19198  0.63375  Biso   1.000  O
  O30      1.0000 0.40616  0.30802  0.13375  Biso   1.000  O
  O31      1.0000 0.40616  0.69198  0.86625  Biso   1.000  O
  O32      1.0000 0.59384  0.80802  0.36625  Biso   1.000  O
  O33      1.0000 0.90616  0.30802  0.36625  Biso   1.000  O
  O34      1.0000 0.09384  0.19198  0.86625  Biso   1.000  O
  O35      1.0000 0.09384  0.80802  0.13375  Biso   1.000  O
  O36      1.0000 0.90616  0.69198  0.63375  Biso   1.000  O
  O37      1.0000 0.40616  0.80802  0.36625  Biso   1.000  O
  O38      1.0000 0.59384  0.69198  0.86625  Biso   1.000  O
  O39      1.0000 0.59384  0.30802  0.13375  Biso   1.000  O
  O40      1.0000 0.40616  0.19198  0.63375  Biso   1.000  O
  C1       1.0000 0.20106  0.55351  0.73460  Biso   1.000  C
  C2       1.0000 0.79894  0.94649  0.23460  Biso   1.000  C
  C3       1.0000 0.79894  0.05351  0.76540  Biso   1.000  C
  C4       1.0000 0.20106  0.44649  0.26540  Biso   1.000  C
  C5       1.0000 0.70106  0.05351  0.73460  Biso   1.000  C
  C6       1.0000 0.29894  0.44649  0.23460  Biso   1.000  C
  C7       1.0000 0.29894  0.55351  0.76540  Biso   1.000  C
  C8       1.0000 0.70106  0.94649  0.26540  Biso   1.000  C
  C9       1.0000 0.79894  0.44649  0.26540  Biso   1.000  C
  C10      1.0000 0.20106  0.05351  0.76540  Biso   1.000  C
  C11      1.0000 0.20106  0.94649  0.23460  Biso   1.000  C
  C12      1.0000 0.79894  0.55351  0.73460  Biso   1.000  C
  C13      1.0000 0.29894  0.94649  0.26540  Biso   1.000  C
  C14      1.0000 0.70106  0.55351  0.76540  Biso   1.000  C
  C15      1.0000 0.70106  0.44649  0.23460  Biso   1.000  C
  C16      1.0000 0.29894  0.05351  0.73460  Biso   1.000  C
  C17      1.0000 0.20085  0.64151  0.73460  Biso   1.000  C
  C18      1.0000 0.79915  0.85849  0.23460  Biso   1.000  C
  C19      1.0000 0.79915  0.14151  0.76540  Biso   1.000  C
  C20      1.0000 0.20085  0.35849  0.26540  Biso   1.000  C
  C21      1.0000 0.70085  0.14151  0.73460  Biso   1.000  C
  C22      1.0000 0.29915  0.35849  0.23460  Biso   1.000  C
  C23      1.0000 0.29915  0.64151  0.76540  Biso   1.000  C
  C24      1.0000 0.70085  0.85849  0.26540  Biso   1.000  C
  C25      1.0000 0.79915  0.35849  0.26540  Biso   1.000  C
  C26      1.0000 0.20085  0.14151  0.76540  Biso   1.000  C
  C27      1.0000 0.20085  0.85849  0.23460  Biso   1.000  C
  C28      1.0000 0.79915  0.64151  0.73460  Biso   1.000  C
  C29      1.0000 0.29915  0.85849  0.26540  Biso   1.000  C
  C30      1.0000 0.70085  0.64151  0.76540  Biso   1.000  C
  C31      1.0000 0.70085  0.35849  0.23460  Biso   1.000  C
  C32      1.0000 0.29915  0.14151  0.73460  Biso   1.000  C
  C33      1.0000 0.14509  0.68768  0.72790  Biso   1.000  C
  C34      1.0000 0.85491  0.81232  0.22790  Biso   1.000  C
  C35      1.0000 0.85491  0.18768  0.77210  Biso   1.000  C
  C36      1.0000 0.14509  0.31232  0.27210  Biso   1.000  C
  C37      1.0000 0.64509  0.18768  0.72790  Biso   1.000  C
  C38      1.0000 0.35491  0.31232  0.22790  Biso   1.000  C
  C39      1.0000 0.35491  0.68768  0.77210  Biso   1.000  C
  C40      1.0000 0.64509  0.81232  0.27210  Biso   1.000  C
  C41      1.0000 0.85491  0.31232  0.27210  Biso   1.000  C
  C42      1.0000 0.14509  0.18768  0.77210  Biso   1.000  C
  C43      1.0000 0.14509  0.81232  0.22790  Biso   1.000  C
  C44      1.0000 0.85491  0.68768  0.72790  Biso   1.000  C
  C45      1.0000 0.35491  0.81232  0.27210  Biso   1.000  C
  C46      1.0000 0.64509  0.68768  0.77210  Biso   1.000  C
  C47      1.0000 0.64509  0.31232  0.22790  Biso   1.000  C
  C48      1.0000 0.35491  0.18768  0.72790  Biso   1.000  C
  C49      1.0000 0.15623  0.59843  0.71910  Biso   1.000  C
  C50      1.0000 0.84377  0.90157  0.21910  Biso   1.000  C
  C51      1.0000 0.84377  0.09843  0.78090  Biso   1.000  C
  C52      1.0000 0.15623  0.40157  0.28090  Biso   1.000  C
  C53      1.0000 0.65623  0.09843  0.71910  Biso   1.000  C
  C54      1.0000 0.34377  0.40157  0.21910  Biso   1.000  C
  C55      1.0000 0.34377  0.59843  0.78090  Biso   1.000  C
  C56      1.0000 0.65623  0.90157  0.28090  Biso   1.000  C
  C57      1.0000 0.84377  0.40157  0.28090  Biso   1.000  C
  C58      1.0000 0.15623  0.09843  0.78090  Biso   1.000  C
  C59      1.0000 0.15623  0.90157  0.21910  Biso   1.000  C
  C60      1.0000 0.84377  0.59843  0.71910  Biso   1.000  C
  C61      1.0000 0.34377  0.90157  0.28090  Biso   1.000  C
  C62      1.0000 0.65623  0.59843  0.78090  Biso   1.000  C
  C63      1.0000 0.65623  0.40157  0.21910  Biso   1.000  C
  C64      1.0000 0.34377  0.09843  0.71910  Biso   1.000  C
  H17      1.0000 0.09280  0.59870  0.69720  Biso   1.000  H
  H18      1.0000 0.90720  0.90130  0.19720  Biso   1.000  H
  H19      1.0000 0.90720  0.09870  0.80280  Biso   1.000  H
  H20      1.0000 0.09280  0.40130  0.30280  Biso   1.000  H
  H21      1.0000 0.59280  0.09870  0.69720  Biso   1.000  H
  H22      1.0000 0.40720  0.40130  0.19720  Biso   1.000  H
  H23      1.0000 0.40720  0.59870  0.80280  Biso   1.000  H
  H24      1.0000 0.59280  0.90130  0.30280  Biso   1.000  H
  H25      1.0000 0.90720  0.40130  0.30280  Biso   1.000  H
  H26      1.0000 0.09280  0.09870  0.80280  Biso   1.000  H
  H27      1.0000 0.09280  0.90130  0.19720  Biso   1.000  H
  H28      1.0000 0.90720  0.59870  0.69720  Biso   1.000  H
  H29      1.0000 0.40720  0.90130  0.30280  Biso   1.000  H
  H30      1.0000 0.59280  0.59870  0.80280  Biso   1.000  H
  H31      1.0000 0.59280  0.40130  0.19720  Biso   1.000  H
  H32      1.0000 0.40720  0.09870  0.69720  Biso   1.000  H
  C65      1.0000 0.15581  0.50831  0.72000  Biso   1.000  C
  C66      1.0000 0.84419  0.99169  0.22000  Biso   1.000  C
  C67      1.0000 0.84419  0.00831  0.78000  Biso   1.000  C
  C68      1.0000 0.15581  0.49169  0.28000  Biso   1.000  C
  C69      1.0000 0.65581  0.00831  0.72000  Biso   1.000  C
  C70      1.0000 0.34419  0.49169  0.22000  Biso   1.000  C
  C71      1.0000 0.34419  0.50831  0.78000  Biso   1.000  C
  C72      1.0000 0.65581  0.99169  0.28000  Biso   1.000  C
  C73      1.0000 0.84419  0.49169  0.28000  Biso   1.000  C
  C74      1.0000 0.15581  0.00831  0.78000  Biso   1.000  C
  C75      1.0000 0.15581  0.99169  0.22000  Biso   1.000  C
  C76      1.0000 0.84419  0.50831  0.72000  Biso   1.000  C
  C77      1.0000 0.34419  0.99169  0.28000  Biso   1.000  C
  C78      1.0000 0.65581  0.50831  0.78000  Biso   1.000  C
  C79      1.0000 0.65581  0.49169  0.22000  Biso   1.000  C
  C80      1.0000 0.34419  0.00831  0.72000  Biso   1.000  C
  H33      1.0000 0.09200  0.50770  0.69990  Biso   1.000  H
  H34      1.0000 0.90800  0.99230  0.19990  Biso   1.000  H
  H35      1.0000 0.90800  0.00770  0.80010  Biso   1.000  H
  H36      1.0000 0.09200  0.49230  0.30010  Biso   1.000  H
  H37      1.0000 0.59200  0.00770  0.69990  Biso   1.000  H
  H38      1.0000 0.40800  0.49230  0.19990  Biso   1.000  H
  H39      1.0000 0.40800  0.50770  0.80010  Biso   1.000  H
  H40      1.0000 0.59200  0.99230  0.30010  Biso   1.000  H
  H41      1.0000 0.90800  0.49230  0.30010  Biso   1.000  H
  H42      1.0000 0.09200  0.00770  0.80010  Biso   1.000  H
  H43      1.0000 0.09200  0.99230  0.19990  Biso   1.000  H
  H44      1.0000 0.90800  0.50770  0.69990  Biso   1.000  H
  H45      1.0000 0.40800  0.99230  0.30010  Biso   1.000  H
  H46      1.0000 0.59200  0.50770  0.80010  Biso   1.000  H
  H47      1.0000 0.59200  0.49230  0.19990  Biso   1.000  H
  H48      1.0000 0.40800  0.00770  0.69990  Biso   1.000  H
  C81      1.0000 0.18669  0.79512  0.59660  Biso   1.000  C
  C82      1.0000 0.81331  0.70488  0.09660  Biso   1.000  C
  C83      1.0000 0.81331  0.29512  0.90340  Biso   1.000  C
  C84      1.0000 0.18669  0.20488  0.40340  Biso   1.000  C
  C85      1.0000 0.68669  0.29512  0.59660  Biso   1.000  C
  C86      1.0000 0.31331  0.20488  0.09660  Biso   1.000  C
  C87      1.0000 0.31331  0.79512  0.90340  Biso   1.000  C
  C88      1.0000 0.68669  0.70488  0.40340  Biso   1.000  C
  C89      1.0000 0.81331  0.20488  0.40340  Biso   1.000  C
  C90      1.0000 0.18669  0.29512  0.90340  Biso   1.000  C
  C91      1.0000 0.18669  0.70488  0.09660  Biso   1.000  C
  C92      1.0000 0.81331  0.79512  0.59660  Biso   1.000  C
  C93      1.0000 0.31331  0.70488  0.40340  Biso   1.000  C
  C94      1.0000 0.68669  0.79512  0.90340  Biso   1.000  C
  C95      1.0000 0.68669  0.20488  0.09660  Biso   1.000  C
  C96      1.0000 0.31331  0.29512  0.59660  Biso   1.000  C
  H49      1.0000 0.21670  0.76620  0.61600  Biso   1.000  H
  H50      1.0000 0.78330  0.73380  0.11600  Biso   1.000  H
  H51      1.0000 0.78330  0.26620  0.88400  Biso   1.000  H
  H52      1.0000 0.21670  0.23380  0.38400  Biso   1.000  H
  H53      1.0000 0.71670  0.26620  0.61600  Biso   1.000  H
  H54      1.0000 0.28330  0.23380  0.11600  Biso   1.000  H
  H55      1.0000 0.28330  0.76620  0.88400  Biso   1.000  H
  H56      1.0000 0.71670  0.73380  0.38400  Biso   1.000  H
  H57      1.0000 0.78330  0.23380  0.38400  Biso   1.000  H
  H58      1.0000 0.21670  0.26620  0.88400  Biso   1.000  H
  H59      1.0000 0.21670  0.73380  0.11600  Biso   1.000  H
  H60      1.0000 0.78330  0.76620  0.61600  Biso   1.000  H
  H61      1.0000 0.28330  0.73380  0.38400  Biso   1.000  H
  H62      1.0000 0.71670  0.76620  0.88400  Biso   1.000  H
  H63      1.0000 0.71670  0.23380  0.11600  Biso   1.000  H
  H64      1.0000 0.28330  0.26620  0.61600  Biso   1.000  H
  C97      1.0000 0.05131  0.83844  0.56500  Biso   1.000  C
  C98      1.0000 0.94869  0.66156  0.06500  Biso   1.000  C
  C99      1.0000 0.94869  0.33844  0.93500  Biso   1.000  C
  C100     1.0000 0.05131  0.16156  0.43500  Biso   1.000  C
  C101     1.0000 0.55131  0.33844  0.56500  Biso   1.000  C
  C102     1.0000 0.44869  0.16156  0.06500  Biso   1.000  C
  C103     1.0000 0.44869  0.83844  0.93500  Biso   1.000  C
  C104     1.0000 0.55131  0.66156  0.43500  Biso   1.000  C
  C105     1.0000 0.94869  0.16156  0.43500  Biso   1.000  C
  C106     1.0000 0.05131  0.33844  0.93500  Biso   1.000  C
  C107     1.0000 0.05131  0.66156  0.06500  Biso   1.000  C
  C108     1.0000 0.94869  0.83844  0.56500  Biso   1.000  C
  C109     1.0000 0.44869  0.66156  0.43500  Biso   1.000  C
  C110     1.0000 0.55131  0.83844  0.93500  Biso   1.000  C
  C111     1.0000 0.55131  0.16156  0.06500  Biso   1.000  C
  C112     1.0000 0.44869  0.33844  0.56500  Biso   1.000  C
  C113     1.0000 0.19900  0.87781  0.54070  Biso   1.000  C
  C114     1.0000 0.80100  0.62219  0.04070  Biso   1.000  C
  C115     1.0000 0.80100  0.37781  0.95930  Biso   1.000  C
  C116     1.0000 0.19900  0.12219  0.45930  Biso   1.000  C
  C117     1.0000 0.69900  0.37781  0.54070  Biso   1.000  C
  C118     1.0000 0.30100  0.12219  0.04070  Biso   1.000  C
  C119     1.0000 0.30100  0.87781  0.95930  Biso   1.000  C
  C120     1.0000 0.69900  0.62219  0.45930  Biso   1.000  C
  C121     1.0000 0.80100  0.12219  0.45930  Biso   1.000  C
  C122     1.0000 0.19900  0.37781  0.95930  Biso   1.000  C
  C123     1.0000 0.19900  0.62219  0.04070  Biso   1.000  C
  C124     1.0000 0.80100  0.87781  0.54070  Biso   1.000  C
  C125     1.0000 0.30100  0.62219  0.45930  Biso   1.000  C
  C126     1.0000 0.69900  0.87781  0.95930  Biso   1.000  C
  C127     1.0000 0.69900  0.12219  0.04070  Biso   1.000  C
  C128     1.0000 0.30100  0.37781  0.54070  Biso   1.000  C
  H65      1.0000 0.23540  0.90480  0.52200  Biso   1.000  H
  H66      1.0000 0.76460  0.59520  0.02200  Biso   1.000  H
  H67      1.0000 0.76460  0.40480  0.97800  Biso   1.000  H
  H68      1.0000 0.23540  0.09520  0.47800  Biso   1.000  H
  H69      1.0000 0.73540  0.40480  0.52200  Biso   1.000  H
  H70      1.0000 0.26460  0.09520  0.02200  Biso   1.000  H
  H71      1.0000 0.26460  0.90480  0.97800  Biso   1.000  H
  H72      1.0000 0.73540  0.59520  0.47800  Biso   1.000  H
  H73      1.0000 0.76460  0.09520  0.47800  Biso   1.000  H
  H74      1.0000 0.23540  0.40480  0.97800  Biso   1.000  H
  H75      1.0000 0.23540  0.59520  0.02200  Biso   1.000  H
  H76      1.0000 0.76460  0.90480  0.52200  Biso   1.000  H
  H77      1.0000 0.26460  0.59520  0.47800  Biso   1.000  H
  H78      1.0000 0.73540  0.90480  0.97800  Biso   1.000  H
  H79      1.0000 0.73540  0.09520  0.02200  Biso   1.000  H
  H80      1.0000 0.26460  0.40480  0.52200  Biso   1.000  H
  C129     1.0000 0.10030  0.88067  0.53730  Biso   1.000  C
  C130     1.0000 0.89970  0.61933  0.03730  Biso   1.000  C
  C131     1.0000 0.89970  0.38067  0.96270  Biso   1.000  C
  C132     1.0000 0.10030  0.11933  0.46270  Biso   1.000  C
  C133     1.0000 0.60030  0.38067  0.53730  Biso   1.000  C
  C134     1.0000 0.39970  0.11933  0.03730  Biso   1.000  C
  C135     1.0000 0.39970  0.88067  0.96270  Biso   1.000  C
  C136     1.0000 0.60030  0.61933  0.46270  Biso   1.000  C
  C137     1.0000 0.89970  0.11933  0.46270  Biso   1.000  C
  C138     1.0000 0.10030  0.38067  0.96270  Biso   1.000  C
  C139     1.0000 0.10030  0.61933  0.03730  Biso   1.000  C
  C140     1.0000 0.89970  0.88067  0.53730  Biso   1.000  C
  C141     1.0000 0.39970  0.61933  0.46270  Biso   1.000  C
  C142     1.0000 0.60030  0.88067  0.96270  Biso   1.000  C
  C143     1.0000 0.60030  0.11933  0.03730  Biso   1.000  C
  C144     1.0000 0.39970  0.38067  0.53730  Biso   1.000  C
  C145     1.0000 0.04790  0.92318  0.50770  Biso   1.000  C
  C146     1.0000 0.95210  0.57682  0.00770  Biso   1.000  C
  C147     1.0000 0.95210  0.42318  0.99230  Biso   1.000  C
  C148     1.0000 0.04790  0.07682  0.49230  Biso   1.000  C
  C149     1.0000 0.54790  0.42318  0.50770  Biso   1.000  C
  C150     1.0000 0.45210  0.07682  0.00770  Biso   1.000  C
  C151     1.0000 0.45210  0.92318  0.99230  Biso   1.000  C
  C152     1.0000 0.54790  0.57682  0.49230  Biso   1.000  C
  C153     1.0000 0.95210  0.07682  0.49230  Biso   1.000  C
  C154     1.0000 0.04790  0.42318  0.99230  Biso   1.000  C
  C155     1.0000 0.04790  0.57682  0.00770  Biso   1.000  C
  C156     1.0000 0.95210  0.92318  0.50770  Biso   1.000  C
  C157     1.0000 0.45210  0.57682  0.49230  Biso   1.000  C
  C158     1.0000 0.54790  0.92318  0.99230  Biso   1.000  C
  C159     1.0000 0.54790  0.07682  0.00770  Biso   1.000  C
  C160     1.0000 0.45210  0.42318  0.50770  Biso   1.000  C
  H81      1.0000 0.08010  0.95140  0.48800  Biso   1.000  H
  H82      1.0000 0.91990  0.54860  0.98800  Biso   1.000  H
  H83      1.0000 0.91990  0.45140  0.01200  Biso   1.000  H
  H84      1.0000 0.08010  0.04860  0.51200  Biso   1.000  H
  H85      1.0000 0.58010  0.45140  0.48800  Biso   1.000  H
  H86      1.0000 0.41990  0.04860  0.98800  Biso   1.000  H
  H87      1.0000 0.41990  0.95140  0.01200  Biso   1.000  H
  H88      1.0000 0.58010  0.54860  0.51200  Biso   1.000  H
  H89      1.0000 0.91990  0.04860  0.51200  Biso   1.000  H
  H90      1.0000 0.08010  0.45140  0.01200  Biso   1.000  H
  H91      1.0000 0.08010  0.54860  0.98800  Biso   1.000  H
  H92      1.0000 0.91990  0.95140  0.48800  Biso   1.000  H
  H93      1.0000 0.41990  0.54860  0.51200  Biso   1.000  H
  H94      1.0000 0.58010  0.95140  0.01200  Biso   1.000  H
  H95      1.0000 0.58010  0.04860  0.98800  Biso   1.000  H
  H96      1.0000 0.41990  0.45140  0.48800  Biso   1.000  H
  C161     1.0000 0.24130  0.83554  0.57130  Biso   1.000  C
  C162     1.0000 0.75870  0.66446  0.07130  Biso   1.000  C
  C163     1.0000 0.75870  0.33554  0.92870  Biso   1.000  C
  C164     1.0000 0.24130  0.16446  0.42870  Biso   1.000  C
  C165     1.0000 0.74130  0.33554  0.57130  Biso   1.000  C
  C166     1.0000 0.25870  0.16446  0.07130  Biso   1.000  C
  C167     1.0000 0.25870  0.83554  0.92870  Biso   1.000  C
  C168     1.0000 0.74130  0.66446  0.42870  Biso   1.000  C
  C169     1.0000 0.75870  0.16446  0.42870  Biso   1.000  C
  C170     1.0000 0.24130  0.33554  0.92870  Biso   1.000  C
  C171     1.0000 0.24130  0.66446  0.07130  Biso   1.000  C
  C172     1.0000 0.75870  0.83554  0.57130  Biso   1.000  C
  C173     1.0000 0.25870  0.66446  0.42870  Biso   1.000  C
  C174     1.0000 0.74130  0.83554  0.92870  Biso   1.000  C
  C175     1.0000 0.74130  0.16446  0.07130  Biso   1.000  C
  C176     1.0000 0.25870  0.33554  0.57130  Biso   1.000  C
  H97      1.0000 0.30690  0.83370  0.57540  Biso   1.000  H
  H98      1.0000 0.69310  0.66630  0.07540  Biso   1.000  H
  H99      1.0000 0.69310  0.33370  0.92460  Biso   1.000  H
  H100     1.0000 0.30690  0.16630  0.42460  Biso   1.000  H
  H101     1.0000 0.80690  0.33370  0.57540  Biso   1.000  H
  H102     1.0000 0.19310  0.16630  0.07540  Biso   1.000  H
  H103     1.0000 0.19310  0.83370  0.92460  Biso   1.000  H
  H104     1.0000 0.80690  0.66630  0.42460  Biso   1.000  H
  H105     1.0000 0.69310  0.16630  0.42460  Biso   1.000  H
  H106     1.0000 0.30690  0.33370  0.92460  Biso   1.000  H
  H107     1.0000 0.30690  0.66630  0.07540  Biso   1.000  H
  H108     1.0000 0.69310  0.83370  0.57540  Biso   1.000  H
  H109     1.0000 0.19310  0.66630  0.42460  Biso   1.000  H
  H110     1.0000 0.80690  0.83370  0.92460  Biso   1.000  H
  H111     1.0000 0.80690  0.16630  0.07540  Biso   1.000  H
  H112     1.0000 0.19310  0.33370  0.57540  Biso   1.000  H
  C177     1.0000 0.20196  0.46586  0.73440  Biso   1.000  C
  C178     1.0000 0.79804  0.03414  0.23440  Biso   1.000  C
  C179     1.0000 0.79804  0.96586  0.76560  Biso   1.000  C
  C180     1.0000 0.20196  0.53414  0.26560  Biso   1.000  C
  C181     1.0000 0.70196  0.96586  0.73440  Biso   1.000  C
  C182     1.0000 0.29804  0.53414  0.23440  Biso   1.000  C
  C183     1.0000 0.29804  0.46586  0.76560  Biso   1.000  C
  C184     1.0000 0.70196  0.03414  0.26560  Biso   1.000  C
  C185     1.0000 0.79804  0.53414  0.26560  Biso   1.000  C
  C186     1.0000 0.20196  0.96586  0.76560  Biso   1.000  C
  C187     1.0000 0.20196  0.03414  0.23440  Biso   1.000  C
  C188     1.0000 0.79804  0.46586  0.73440  Biso   1.000  C
  C189     1.0000 0.29804  0.03414  0.26560  Biso   1.000  C
  C190     1.0000 0.70196  0.46586  0.76560  Biso   1.000  C
  C191     1.0000 0.70196  0.53414  0.23440  Biso   1.000  C
  C192     1.0000 0.29804  0.96586  0.73440  Biso   1.000  C
  H113     1.0000 0.17010  0.43670  0.72370  Biso   1.000  H
  H114     1.0000 0.82990  0.06330  0.22370  Biso   1.000  H
  H115     1.0000 0.82990  0.93670  0.77630  Biso   1.000  H
  H116     1.0000 0.17010  0.56330  0.27630  Biso   1.000  H
  H117     1.0000 0.67010  0.93670  0.72370  Biso   1.000  H
  H118     1.0000 0.32990  0.56330  0.22370  Biso   1.000  H
  H119     1.0000 0.32990  0.43670  0.77630  Biso   1.000  H
  H120     1.0000 0.67010  0.06330  0.27630  Biso   1.000  H
  H121     1.0000 0.82990  0.56330  0.27630  Biso   1.000  H
  H122     1.0000 0.17010  0.93670  0.77630  Biso   1.000  H
  H123     1.0000 0.17010  0.06330  0.22370  Biso   1.000  H
  H124     1.0000 0.82990  0.43670  0.72370  Biso   1.000  H
  H125     1.0000 0.32990  0.06330  0.27630  Biso   1.000  H
  H126     1.0000 0.67010  0.43670  0.77630  Biso   1.000  H
  H127     1.0000 0.67010  0.56330  0.22370  Biso   1.000  H
  H128     1.0000 0.32990  0.93670  0.72370  Biso   1.000  H
  C193     1.0000 0.00000  0.60190  0.43980  Biso   1.000  C
  C194     1.0000 0.00000  0.89810  0.93980  Biso   1.000  C
  C195     1.0000 0.00000  0.10190  0.06020  Biso   1.000  C
  C196     1.0000 0.00000  0.39810  0.56020  Biso   1.000  C
  C197     1.0000 0.50000  0.10190  0.43980  Biso   1.000  C
  C198     1.0000 0.50000  0.39810  0.93980  Biso   1.000  C
  C199     1.0000 0.50000  0.60190  0.06020  Biso   1.000  C
  C200     1.0000 0.50000  0.89810  0.56020  Biso   1.000  C
  O41      1.0000 0.00000  0.62550  0.33760  Biso   1.000  O
  O42      1.0000 0.00000  0.87450  0.83760  Biso   1.000  O
  O43      1.0000 0.00000  0.12550  0.16240  Biso   1.000  O
  O44      1.0000 0.00000  0.37450  0.66240  Biso   1.000  O
  O45      1.0000 0.50000  0.12550  0.33760  Biso   1.000  O
  O46      1.0000 0.50000  0.37450  0.83760  Biso   1.000  O
  O47      1.0000 0.50000  0.62550  0.16240  Biso   1.000  O
  O48      1.0000 0.50000  0.87450  0.66240  Biso   1.000  O
  H129     1.0000 0.93810  0.60330  0.47500  Biso   1.000  H
  H130     1.0000 0.06190  0.89670  0.97500  Biso   1.000  H
  H131     1.0000 0.06190  0.10330  0.02500  Biso   1.000  H
  H132     1.0000 0.93810  0.39670  0.52500  Biso   1.000  H
  H133     1.0000 0.43810  0.10330  0.47500  Biso   1.000  H
  H134     1.0000 0.56190  0.39670  0.97500  Biso   1.000  H
  H135     1.0000 0.56190  0.60330  0.02500  Biso   1.000  H
  H136     1.0000 0.43810  0.89670  0.52500  Biso   1.000  H
  H137     1.0000 0.06190  0.39670  0.52500  Biso   1.000  H
  H138     1.0000 0.93810  0.10330  0.02500  Biso   1.000  H
  H139     1.0000 0.93810  0.89670  0.97500  Biso   1.000  H
  H140     1.0000 0.06190  0.60330  0.47500  Biso   1.000  H
  H141     1.0000 0.56190  0.89670  0.52500  Biso   1.000  H
  H142     1.0000 0.43810  0.60330  0.02500  Biso   1.000  H
  H143     1.0000 0.43810  0.39670  0.97500  Biso   1.000  H
  H144     1.0000 0.56190  0.10330  0.47500  Biso   1.000  H
  H145     1.0000 0.04500  0.61630  0.49340  Biso   1.000  H
  H146     1.0000 0.95500  0.88370  0.99340  Biso   1.000  H
  H147     1.0000 0.95500  0.11630  0.00660  Biso   1.000  H
  H148     1.0000 0.04500  0.38370  0.50660  Biso   1.000  H
  H149     1.0000 0.54500  0.11630  0.49340  Biso   1.000  H
  H150     1.0000 0.45500  0.38370  0.99340  Biso   1.000  H
  H151     1.0000 0.45500  0.61630  0.00660  Biso   1.000  H
  H152     1.0000 0.54500  0.88370  0.50660  Biso   1.000  H
  H153     1.0000 0.95500  0.38370  0.50660  Biso   1.000  H
  H154     1.0000 0.04500  0.11630  0.00660  Biso   1.000  H
  H155     1.0000 0.04500  0.88370  0.99340  Biso   1.000  H
  H156     1.0000 0.95500  0.61630  0.49340  Biso   1.000  H
  H157     1.0000 0.45500  0.88370  0.50660  Biso   1.000  H
  H158     1.0000 0.54500  0.61630  0.00660  Biso   1.000  H
  H159     1.0000 0.54500  0.38370  0.99340  Biso   1.000  H
  H160     1.0000 0.45500  0.11630  0.49340  Biso   1.000  H
  H161     1.0000 0.01680  0.56870  0.42560  Biso   1.000  H
  H162     1.0000 0.98320  0.93130  0.92560  Biso   1.000  H
  H163     1.0000 0.98320  0.06870  0.07440  Biso   1.000  H
  H164     1.0000 0.01680  0.43130  0.57440  Biso   1.000  H
  H165     1.0000 0.51680  0.06870  0.42560  Biso   1.000  H
  H166     1.0000 0.48320  0.43130  0.92560  Biso   1.000  H
  H167     1.0000 0.48320  0.56870  0.07440  Biso   1.000  H
  H168     1.0000 0.51680  0.93130  0.57440  Biso   1.000  H
  H169     1.0000 0.98320  0.43130  0.57440  Biso   1.000  H
  H170     1.0000 0.01680  0.06870  0.07440  Biso   1.000  H
  H171     1.0000 0.01680  0.93130  0.92560  Biso   1.000  H
  H172     1.0000 0.98320  0.56870  0.42560  Biso   1.000  H
  H173     1.0000 0.48320  0.93130  0.57440  Biso   1.000  H
  H174     1.0000 0.51680  0.56870  0.07440  Biso   1.000  H
  H175     1.0000 0.51680  0.43130  0.92560  Biso   1.000  H
  H176     1.0000 0.48320  0.06870  0.42560  Biso   1.000  H
  H177     1.0000 0.99250  0.65450  0.35060  Biso   1.000  H
  H178     1.0000 0.00750  0.84550  0.85060  Biso   1.000  H
  H179     1.0000 0.00750  0.15450  0.14940  Biso   1.000  H
  H180     1.0000 0.99250  0.34550  0.64940  Biso   1.000  H
  H181     1.0000 0.49250  0.15450  0.35060  Biso   1.000  H
  H182     1.0000 0.50750  0.34550  0.85060  Biso   1.000  H
  H183     1.0000 0.50750  0.65450  0.14940  Biso   1.000  H
  H184     1.0000 0.49250  0.84550  0.64940  Biso   1.000  H
  H185     1.0000 0.00750  0.34550  0.64940  Biso   1.000  H
  H186     1.0000 0.99250  0.15450  0.14940  Biso   1.000  H
  H187     1.0000 0.99250  0.84550  0.85060  Biso   1.000  H
  H188     1.0000 0.00750  0.65450  0.35060  Biso   1.000  H
  H189     1.0000 0.50750  0.84550  0.64940  Biso   1.000  H
  H190     1.0000 0.49250  0.65450  0.14940  Biso   1.000  H
  H191     1.0000 0.49250  0.34550  0.85060  Biso   1.000  H
  H192     1.0000 0.50750  0.15450  0.35060  Biso   1.000  H
