data_image0
_cell_length_a       9.6284
_cell_length_b       10.514
_cell_length_c       14.061
_cell_angle_alpha    86.95
_cell_angle_beta     82.634
_cell_angle_gamma    84.638

_symmetry_space_group_name_H-M    "P 1"
_symmetry_int_tables_number       1

loop_
  _symmetry_equiv_pos_as_xyz
  'x, y, z'

loop_
  _atom_site_label
  _atom_site_occupancy
  _atom_site_fract_x
  _atom_site_fract_y
  _atom_site_fract_z
  _atom_site_thermal_displace_type
  _atom_site_B_iso_or_equiv
  _atom_site_type_symbol
  Cu1      1.0000 0.73682  0.38286  0.22768  Biso   1.000  Cu
  Cu2      1.0000 0.26318  0.61714  0.77232  Biso   1.000  Cu
  Cl1      1.0000 0.52659  0.15993  0.15616  Biso   1.000  Cl
  Cl2      1.0000 0.47341  0.84007  0.84384  Biso   1.000  Cl
  Cl3      1.0000 0.04531  0.26708  0.67794  Biso   1.000  Cl
  Cl4      1.0000 0.95469  0.73292  0.32206  Biso   1.000  Cl
  O1       1.0000 0.89350  0.26684  0.17600  Biso   1.000  O
  O2       1.0000 0.10650  0.73316  0.82400  Biso   1.000  O
  O3       1.0000 0.69640  0.09310  0.76730  Biso   1.000  O
  O4       1.0000 0.30360  0.90690  0.23270  Biso   1.000  O
  H1       1.0000 0.77900  0.12400  0.74700  Biso   1.000  H
  H2       1.0000 0.22100  0.87600  0.25300  Biso   1.000  H
  H3       1.0000 0.71600  0.01300  0.78500  Biso   1.000  H
  H4       1.0000 0.28400  0.98700  0.21500  Biso   1.000  H
  O5       1.0000 0.06366  0.11347  0.18831  Biso   1.000  O
  O6       1.0000 0.93634  0.88653  0.81169  Biso   1.000  O
  O7       1.0000 0.60490  0.28720  0.89630  Biso   1.000  O
  O8       1.0000 0.39510  0.71280  0.10370  Biso   1.000  O
  H5       1.0000 0.57300  0.24700  0.95500  Biso   1.000  H
  H6       1.0000 0.42700  0.75300  0.04500  Biso   1.000  H
  H7       1.0000 0.60200  0.21800  0.85700  Biso   1.000  H
  H8       1.0000 0.39800  0.78200  0.14300  Biso   1.000  H
  O9       1.0000 0.71336  0.28139  0.34603  Biso   1.000  O
  O10      1.0000 0.28664  0.71861  0.65397  Biso   1.000  O
  O11      1.0000 0.78008  0.12856  0.44779  Biso   1.000  O
  O12      1.0000 0.21992  0.87144  0.55221  Biso   1.000  O
  O13      1.0000 0.61830  0.07458  0.20754  Biso   1.000  O
  O14      1.0000 0.38170  0.92542  0.79246  Biso   1.000  O
  O15      1.0000 0.58480  0.28179  0.13822  Biso   1.000  O
  O16      1.0000 0.41520  0.71821  0.86178  Biso   1.000  O
  O17      1.0000 0.51270  0.10870  0.06554  Biso   1.000  O
  O18      1.0000 0.48730  0.89130  0.93446  Biso   1.000  O
  O19      1.0000 0.39080  0.17980  0.21162  Biso   1.000  O
  O20      1.0000 0.60920  0.82020  0.78838  Biso   1.000  O
  O21      1.0000 0.15800  0.17960  0.70439  Biso   1.000  O
  O22      1.0000 0.84200  0.82040  0.29561  Biso   1.000  O
  O23      1.0000 0.00310  0.35350  0.75267  Biso   1.000  O
  O24      1.0000 0.99690  0.64650  0.24733  Biso   1.000  O
  O25      1.0000 0.09110  0.33750  0.59195  Biso   1.000  O
  O26      1.0000 0.90890  0.66250  0.40805  Biso   1.000  O
  O27      1.0000 0.92920  0.20170  0.65930  Biso   1.000  O
  O28      1.0000 0.07080  0.79830  0.34070  Biso   1.000  O
  N1       1.0000 0.76700  0.50054  0.11139  Biso   1.000  N
  N2       1.0000 0.23300  0.49946  0.88861  Biso   1.000  N
  N3       1.0000 0.88880  0.91571  0.00109  Biso   1.000  N
  N4       1.0000 0.11120  0.08429  0.99891  Biso   1.000  N
  H9       1.0000 0.90800  0.89300  0.94070  Biso   1.000  H
  H10      1.0000 0.09200  0.10700  0.05930  Biso   1.000  H
  N5       1.0000 0.41840  0.49713  0.70917  Biso   1.000  N
  N6       1.0000 0.58160  0.50287  0.29083  Biso   1.000  N
  N7       1.0000 0.50580  0.13760  0.50198  Biso   1.000  N
  N8       1.0000 0.49420  0.86240  0.49802  Biso   1.000  N
  H11      1.0000 0.60180  0.13700  0.48600  Biso   1.000  H
  H12      1.0000 0.39820  0.86300  0.51400  Biso   1.000  H
  C1       1.0000 0.97290  0.19430  0.22604  Biso   1.000  C
  C2       1.0000 0.02710  0.80570  0.77396  Biso   1.000  C
  C3       1.0000 0.96260  0.21080  0.33488  Biso   1.000  C
  C4       1.0000 0.03740  0.78920  0.66512  Biso   1.000  C
  C5       1.0000 0.80850  0.20460  0.37928  Biso   1.000  C
  C6       1.0000 0.19150  0.79540  0.62072  Biso   1.000  C
  C7       1.0000 0.00620  0.34550  0.35020  Biso   1.000  C
  C8       1.0000 0.99380  0.65450  0.64980  Biso   1.000  C
  H13      1.0000 0.94510  0.41020  0.31900  Biso   1.000  H
  H14      1.0000 0.05490  0.58980  0.68100  Biso   1.000  H
  H15      1.0000 0.10410  0.35160  0.32230  Biso   1.000  H
  H16      1.0000 0.89590  0.64840  0.67770  Biso   1.000  H
  H17      1.0000 0.99690  0.36000  0.41910  Biso   1.000  H
  H18      1.0000 0.00310  0.64000  0.58090  Biso   1.000  H
  C9       1.0000 0.05780  0.11030  0.38300  Biso   1.000  C
  C10      1.0000 0.94220  0.88970  0.61700  Biso   1.000  C
  H19      1.0000 0.04830  0.12420  0.45200  Biso   1.000  H
  H20      1.0000 0.95170  0.87580  0.54800  Biso   1.000  H
  H21      1.0000 0.15570  0.11720  0.35530  Biso   1.000  H
  H22      1.0000 0.84430  0.88280  0.64470  Biso   1.000  H
  H23      1.0000 0.03090  0.02500  0.37280  Biso   1.000  H
  H24      1.0000 0.96910  0.97500  0.62720  Biso   1.000  H
  C11      1.0000 0.78870  0.45050  0.02408  Biso   1.000  C
  C12      1.0000 0.21130  0.54950  0.97592  Biso   1.000  C
  H25      1.0000 0.79370  0.36020  0.02010  Biso   1.000  H
  H26      1.0000 0.20630  0.63980  0.97990  Biso   1.000  H
  C13      1.0000 0.80400  0.52420  0.94040  Biso   1.000  C
  C14      1.0000 0.19600  0.47580  0.05960  Biso   1.000  C
  H27      1.0000 0.81970  0.48540  0.88000  Biso   1.000  H
  H28      1.0000 0.18030  0.51460  0.12000  Biso   1.000  H
  C15      1.0000 0.79620  0.65610  0.94548  Biso   1.000  C
  C16      1.0000 0.20380  0.34390  0.05452  Biso   1.000  C
  H29      1.0000 0.80420  0.70920  0.88860  Biso   1.000  H
  H30      1.0000 0.19580  0.29080  0.11140  Biso   1.000  H
  C17      1.0000 0.77660  0.70960  0.03496  Biso   1.000  C
  C18      1.0000 0.22340  0.29040  0.96504  Biso   1.000  C
  C19      1.0000 0.76190  0.62850  0.11544  Biso   1.000  C
  C20      1.0000 0.23810  0.37150  0.88456  Biso   1.000  C
  H31      1.0000 0.74750  0.66490  0.17670  Biso   1.000  H
  H32      1.0000 0.25250  0.33510  0.82330  Biso   1.000  H
  C21      1.0000 0.76110  0.85290  0.04650  Biso   1.000  C
  C22      1.0000 0.23890  0.14710  0.95350  Biso   1.000  C
  H33      1.0000 0.67800  0.89060  0.01690  Biso   1.000  H
  H34      1.0000 0.32200  0.10940  0.98310  Biso   1.000  H
  H35      1.0000 0.74470  0.87040  0.11570  Biso   1.000  H
  H36      1.0000 0.25530  0.12960  0.88430  Biso   1.000  H
  C23      1.0000 0.01410  0.87950  0.05230  Biso   1.000  C
  C24      1.0000 0.98590  0.12050  0.94770  Biso   1.000  C
  H37      1.0000 0.03440  0.78550  0.05390  Biso   1.000  H
  H38      1.0000 0.96560  0.21450  0.94610  Biso   1.000  H
  H39      1.0000 0.99390  0.90700  0.11930  Biso   1.000  H
  H40      1.0000 0.00610  0.09300  0.88070  Biso   1.000  H
  C25      1.0000 0.85940  0.05830  0.99751  Biso   1.000  C
  C26      1.0000 0.14060  0.94170  0.00249  Biso   1.000  C
  H41      1.0000 0.83650  0.08880  0.06360  Biso   1.000  H
  H42      1.0000 0.16350  0.91120  0.93640  Biso   1.000  H
  H43      1.0000 0.77740  0.08270  0.96250  Biso   1.000  H
  H44      1.0000 0.22260  0.91730  0.03750  Biso   1.000  H
  C27      1.0000 0.55130  0.49070  0.72970  Biso   1.000  C
  C28      1.0000 0.44870  0.50930  0.27030  Biso   1.000  C
  H45      1.0000 0.57290  0.53880  0.78030  Biso   1.000  H
  H46      1.0000 0.42710  0.46120  0.21970  Biso   1.000  H
  C29      1.0000 0.65750  0.41490  0.67840  Biso   1.000  C
  C30      1.0000 0.34250  0.58510  0.32160  Biso   1.000  C
  H47      1.0000 0.75130  0.41290  0.69310  Biso   1.000  H
  H48      1.0000 0.24870  0.58710  0.30690  Biso   1.000  H
  C31      1.0000 0.62730  0.34290  0.60650  Biso   1.000  C
  C32      1.0000 0.37270  0.65710  0.39350  Biso   1.000  C
  H49      1.0000 0.69990  0.29150  0.57070  Biso   1.000  H
  H50      1.0000 0.30010  0.70850  0.42930  Biso   1.000  H
  C33      1.0000 0.48910  0.34580  0.58643  Biso   1.000  C
  C34      1.0000 0.51090  0.65420  0.41357  Biso   1.000  C
  C35      1.0000 0.38920  0.42580  0.63898  Biso   1.000  C
  C36      1.0000 0.61080  0.57420  0.36102  Biso   1.000  C
  H51      1.0000 0.29500  0.43060  0.62470  Biso   1.000  H
  H52      1.0000 0.70500  0.56940  0.37530  Biso   1.000  H
  C37      1.0000 0.44250  0.27300  0.50836  Biso   1.000  C
  C38      1.0000 0.55750  0.72700  0.49164  Biso   1.000  C
  H53      1.0000 0.53290  0.68120  0.55400  Biso   1.000  H
  H54      1.0000 0.46710  0.31880  0.44600  Biso   1.000  H
  H55      1.0000 0.66110  0.72720  0.48070  Biso   1.000  H
  H56      1.0000 0.33890  0.27280  0.51930  Biso   1.000  H
  C39      1.0000 0.45020  0.07590  0.42324  Biso   1.000  C
  C40      1.0000 0.54980  0.92410  0.57676  Biso   1.000  C
  H57      1.0000 0.34750  0.07180  0.43940  Biso   1.000  H
  H58      1.0000 0.65250  0.92820  0.56060  Biso   1.000  H
  H59      1.0000 0.46640  0.12860  0.36310  Biso   1.000  H
  H60      1.0000 0.53360  0.87140  0.63690  Biso   1.000  H
  C41      1.0000 0.51980  0.94220  0.40762  Biso   1.000  C
  C42      1.0000 0.48020  0.05780  0.59238  Biso   1.000  C
  H61      1.0000 0.51910  0.09620  0.64490  Biso   1.000  H
  H62      1.0000 0.48090  0.90380  0.35510  Biso   1.000  H
  H63      1.0000 0.37780  0.05430  0.61090  Biso   1.000  H
  H64      1.0000 0.62220  0.94570  0.38910  Biso   1.000  H
