data_image0
_cell_length_a       11.388
_cell_length_b       11.772
_cell_length_c       7.875
_cell_angle_alpha    100.3
_cell_angle_beta     80.2
_cell_angle_gamma    102.2

_symmetry_space_group_name_H-M    "P 1"
_symmetry_int_tables_number       1

loop_
  _symmetry_equiv_pos_as_xyz
  'x, y, z'

loop_
  _atom_site_label
  _atom_site_occupancy
  _atom_site_fract_x
  _atom_site_fract_y
  _atom_site_fract_z
  _atom_site_thermal_displace_type
  _atom_site_B_iso_or_equiv
  _atom_site_type_symbol
  Ag1      1.0000 0.87130  0.83370  0.22450  Biso   1.000  Ag
  Ag2      1.0000 0.12870  0.16630  0.77550  Biso   1.000  Ag
  Cu1      1.0000 0.55490  0.88370  0.76130  Biso   1.000  Cu
  Cu2      1.0000 0.44510  0.11630  0.23870  Biso   1.000  Cu
  Cu3      1.0000 0.63000  0.04520  0.46500  Biso   1.000  Cu
  Cu4      1.0000 0.37000  0.95480  0.53500  Biso   1.000  Cu
  O1       1.0000 0.61490  0.76340  0.83840  Biso   1.000  O
  O2       1.0000 0.38510  0.23660  0.16160  Biso   1.000  O
  O3       1.0000 0.54170  0.83190  0.10180  Biso   1.000  O
  O4       1.0000 0.45830  0.16810  0.89820  Biso   1.000  O
  O5       1.0000 0.52520  0.76630  0.51030  Biso   1.000  O
  O6       1.0000 0.47480  0.23370  0.48970  Biso   1.000  O
  O7       1.0000 0.69240  0.86260  0.38490  Biso   1.000  O
  O8       1.0000 0.30760  0.13740  0.61510  Biso   1.000  O
  O9       1.0000 0.37790  0.82660  0.85970  Biso   1.000  O
  O10      1.0000 0.62210  0.17340  0.14030  Biso   1.000  O
  O11      1.0000 0.25670  0.90070  0.72750  Biso   1.000  O
  O12      1.0000 0.74330  0.09930  0.27250  Biso   1.000  O
  O13      1.0000 0.25250  0.87600  0.38260  Biso   1.000  O
  O14      1.0000 0.74750  0.12400  0.61740  Biso   1.000  O
  O15      1.0000 0.29170  0.99250  0.17200  Biso   1.000  O
  O16      1.0000 0.70830  0.00750  0.82800  Biso   1.000  O
  O17      1.0000 0.50930  0.00200  0.66220  Biso   1.000  O
  O18      1.0000 0.49070  0.99800  0.33780  Biso   1.000  O
  O19      1.0000 0.29240  0.64690  0.43170  Biso   1.000  O
  O20      1.0000 0.70760  0.35310  0.56830  Biso   1.000  O
  O21      1.0000 0.10610  0.45880  0.46190  Biso   1.000  O
  O22      1.0000 0.89390  0.54120  0.53810  Biso   1.000  O
  O23      1.0000 0.15350  0.24120  0.36380  Biso   1.000  O
  O24      1.0000 0.84650  0.75880  0.63620  Biso   1.000  O
  O25      1.0000 0.88400  0.91450  0.97140  Biso   1.000  O
  O26      1.0000 0.11600  0.08550  0.02860  Biso   1.000  O
  O27      1.0000 0.96680  0.03610  0.36330  Biso   1.000  O
  O28      1.0000 0.03320  0.96390  0.63670  Biso   1.000  O
  C1       1.0000 0.62580  0.66280  0.07310  Biso   1.000  C
  C2       1.0000 0.37420  0.33720  0.92690  Biso   1.000  C
  C3       1.0000 0.62290  0.66760  0.25330  Biso   1.000  C
  C4       1.0000 0.37710  0.33240  0.74670  Biso   1.000  C
  C5       1.0000 0.63720  0.56780  0.31590  Biso   1.000  C
  C6       1.0000 0.36280  0.43220  0.68410  Biso   1.000  C
  C7       1.0000 0.66010  0.46870  0.20030  Biso   1.000  C
  C8       1.0000 0.33990  0.53130  0.79970  Biso   1.000  C
  C9       1.0000 0.66630  0.46640  0.02210  Biso   1.000  C
  C10      1.0000 0.33370  0.53360  0.97790  Biso   1.000  C
  C11      1.0000 0.65010  0.56360  0.96240  Biso   1.000  C
  C12      1.0000 0.34990  0.43640  0.03760  Biso   1.000  C
  C13      1.0000 0.59360  0.76180  0.00020  Biso   1.000  C
  C14      1.0000 0.40640  0.23820  0.99980  Biso   1.000  C
  C15      1.0000 0.61020  0.77380  0.39140  Biso   1.000  C
  C16      1.0000 0.38980  0.22620  0.60860  Biso   1.000  C
  C17      1.0000 0.16690  0.78970  0.95400  Biso   1.000  C
  C18      1.0000 0.83310  0.21030  0.04600  Biso   1.000  C
  C19      1.0000 0.15380  0.80930  0.13400  Biso   1.000  C
  C20      1.0000 0.84620  0.19070  0.86600  Biso   1.000  C
  C21      1.0000 0.05790  0.74430  0.22930  Biso   1.000  C
  C22      1.0000 0.94210  0.25570  0.77070  Biso   1.000  C
  C23      1.0000 0.97300  0.66070  0.14270  Biso   1.000  C
  C24      1.0000 0.02700  0.33930  0.85730  Biso   1.000  C
  C25      1.0000 0.98630  0.64360  0.96470  Biso   1.000  C
  C26      1.0000 0.01370  0.35640  0.03530  Biso   1.000  C
  C27      1.0000 0.08170  0.70700  0.86930  Biso   1.000  C
  C28      1.0000 0.91830  0.29300  0.13070  Biso   1.000  C
  C29      1.0000 0.27770  0.84560  0.84270  Biso   1.000  C
  C30      1.0000 0.72230  0.15440  0.15730  Biso   1.000  C
  C31      1.0000 0.24060  0.90140  0.23440  Biso   1.000  C
  C32      1.0000 0.75940  0.09860  0.76560  Biso   1.000  C
  H1       1.0000 0.49400  0.04100  0.75600  Biso   1.000  H
  H2       1.0000 0.50600  0.95900  0.24400  Biso   1.000  H
  H3       1.0000 0.63800  0.56700  0.43600  Biso   1.000  H
  H4       1.0000 0.36200  0.43300  0.56400  Biso   1.000  H
  H5       1.0000 0.67300  0.39300  0.24600  Biso   1.000  H
  H6       1.0000 0.32700  0.60700  0.75400  Biso   1.000  H
  H7       1.0000 0.68200  0.39600  0.93500  Biso   1.000  H
  H8       1.0000 0.31800  0.60400  0.06500  Biso   1.000  H
  H9       1.0000 0.64800  0.56300  0.85800  Biso   1.000  H
  H10      1.0000 0.35200  0.43700  0.14200  Biso   1.000  H
  H11      1.0000 0.03800  0.74900  0.36400  Biso   1.000  H
  H12      1.0000 0.96200  0.25100  0.63600  Biso   1.000  H
  H13      1.0000 0.92300  0.61200  0.20000  Biso   1.000  H
  H14      1.0000 0.07700  0.38800  0.80000  Biso   1.000  H
  H15      1.0000 0.92600  0.59700  0.91500  Biso   1.000  H
  H16      1.0000 0.07400  0.40300  0.08500  Biso   1.000  H
  H17      1.0000 0.09000  0.69700  0.76100  Biso   1.000  H
  H18      1.0000 0.91000  0.30300  0.23900  Biso   1.000  H
