data_image0
_cell_length_a       25.7353
_cell_length_b       25.7353
_cell_length_c       7.5918
_cell_angle_alpha    90
_cell_angle_beta     90
_cell_angle_gamma    120

_symmetry_space_group_name_H-M    "P 1"
_symmetry_int_tables_number       1

loop_
  _symmetry_equiv_pos_as_xyz
  'x, y, z'

loop_
  _atom_site_label
  _atom_site_occupancy
  _atom_site_fract_x
  _atom_site_fract_y
  _atom_site_fract_z
  _atom_site_thermal_displace_type
  _atom_site_B_iso_or_equiv
  _atom_site_type_symbol
  Cu1      1.0000 0.13637  0.20364  0.56072  Biso   1.000  Cu
  Cu2      1.0000 0.46970  0.87031  0.22739  Biso   1.000  Cu
  Cu3      1.0000 0.80304  0.53697  0.89405  Biso   1.000  Cu
  Cu4      1.0000 0.79636  0.93273  0.56072  Biso   1.000  Cu
  Cu5      1.0000 0.12969  0.59939  0.22739  Biso   1.000  Cu
  Cu6      1.0000 0.46303  0.26606  0.89405  Biso   1.000  Cu
  Cu7      1.0000 0.06727  0.86363  0.56072  Biso   1.000  Cu
  Cu8      1.0000 0.40061  0.53030  0.22739  Biso   1.000  Cu
  Cu9      1.0000 0.73394  0.19696  0.89405  Biso   1.000  Cu
  N1       1.0000 0.20046  0.29698  0.42070  Biso   1.000  N
  N2       1.0000 0.53379  0.96365  0.08737  Biso   1.000  N
  N3       1.0000 0.86713  0.63031  0.75403  Biso   1.000  N
  N4       1.0000 0.70302  0.90348  0.42070  Biso   1.000  N
  N5       1.0000 0.03635  0.57015  0.08737  Biso   1.000  N
  N6       1.0000 0.36969  0.23681  0.75403  Biso   1.000  N
  N7       1.0000 0.09652  0.79954  0.42070  Biso   1.000  N
  N8       1.0000 0.42985  0.46621  0.08737  Biso   1.000  N
  N9       1.0000 0.76319  0.13287  0.75403  Biso   1.000  N
  N10      1.0000 0.07786  0.16041  0.36210  Biso   1.000  N
  N11      1.0000 0.41119  0.82708  0.02877  Biso   1.000  N
  N12      1.0000 0.74453  0.49374  0.69543  Biso   1.000  N
  N13      1.0000 0.83959  0.91745  0.36210  Biso   1.000  N
  N14      1.0000 0.17292  0.58412  0.02877  Biso   1.000  N
  N15      1.0000 0.50626  0.25078  0.69543  Biso   1.000  N
  N16      1.0000 0.08255  0.92214  0.36210  Biso   1.000  N
  N17      1.0000 0.41588  0.58881  0.02877  Biso   1.000  N
  N18      1.0000 0.74922  0.25547  0.69543  Biso   1.000  N
  N19      1.0000 0.07911  0.22978  0.64720  Biso   1.000  N
  N20      1.0000 0.41244  0.89645  0.31387  Biso   1.000  N
  N21      1.0000 0.74578  0.56311  0.98053  Biso   1.000  N
  N22      1.0000 0.77022  0.84933  0.64720  Biso   1.000  N
  N23      1.0000 0.10355  0.51600  0.31387  Biso   1.000  N
  N24      1.0000 0.43689  0.18266  0.98053  Biso   1.000  N
  N25      1.0000 0.15067  0.92089  0.64720  Biso   1.000  N
  N26      1.0000 0.48400  0.58756  0.31387  Biso   1.000  N
  N27      1.0000 0.81734  0.25422  0.98053  Biso   1.000  N
  O1       1.0000 0.32055  0.48069  0.13250  Biso   1.000  O
  O2       1.0000 0.65388  0.14736  0.79917  Biso   1.000  O
  O3       1.0000 0.98722  0.81402  0.46583  Biso   1.000  O
  O4       1.0000 0.51931  0.83986  0.13250  Biso   1.000  O
  O5       1.0000 0.85264  0.50653  0.79917  Biso   1.000  O
  O6       1.0000 0.18598  0.17319  0.46583  Biso   1.000  O
  O7       1.0000 0.16014  0.67945  0.13250  Biso   1.000  O
  O8       1.0000 0.49347  0.34612  0.79917  Biso   1.000  O
  O9       1.0000 0.82681  0.01278  0.46583  Biso   1.000  O
  O10      1.0000 0.38186  0.48174  0.44210  Biso   1.000  O
  O11      1.0000 0.71519  0.14841  0.10877  Biso   1.000  O
  O12      1.0000 0.04853  0.81507  0.77543  Biso   1.000  O
  O13      1.0000 0.51826  0.90012  0.44210  Biso   1.000  O
  O14      1.0000 0.85159  0.56679  0.10877  Biso   1.000  O
  O15      1.0000 0.18493  0.23345  0.77543  Biso   1.000  O
  O16      1.0000 0.09988  0.61814  0.44210  Biso   1.000  O
  O17      1.0000 0.43321  0.28481  0.10877  Biso   1.000  O
  O18      1.0000 0.76655  0.95147  0.77543  Biso   1.000  O
  O19      1.0000 0.07497  0.10511  0.76370  Biso   1.000  O
  O20      1.0000 0.40830  0.77178  0.43037  Biso   1.000  O
  O21      1.0000 0.74164  0.43844  0.09703  Biso   1.000  O
  O22      1.0000 0.89489  0.96986  0.76370  Biso   1.000  O
  O23      1.0000 0.22822  0.63653  0.43037  Biso   1.000  O
  O24      1.0000 0.56156  0.30319  0.09703  Biso   1.000  O
  O25      1.0000 0.03014  0.92503  0.76370  Biso   1.000  O
  O26      1.0000 0.36347  0.59170  0.43037  Biso   1.000  O
  O27      1.0000 0.69681  0.25836  0.09703  Biso   1.000  O
  O28      1.0000 0.14024  0.00840  0.90540  Biso   1.000  O
  O29      1.0000 0.47357  0.67507  0.57207  Biso   1.000  O
  O30      1.0000 0.80691  0.34173  0.23873  Biso   1.000  O
  O31      1.0000 0.99160  0.13184  0.90540  Biso   1.000  O
  O32      1.0000 0.32493  0.79851  0.57207  Biso   1.000  O
  O33      1.0000 0.65827  0.46517  0.23873  Biso   1.000  O
  O34      1.0000 0.86816  0.85976  0.90540  Biso   1.000  O
  O35      1.0000 0.20149  0.52643  0.57207  Biso   1.000  O
  O36      1.0000 0.53483  0.19309  0.23873  Biso   1.000  O
  O37      1.0000 0.16468  0.10677  0.91660  Biso   1.000  O
  O38      1.0000 0.49801  0.77344  0.58327  Biso   1.000  O
  O39      1.0000 0.83135  0.44010  0.24993  Biso   1.000  O
  O40      1.0000 0.89323  0.05791  0.91660  Biso   1.000  O
  O41      1.0000 0.22656  0.72458  0.58327  Biso   1.000  O
  O42      1.0000 0.55990  0.39124  0.24993  Biso   1.000  O
  O43      1.0000 0.94209  0.83532  0.91660  Biso   1.000  O
  O44      1.0000 0.27542  0.50199  0.58327  Biso   1.000  O
  O45      1.0000 0.60876  0.16865  0.24993  Biso   1.000  O
  O46      1.0000 0.22152  0.07654  0.06890  Biso   1.000  O
  O47      1.0000 0.55485  0.74321  0.73557  Biso   1.000  O
  O48      1.0000 0.88819  0.40987  0.40223  Biso   1.000  O
  O49      1.0000 0.92346  0.14498  0.06890  Biso   1.000  O
  O50      1.0000 0.25679  0.81165  0.73557  Biso   1.000  O
  O51      1.0000 0.59013  0.47831  0.40223  Biso   1.000  O
  O52      1.0000 0.85502  0.77848  0.06890  Biso   1.000  O
  O53      1.0000 0.18835  0.44515  0.73557  Biso   1.000  O
  O54      1.0000 0.52169  0.11181  0.40223  Biso   1.000  O
  O55      1.0000 0.23640  0.08400  0.80880  Biso   1.000  O
  O56      1.0000 0.56973  0.75067  0.47547  Biso   1.000  O
  O57      1.0000 0.90307  0.41733  0.14213  Biso   1.000  O
  O58      1.0000 0.91600  0.15240  0.80880  Biso   1.000  O
  O59      1.0000 0.24933  0.81907  0.47547  Biso   1.000  O
  O60      1.0000 0.58267  0.48573  0.14213  Biso   1.000  O
  O61      1.0000 0.84760  0.76360  0.80880  Biso   1.000  O
  O62      1.0000 0.18093  0.43027  0.47547  Biso   1.000  O
  O63      1.0000 0.51427  0.09693  0.14213  Biso   1.000  O
  Cl1      1.0000 0.18809  0.06800  0.91444  Biso   1.000  Cl
  Cl2      1.0000 0.52142  0.73467  0.58111  Biso   1.000  Cl
  Cl3      1.0000 0.85476  0.40133  0.24777  Biso   1.000  Cl
  Cl4      1.0000 0.93200  0.12009  0.91444  Biso   1.000  Cl
  Cl5      1.0000 0.26533  0.78676  0.58111  Biso   1.000  Cl
  Cl6      1.0000 0.59867  0.45342  0.24777  Biso   1.000  Cl
  Cl7      1.0000 0.87991  0.81191  0.91444  Biso   1.000  Cl
  Cl8      1.0000 0.21324  0.47858  0.58111  Biso   1.000  Cl
  Cl9      1.0000 0.54658  0.14524  0.24777  Biso   1.000  Cl
  C1       1.0000 0.22669  0.39507  0.07540  Biso   1.000  C
  C2       1.0000 0.56002  0.06174  0.74207  Biso   1.000  C
  C3       1.0000 0.89336  0.72840  0.40873  Biso   1.000  C
  C4       1.0000 0.60493  0.83162  0.07540  Biso   1.000  C
  C5       1.0000 0.93826  0.49829  0.74207  Biso   1.000  C
  C6       1.0000 0.27160  0.16495  0.40873  Biso   1.000  C
  C7       1.0000 0.16838  0.77331  0.07540  Biso   1.000  C
  C8       1.0000 0.50171  0.43998  0.74207  Biso   1.000  C
  C9       1.0000 0.83505  0.10664  0.40873  Biso   1.000  C
  C10      1.0000 0.28121  0.42891  0.18990  Biso   1.000  C
  C11      1.0000 0.61454  0.09558  0.85657  Biso   1.000  C
  C12      1.0000 0.94788  0.76224  0.52323  Biso   1.000  C
  C13      1.0000 0.57109  0.85230  0.18990  Biso   1.000  C
  C14      1.0000 0.90442  0.51897  0.85657  Biso   1.000  C
  C15      1.0000 0.23776  0.18563  0.52323  Biso   1.000  C
  C16      1.0000 0.14770  0.71879  0.18990  Biso   1.000  C
  C17      1.0000 0.48103  0.38546  0.85657  Biso   1.000  C
  C18      1.0000 0.81437  0.05212  0.52323  Biso   1.000  C
  C19      1.0000 0.28857  0.40048  0.34180  Biso   1.000  C
  C20      1.0000 0.62190  0.06715  0.00847  Biso   1.000  C
  C21      1.0000 0.95524  0.73381  0.67513  Biso   1.000  C
  C22      1.0000 0.59952  0.88809  0.34180  Biso   1.000  C
  C23      1.0000 0.93285  0.55476  0.00847  Biso   1.000  C
  C24      1.0000 0.26619  0.22142  0.67513  Biso   1.000  C
  C25      1.0000 0.11191  0.71143  0.34180  Biso   1.000  C
  C26      1.0000 0.44524  0.37810  0.00847  Biso   1.000  C
  C27      1.0000 0.77858  0.04476  0.67513  Biso   1.000  C
  C28      1.0000 0.33558  0.42940  0.46620  Biso   1.000  C
  C29      1.0000 0.66891  0.09607  0.13287  Biso   1.000  C
  C30      1.0000 0.00225  0.76273  0.79953  Biso   1.000  C
  C31      1.0000 0.57060  0.90618  0.46620  Biso   1.000  C
  C32      1.0000 0.90393  0.57285  0.13287  Biso   1.000  C
  C33      1.0000 0.23727  0.23951  0.79953  Biso   1.000  C
  C34      1.0000 0.09382  0.66442  0.46620  Biso   1.000  C
  C35      1.0000 0.42715  0.33109  0.13287  Biso   1.000  C
  C36      1.0000 0.76049  0.99775  0.79953  Biso   1.000  C
  C37      1.0000 0.33307  0.40148  0.63910  Biso   1.000  C
  C38      1.0000 0.66640  0.06815  0.30577  Biso   1.000  C
  C39      1.0000 0.99974  0.73481  0.97243  Biso   1.000  C
  C40      1.0000 0.59852  0.93159  0.63910  Biso   1.000  C
  C41      1.0000 0.93185  0.59826  0.30577  Biso   1.000  C
  C42      1.0000 0.26519  0.26492  0.97243  Biso   1.000  C
  C43      1.0000 0.06841  0.66693  0.63910  Biso   1.000  C
  C44      1.0000 0.40174  0.33360  0.30577  Biso   1.000  C
  C45      1.0000 0.73508  0.00026  0.97243  Biso   1.000  C
  C46      1.0000 0.23935  0.34435  0.38360  Biso   1.000  C
  C47      1.0000 0.57268  0.01102  0.05027  Biso   1.000  C
  C48      1.0000 0.90602  0.67768  0.71693  Biso   1.000  C
  C49      1.0000 0.65565  0.89500  0.38360  Biso   1.000  C
  C50      1.0000 0.98898  0.56167  0.05027  Biso   1.000  C
  C51      1.0000 0.32232  0.22833  0.71693  Biso   1.000  C
  C52      1.0000 0.10500  0.76065  0.38360  Biso   1.000  C
  C53      1.0000 0.43833  0.42732  0.05027  Biso   1.000  C
  C54      1.0000 0.77167  0.09398  0.71693  Biso   1.000  C
  C55      1.0000 0.06161  0.09720  0.33650  Biso   1.000  C
  C56      1.0000 0.39494  0.76387  0.00317  Biso   1.000  C
  C57      1.0000 0.72828  0.43053  0.66983  Biso   1.000  C
  C58      1.0000 0.90280  0.96441  0.33650  Biso   1.000  C
  C59      1.0000 0.23613  0.63108  0.00317  Biso   1.000  C
  C60      1.0000 0.56947  0.29774  0.66983  Biso   1.000  C
  C61      1.0000 0.03559  0.93839  0.33650  Biso   1.000  C
  C62      1.0000 0.36892  0.60506  0.00317  Biso   1.000  C
  C63      1.0000 0.70226  0.27172  0.66983  Biso   1.000  C
  C64      1.0000 0.10261  0.19138  0.18980  Biso   1.000  C
  C65      1.0000 0.43594  0.85805  0.85647  Biso   1.000  C
  C66      1.0000 0.76928  0.52471  0.52313  Biso   1.000  C
  C67      1.0000 0.80862  0.91123  0.18980  Biso   1.000  C
  C68      1.0000 0.14195  0.57790  0.85647  Biso   1.000  C
  C69      1.0000 0.47529  0.24456  0.52313  Biso   1.000  C
  C70      1.0000 0.08877  0.89739  0.18980  Biso   1.000  C
  C71      1.0000 0.42210  0.56406  0.85647  Biso   1.000  C
  C72      1.0000 0.75544  0.23072  0.52313  Biso   1.000  C
  C73      1.0000 0.02371  0.15989  0.40730  Biso   1.000  C
  C74      1.0000 0.35704  0.82656  0.07397  Biso   1.000  C
  C75      1.0000 0.69038  0.49322  0.74063  Biso   1.000  C
  C76      1.0000 0.84011  0.86382  0.40730  Biso   1.000  C
  C77      1.0000 0.17344  0.53049  0.07397  Biso   1.000  C
  C78      1.0000 0.50678  0.19715  0.74063  Biso   1.000  C
  C79      1.0000 0.13618  0.97629  0.40730  Biso   1.000  C
  C80      1.0000 0.46951  0.64296  0.07397  Biso   1.000  C
  C81      1.0000 0.80285  0.30962  0.74063  Biso   1.000  C
  C82      1.0000 0.03986  0.22056  0.49680  Biso   1.000  C
  C83      1.0000 0.37319  0.88723  0.16347  Biso   1.000  C
  C84      1.0000 0.70653  0.55389  0.83013  Biso   1.000  C
  C85      1.0000 0.77944  0.81930  0.49680  Biso   1.000  C
  C86      1.0000 0.11277  0.48597  0.16347  Biso   1.000  C
  C87      1.0000 0.44611  0.15263  0.83013  Biso   1.000  C
  C88      1.0000 0.18070  0.96014  0.49680  Biso   1.000  C
  C89      1.0000 0.51403  0.62681  0.16347  Biso   1.000  C
  C90      1.0000 0.84737  0.29347  0.83013  Biso   1.000  C
  C91      1.0000 0.10764  0.29065  0.72930  Biso   1.000  C
  C92      1.0000 0.44097  0.95732  0.39597  Biso   1.000  C
  C93      1.0000 0.77431  0.62398  0.06263  Biso   1.000  C
  C94      1.0000 0.70935  0.81699  0.72930  Biso   1.000  C
  C95      1.0000 0.04268  0.48366  0.39597  Biso   1.000  C
  C96      1.0000 0.37602  0.15032  0.06263  Biso   1.000  C
  C97      1.0000 0.18301  0.89236  0.72930  Biso   1.000  C
  C98      1.0000 0.51634  0.55903  0.39597  Biso   1.000  C
  C99      1.0000 0.84968  0.22569  0.06263  Biso   1.000  C
  C100     1.0000 0.05886  0.30217  0.81110  Biso   1.000  C
  C101     1.0000 0.39219  0.96884  0.47777  Biso   1.000  C
  C102     1.0000 0.72553  0.63550  0.14443  Biso   1.000  C
  C103     1.0000 0.69783  0.75669  0.81110  Biso   1.000  C
  C104     1.0000 0.03116  0.42336  0.47777  Biso   1.000  C
  C105     1.0000 0.36450  0.09002  0.14443  Biso   1.000  C
  C106     1.0000 0.24331  0.94114  0.81110  Biso   1.000  C
  C107     1.0000 0.57664  0.60781  0.47777  Biso   1.000  C
  C108     1.0000 0.90998  0.27447  0.14443  Biso   1.000  C
  H1       1.0000 0.23030  0.42170  0.97460  Biso   1.000  H
  H2       1.0000 0.56363  0.08837  0.64127  Biso   1.000  H
  H3       1.0000 0.89697  0.75503  0.30793  Biso   1.000  H
  H4       1.0000 0.57830  0.80860  0.97460  Biso   1.000  H
  H5       1.0000 0.91163  0.47527  0.64127  Biso   1.000  H
  H6       1.0000 0.24497  0.14193  0.30793  Biso   1.000  H
  H7       1.0000 0.19140  0.76970  0.97460  Biso   1.000  H
  H8       1.0000 0.52473  0.43637  0.64127  Biso   1.000  H
  H9       1.0000 0.85807  0.10303  0.30793  Biso   1.000  H
  H10      1.0000 0.22230  0.35670  0.02920  Biso   1.000  H
  H11      1.0000 0.55563  0.02337  0.69587  Biso   1.000  H
  H12      1.0000 0.88897  0.69003  0.36253  Biso   1.000  H
  H13      1.0000 0.64330  0.86560  0.02920  Biso   1.000  H
  H14      1.0000 0.97663  0.53227  0.69587  Biso   1.000  H
  H15      1.0000 0.30997  0.19893  0.36253  Biso   1.000  H
  H16      1.0000 0.13440  0.77770  0.02920  Biso   1.000  H
  H17      1.0000 0.46773  0.44437  0.69587  Biso   1.000  H
  H18      1.0000 0.80107  0.11103  0.36253  Biso   1.000  H
  H19      1.0000 0.19040  0.38610  0.14710  Biso   1.000  H
  H20      1.0000 0.52373  0.05277  0.81377  Biso   1.000  H
  H21      1.0000 0.85707  0.71943  0.48043  Biso   1.000  H
  H22      1.0000 0.61390  0.80430  0.14710  Biso   1.000  H
  H23      1.0000 0.94723  0.47097  0.81377  Biso   1.000  H
  H24      1.0000 0.28057  0.13763  0.48043  Biso   1.000  H
  H25      1.0000 0.19570  0.80960  0.14710  Biso   1.000  H
  H26      1.0000 0.52903  0.47627  0.81377  Biso   1.000  H
  H27      1.0000 0.86237  0.14293  0.48043  Biso   1.000  H
  H28      1.0000 0.03760  0.10140  0.78520  Biso   1.000  H
  H29      1.0000 0.37093  0.76807  0.45187  Biso   1.000  H
  H30      1.0000 0.70427  0.43473  0.11853  Biso   1.000  H
  H31      1.0000 0.89860  0.93620  0.78520  Biso   1.000  H
  H32      1.0000 0.23193  0.60287  0.45187  Biso   1.000  H
  H33      1.0000 0.56527  0.26953  0.11853  Biso   1.000  H
  H34      1.0000 0.06380  0.96240  0.78520  Biso   1.000  H
  H35      1.0000 0.39713  0.62907  0.45187  Biso   1.000  H
  H36      1.0000 0.73047  0.29573  0.11853  Biso   1.000  H
  H37      1.0000 0.05740  0.20460  0.72530  Biso   1.000  H
  H38      1.0000 0.39073  0.87127  0.39197  Biso   1.000  H
  H39      1.0000 0.72407  0.53793  0.05863  Biso   1.000  H
  H40      1.0000 0.79540  0.85280  0.72530  Biso   1.000  H
  H41      1.0000 0.12873  0.51947  0.39197  Biso   1.000  H
  H42      1.0000 0.46207  0.18613  0.05863  Biso   1.000  H
  H43      1.0000 0.14720  0.94260  0.72530  Biso   1.000  H
  H44      1.0000 0.48053  0.60927  0.39197  Biso   1.000  H
  H45      1.0000 0.81387  0.27593  0.05863  Biso   1.000  H
  H46      1.0000 0.08810  0.09440  0.86600  Biso   1.000  H
  H47      1.0000 0.42143  0.76107  0.53267  Biso   1.000  H
  H48      1.0000 0.75477  0.42773  0.19933  Biso   1.000  H
  H49      1.0000 0.90560  0.99370  0.86600  Biso   1.000  H
  H50      1.0000 0.23893  0.66037  0.53267  Biso   1.000  H
  H51      1.0000 0.57227  0.32703  0.19933  Biso   1.000  H
  H52      1.0000 0.00630  0.91190  0.86600  Biso   1.000  H
  H53      1.0000 0.33963  0.57857  0.53267  Biso   1.000  H
  H54      1.0000 0.67297  0.24523  0.19933  Biso   1.000  H
  H55      1.0000 0.37070  0.42780  0.71080  Biso   1.000  H
  H56      1.0000 0.70403  0.09447  0.37747  Biso   1.000  H
  H57      1.0000 0.03737  0.76113  0.04413  Biso   1.000  H
  H58      1.0000 0.57220  0.94290  0.71080  Biso   1.000  H
  H59      1.0000 0.90553  0.60957  0.37747  Biso   1.000  H
  H60      1.0000 0.23887  0.27623  0.04413  Biso   1.000  H
  H61      1.0000 0.05710  0.62930  0.71080  Biso   1.000  H
  H62      1.0000 0.39043  0.29597  0.37747  Biso   1.000  H
  H63      1.0000 0.72377  0.96263  0.04413  Biso   1.000  H
  H64      1.0000 0.33100  0.36160  0.62100  Biso   1.000  H
  H65      1.0000 0.66433  0.02827  0.28767  Biso   1.000  H
  H66      1.0000 0.99767  0.69493  0.95433  Biso   1.000  H
  H67      1.0000 0.63840  0.96940  0.62100  Biso   1.000  H
  H68      1.0000 0.97173  0.63607  0.28767  Biso   1.000  H
  H69      1.0000 0.30507  0.30273  0.95433  Biso   1.000  H
  H70      1.0000 0.03060  0.66900  0.62100  Biso   1.000  H
  H71      1.0000 0.36393  0.33567  0.28767  Biso   1.000  H
  H72      1.0000 0.69727  0.00233  0.95433  Biso   1.000  H
  H73      1.0000 0.29770  0.39580  0.70490  Biso   1.000  H
  H74      1.0000 0.63103  0.06247  0.37157  Biso   1.000  H
  H75      1.0000 0.96437  0.72913  0.03823  Biso   1.000  H
  H76      1.0000 0.60420  0.90190  0.70490  Biso   1.000  H
  H77      1.0000 0.93753  0.56857  0.37157  Biso   1.000  H
  H78      1.0000 0.27087  0.23523  0.03823  Biso   1.000  H
  H79      1.0000 0.09810  0.70230  0.70490  Biso   1.000  H
  H80      1.0000 0.43143  0.36897  0.37157  Biso   1.000  H
  H81      1.0000 0.76477  0.03563  0.03823  Biso   1.000  H
  H82      1.0000 0.03150  0.07880  0.23930  Biso   1.000  H
  H83      1.0000 0.36483  0.74547  0.90597  Biso   1.000  H
  H84      1.0000 0.69817  0.41213  0.57263  Biso   1.000  H
  H85      1.0000 0.92120  0.95270  0.23930  Biso   1.000  H
  H86      1.0000 0.25453  0.61937  0.90597  Biso   1.000  H
  H87      1.0000 0.58787  0.28603  0.57263  Biso   1.000  H
  H88      1.0000 0.04730  0.96850  0.23930  Biso   1.000  H
  H89      1.0000 0.38063  0.63517  0.90597  Biso   1.000  H
  H90      1.0000 0.71397  0.30183  0.57263  Biso   1.000  H
  H91      1.0000 0.09870  0.09600  0.30490  Biso   1.000  H
  H92      1.0000 0.43203  0.76267  0.97157  Biso   1.000  H
  H93      1.0000 0.76537  0.42933  0.63823  Biso   1.000  H
  H94      1.0000 0.90400  0.00270  0.30490  Biso   1.000  H
  H95      1.0000 0.23733  0.66937  0.97157  Biso   1.000  H
  H96      1.0000 0.57067  0.33603  0.63823  Biso   1.000  H
  H97      1.0000 0.99730  0.90130  0.30490  Biso   1.000  H
  H98      1.0000 0.33063  0.56797  0.97157  Biso   1.000  H
  H99      1.0000 0.66397  0.23463  0.63823  Biso   1.000  H
  H100     1.0000 0.04430  0.07410  0.44780  Biso   1.000  H
  H101     1.0000 0.37763  0.74077  0.11447  Biso   1.000  H
  H102     1.0000 0.71097  0.40743  0.78113  Biso   1.000  H
  H103     1.0000 0.92590  0.97020  0.44780  Biso   1.000  H
  H104     1.0000 0.25923  0.63687  0.11447  Biso   1.000  H
  H105     1.0000 0.59257  0.30353  0.78113  Biso   1.000  H
  H106     1.0000 0.02980  0.95570  0.44780  Biso   1.000  H
  H107     1.0000 0.36313  0.62237  0.11447  Biso   1.000  H
  H108     1.0000 0.69647  0.28903  0.78113  Biso   1.000  H
  H109     1.0000 0.07210  0.17160  0.09450  Biso   1.000  H
  H110     1.0000 0.40543  0.83827  0.76117  Biso   1.000  H
  H111     1.0000 0.73877  0.50493  0.42783  Biso   1.000  H
  H112     1.0000 0.82840  0.90050  0.09450  Biso   1.000  H
  H113     1.0000 0.16173  0.56717  0.76117  Biso   1.000  H
  H114     1.0000 0.49507  0.23383  0.42783  Biso   1.000  H
  H115     1.0000 0.09950  0.92790  0.09450  Biso   1.000  H
  H116     1.0000 0.43283  0.59457  0.76117  Biso   1.000  H
  H117     1.0000 0.76617  0.26123  0.42783  Biso   1.000  H
  H118     1.0000 0.13980  0.19040  0.15850  Biso   1.000  H
  H119     1.0000 0.47313  0.85707  0.82517  Biso   1.000  H
  H120     1.0000 0.80647  0.52373  0.49183  Biso   1.000  H
  H121     1.0000 0.80960  0.94940  0.15850  Biso   1.000  H
  H122     1.0000 0.14293  0.61607  0.82517  Biso   1.000  H
  H123     1.0000 0.47627  0.28273  0.49183  Biso   1.000  H
  H124     1.0000 0.05060  0.86020  0.15850  Biso   1.000  H
  H125     1.0000 0.38393  0.52687  0.82517  Biso   1.000  H
  H126     1.0000 0.71727  0.19353  0.49183  Biso   1.000  H
  H127     1.0000 0.11240  0.23400  0.20270  Biso   1.000  H
  H128     1.0000 0.44573  0.90067  0.86937  Biso   1.000  H
  H129     1.0000 0.77907  0.56733  0.53603  Biso   1.000  H
  H130     1.0000 0.76600  0.87840  0.20270  Biso   1.000  H
  H131     1.0000 0.09933  0.54507  0.86937  Biso   1.000  H
  H132     1.0000 0.43267  0.21173  0.53603  Biso   1.000  H
  H133     1.0000 0.12160  0.88760  0.20270  Biso   1.000  H
  H134     1.0000 0.45493  0.55427  0.86937  Biso   1.000  H
  H135     1.0000 0.78827  0.22093  0.53603  Biso   1.000  H
  H136     1.0000 0.00010  0.15480  0.29780  Biso   1.000  H
  H137     1.0000 0.33343  0.82147  0.96447  Biso   1.000  H
  H138     1.0000 0.66677  0.48813  0.63113  Biso   1.000  H
  H139     1.0000 0.84520  0.84530  0.29780  Biso   1.000  H
  H140     1.0000 0.17853  0.51197  0.96447  Biso   1.000  H
  H141     1.0000 0.51187  0.17863  0.63113  Biso   1.000  H
  H142     1.0000 0.15470  0.99990  0.29780  Biso   1.000  H
  H143     1.0000 0.48803  0.66657  0.96447  Biso   1.000  H
  H144     1.0000 0.82137  0.33323  0.63113  Biso   1.000  H
  H145     1.0000 0.99920  0.12620  0.49040  Biso   1.000  H
  H146     1.0000 0.33253  0.79287  0.15707  Biso   1.000  H
  H147     1.0000 0.66587  0.45953  0.82373  Biso   1.000  H
  H148     1.0000 0.87380  0.87300  0.49040  Biso   1.000  H
  H149     1.0000 0.20713  0.53967  0.15707  Biso   1.000  H
  H150     1.0000 0.54047  0.20633  0.82373  Biso   1.000  H
  H151     1.0000 0.12700  0.00080  0.49040  Biso   1.000  H
  H152     1.0000 0.46033  0.66747  0.15707  Biso   1.000  H
  H153     1.0000 0.79367  0.33413  0.82373  Biso   1.000  H
  H154     1.0000 0.06080  0.25430  0.41100  Biso   1.000  H
  H155     1.0000 0.39413  0.92097  0.07767  Biso   1.000  H
  H156     1.0000 0.72747  0.58763  0.74433  Biso   1.000  H
  H157     1.0000 0.74570  0.80650  0.41100  Biso   1.000  H
  H158     1.0000 0.07903  0.47317  0.07767  Biso   1.000  H
  H159     1.0000 0.41237  0.13983  0.74433  Biso   1.000  H
  H160     1.0000 0.19350  0.93920  0.41100  Biso   1.000  H
  H161     1.0000 0.52683  0.60587  0.07767  Biso   1.000  H
  H162     1.0000 0.86017  0.27253  0.74433  Biso   1.000  H
  H163     1.0000 0.00220  0.21870  0.53850  Biso   1.000  H
  H164     1.0000 0.33553  0.88537  0.20517  Biso   1.000  H
  H165     1.0000 0.66887  0.55203  0.87183  Biso   1.000  H
  H166     1.0000 0.78130  0.78350  0.53850  Biso   1.000  H
  H167     1.0000 0.11463  0.45017  0.20517  Biso   1.000  H
  H168     1.0000 0.44797  0.11683  0.87183  Biso   1.000  H
  H169     1.0000 0.21650  0.99780  0.53850  Biso   1.000  H
  H170     1.0000 0.54983  0.66447  0.20517  Biso   1.000  H
  H171     1.0000 0.88317  0.33113  0.87183  Biso   1.000  H
  H172     1.0000 0.13640  0.29350  0.82270  Biso   1.000  H
  H173     1.0000 0.46973  0.96017  0.48937  Biso   1.000  H
  H174     1.0000 0.80307  0.62683  0.15603  Biso   1.000  H
  H175     1.0000 0.70650  0.84290  0.82270  Biso   1.000  H
  H176     1.0000 0.03983  0.50957  0.48937  Biso   1.000  H
  H177     1.0000 0.37317  0.17623  0.15603  Biso   1.000  H
  H178     1.0000 0.15710  0.86360  0.82270  Biso   1.000  H
  H179     1.0000 0.49043  0.53027  0.48937  Biso   1.000  H
  H180     1.0000 0.82377  0.19693  0.15603  Biso   1.000  H
  H181     1.0000 0.12980  0.32160  0.63670  Biso   1.000  H
  H182     1.0000 0.46313  0.98827  0.30337  Biso   1.000  H
  H183     1.0000 0.79647  0.65493  0.97003  Biso   1.000  H
  H184     1.0000 0.67840  0.80820  0.63670  Biso   1.000  H
  H185     1.0000 0.01173  0.47487  0.30337  Biso   1.000  H
  H186     1.0000 0.34507  0.14153  0.97003  Biso   1.000  H
  H187     1.0000 0.19180  0.87020  0.63670  Biso   1.000  H
  H188     1.0000 0.52513  0.53687  0.30337  Biso   1.000  H
  H189     1.0000 0.85847  0.20353  0.97003  Biso   1.000  H
  H190     1.0000 0.07910  0.34320  0.86480  Biso   1.000  H
  H191     1.0000 0.41243  0.00987  0.53147  Biso   1.000  H
  H192     1.0000 0.74577  0.67653  0.19813  Biso   1.000  H
  H193     1.0000 0.65680  0.73590  0.86480  Biso   1.000  H
  H194     1.0000 0.99013  0.40257  0.53147  Biso   1.000  H
  H195     1.0000 0.32347  0.06923  0.19813  Biso   1.000  H
  H196     1.0000 0.26410  0.92090  0.86480  Biso   1.000  H
  H197     1.0000 0.59743  0.58757  0.53147  Biso   1.000  H
  H198     1.0000 0.93077  0.25423  0.19813  Biso   1.000  H
  H199     1.0000 0.03660  0.27160  0.90440  Biso   1.000  H
  H200     1.0000 0.36993  0.93827  0.57107  Biso   1.000  H
  H201     1.0000 0.70327  0.60493  0.23773  Biso   1.000  H
  H202     1.0000 0.72840  0.76500  0.90440  Biso   1.000  H
  H203     1.0000 0.06173  0.43167  0.57107  Biso   1.000  H
  H204     1.0000 0.39507  0.09833  0.23773  Biso   1.000  H
  H205     1.0000 0.23500  0.96340  0.90440  Biso   1.000  H
  H206     1.0000 0.56833  0.63007  0.57107  Biso   1.000  H
  H207     1.0000 0.90167  0.29673  0.23773  Biso   1.000  H
  H208     1.0000 0.03010  0.29970  0.71850  Biso   1.000  H
  H209     1.0000 0.36343  0.96637  0.38517  Biso   1.000  H
  H210     1.0000 0.69677  0.63303  0.05183  Biso   1.000  H
  H211     1.0000 0.70030  0.73040  0.71850  Biso   1.000  H
  H212     1.0000 0.03363  0.39707  0.38517  Biso   1.000  H
  H213     1.0000 0.36697  0.06373  0.05183  Biso   1.000  H
  H214     1.0000 0.26960  0.96990  0.71850  Biso   1.000  H
  H215     1.0000 0.60293  0.63657  0.38517  Biso   1.000  H
  H216     1.0000 0.93627  0.30323  0.05183  Biso   1.000  H
  O64      1.0000 0.22380  0.08010  0.77280  Biso   1.000  O
  O65      1.0000 0.55713  0.74677  0.43947  Biso   1.000  O
  O66      1.0000 0.89047  0.41343  0.10613  Biso   1.000  O
  O67      1.0000 0.91990  0.14370  0.77280  Biso   1.000  O
  O68      1.0000 0.25323  0.81037  0.43947  Biso   1.000  O
  O69      1.0000 0.58657  0.47703  0.10613  Biso   1.000  O
  O70      1.0000 0.85630  0.77620  0.77280  Biso   1.000  O
  O71      1.0000 0.18963  0.44287  0.43947  Biso   1.000  O
  O72      1.0000 0.52297  0.10953  0.10613  Biso   1.000  O
