data_image0
_cell_length_a       7.6284
_cell_length_b       11.058
_cell_length_c       11.284
_cell_angle_alpha    102.71
_cell_angle_beta     105.21
_cell_angle_gamma    106.87

_symmetry_space_group_name_H-M    "P 1"
_symmetry_int_tables_number       1

loop_
  _symmetry_equiv_pos_as_xyz
  'x, y, z'

loop_
  _atom_site_label
  _atom_site_occupancy
  _atom_site_fract_x
  _atom_site_fract_y
  _atom_site_fract_z
  _atom_site_thermal_displace_type
  _atom_site_B_iso_or_equiv
  _atom_site_type_symbol
  Cu1      1.0000 0.04544  0.65614  0.73873  Biso   1.000  Cu
  Cu2      1.0000 0.95456  0.34386  0.26127  Biso   1.000  Cu
  Cu3      1.0000 0.52307  0.43359  0.26605  Biso   1.000  Cu
  Cu4      1.0000 0.47693  0.56641  0.73395  Biso   1.000  Cu
  O1       1.0000 0.89780  0.46810  0.65120  Biso   1.000  O
  O2       1.0000 0.10220  0.53190  0.34880  Biso   1.000  O
  H1       1.0000 0.83800  0.44360  0.56990  Biso   1.000  H
  H2       1.0000 0.16200  0.55640  0.43010  Biso   1.000  H
  H3       1.0000 0.81940  0.43830  0.68850  Biso   1.000  H
  H4       1.0000 0.18060  0.56170  0.31150  Biso   1.000  H
  O3       1.0000 0.32940  0.33670  0.32950  Biso   1.000  O
  O4       1.0000 0.67060  0.66330  0.67050  Biso   1.000  O
  H5       1.0000 0.35860  0.35570  0.41120  Biso   1.000  H
  H6       1.0000 0.64140  0.64430  0.58880  Biso   1.000  H
  H7       1.0000 0.29790  0.25310  0.29750  Biso   1.000  H
  H8       1.0000 0.70210  0.74690  0.70250  Biso   1.000  H
  O5       1.0000 0.17460  0.66230  0.61160  Biso   1.000  O
  O6       1.0000 0.82540  0.33770  0.38840  Biso   1.000  O
  O7       1.0000 0.35400  0.80830  0.53870  Biso   1.000  O
  O8       1.0000 0.64600  0.19170  0.46130  Biso   1.000  O
  O9       1.0000 0.45210  0.28100  0.11550  Biso   1.000  O
  O10      1.0000 0.54790  0.71900  0.88450  Biso   1.000  O
  O11      1.0000 0.24800  0.11140  0.15210  Biso   1.000  O
  O12      1.0000 0.75200  0.88860  0.84790  Biso   1.000  O
  O13      1.0000 0.86580  0.79090  0.50890  Biso   1.000  O
  O14      1.0000 0.13420  0.20910  0.49110  Biso   1.000  O
  O15      1.0000 0.63560  0.58860  0.41870  Biso   1.000  O
  O16      1.0000 0.36440  0.41140  0.58130  Biso   1.000  O
  O17      1.0000 0.72790  0.47010  0.83420  Biso   1.000  O
  O18      1.0000 0.27210  0.52990  0.16580  Biso   1.000  O
  O19      1.0000 0.99920  0.65470  0.89930  Biso   1.000  O
  O20      1.0000 0.00080  0.34530  0.10070  Biso   1.000  O
  N1       1.0000 0.19280  0.85060  0.80640  Biso   1.000  N
  N2       1.0000 0.80720  0.14940  0.19360  Biso   1.000  N
  N3       1.0000 0.70410  0.55070  0.20290  Biso   1.000  N
  N4       1.0000 0.29590  0.44930  0.79710  Biso   1.000  N
  C1       1.0000 0.29250  0.89590  0.73260  Biso   1.000  C
  C2       1.0000 0.70750  0.10410  0.26740  Biso   1.000  C
  C3       1.0000 0.40880  0.02990  0.76210  Biso   1.000  C
  C4       1.0000 0.59120  0.97010  0.23790  Biso   1.000  C
  C5       1.0000 0.41860  0.11510  0.88020  Biso   1.000  C
  C6       1.0000 0.58140  0.88490  0.11980  Biso   1.000  C
  H9       1.0000 0.49470  0.20760  0.90650  Biso   1.000  H
  H10      1.0000 0.50530  0.79240  0.09350  Biso   1.000  H
  C7       1.0000 0.32160  0.06830  0.95780  Biso   1.000  C
  C8       1.0000 0.67840  0.93170  0.04220  Biso   1.000  C
  C9       1.0000 0.20720  0.93520  0.91680  Biso   1.000  C
  C10      1.0000 0.79280  0.06480  0.08320  Biso   1.000  C
  H11      1.0000 0.13640  0.90210  0.96810  Biso   1.000  H
  H12      1.0000 0.86360  0.09790  0.03190  Biso   1.000  H
  C11      1.0000 0.27600  0.78460  0.61680  Biso   1.000  C
  C12      1.0000 0.72400  0.21540  0.38320  Biso   1.000  C
  C13      1.0000 0.50790  0.08620  0.67780  Biso   1.000  C
  C14      1.0000 0.49210  0.91380  0.32220  Biso   1.000  C
  H13      1.0000 0.59110  0.03780  0.65770  Biso   1.000  H
  H14      1.0000 0.40890  0.96220  0.34230  Biso   1.000  H
  H15      1.0000 0.58850  0.18080  0.72330  Biso   1.000  H
  H16      1.0000 0.41150  0.81920  0.27670  Biso   1.000  H
  H17      1.0000 0.40930  0.07710  0.59720  Biso   1.000  H
  H18      1.0000 0.59070  0.92290  0.40280  Biso   1.000  H
  C15      1.0000 0.33730  0.16030  0.08390  Biso   1.000  C
  C16      1.0000 0.66270  0.83970  0.91610  Biso   1.000  C
  C17      1.0000 0.80580  0.67400  0.29010  Biso   1.000  C
  C18      1.0000 0.19420  0.32600  0.70990  Biso   1.000  C
  C19      1.0000 0.93060  0.77520  0.26180  Biso   1.000  C
  C20      1.0000 0.06940  0.22480  0.73820  Biso   1.000  C
  C21      1.0000 0.94970  0.73990  0.13950  Biso   1.000  C
  C22      1.0000 0.05030  0.26010  0.86050  Biso   1.000  C
  H19      1.0000 0.03340  0.80550  0.11650  Biso   1.000  H
  H20      1.0000 0.96660  0.19450  0.88350  Biso   1.000  H
  C23      1.0000 0.84910  0.61130  0.05110  Biso   1.000  C
  C24      1.0000 0.15090  0.38870  0.94890  Biso   1.000  C
  C25      1.0000 0.72330  0.51820  0.08740  Biso   1.000  C
  C26      1.0000 0.27670  0.48180  0.91260  Biso   1.000  C
  H21      1.0000 0.65030  0.43040  0.02850  Biso   1.000  H
  H22      1.0000 0.34970  0.56960  0.97150  Biso   1.000  H
  C27      1.0000 0.77220  0.69120  0.41830  Biso   1.000  C
  C28      1.0000 0.22780  0.30880  0.58170  Biso   1.000  C
  C29      1.0000 0.03250  0.91840  0.34870  Biso   1.000  C
  C30      1.0000 0.96750  0.08160  0.65130  Biso   1.000  C
  H23      1.0000 0.93860  0.94960  0.37810  Biso   1.000  H
  H24      1.0000 0.06140  0.05040  0.62190  Biso   1.000  H
  H25      1.0000 0.08660  0.97390  0.30040  Biso   1.000  H
  H26      1.0000 0.91340  0.02610  0.69960  Biso   1.000  H
  H27      1.0000 0.13860  0.92480  0.42390  Biso   1.000  H
  H28      1.0000 0.86140  0.07520  0.57610  Biso   1.000  H
  C31      1.0000 0.85820  0.57530  0.91710  Biso   1.000  C
  C32      1.0000 0.14180  0.42470  0.08290  Biso   1.000  C
