data_image0
_cell_length_a       8.909
_cell_length_b       12.33
_cell_length_c       17.476
_cell_angle_alpha    90
_cell_angle_beta     90
_cell_angle_gamma    90

_symmetry_space_group_name_H-M    "P 1"
_symmetry_int_tables_number       1

loop_
  _symmetry_equiv_pos_as_xyz
  'x, y, z'

loop_
  _atom_site_label
  _atom_site_occupancy
  _atom_site_fract_x
  _atom_site_fract_y
  _atom_site_fract_z
  _atom_site_thermal_displace_type
  _atom_site_B_iso_or_equiv
  _atom_site_type_symbol
  Cu1      1.0000 0.10987  0.95174  0.78285  Biso   1.000  Cu
  Cu2      1.0000 0.39013  0.04826  0.78285  Biso   1.000  Cu
  Cu3      1.0000 0.39013  0.45174  0.71715  Biso   1.000  Cu
  Cu4      1.0000 0.10987  0.54826  0.71715  Biso   1.000  Cu
  Cu5      1.0000 0.89013  0.04826  0.21715  Biso   1.000  Cu
  Cu6      1.0000 0.60987  0.95174  0.21715  Biso   1.000  Cu
  Cu7      1.0000 0.60987  0.54826  0.28285  Biso   1.000  Cu
  Cu8      1.0000 0.89013  0.45174  0.28285  Biso   1.000  Cu
  Cu9      1.0000 0.69301  0.25000  0.75000  Biso   1.000  Cu
  Cu10     1.0000 0.80699  0.75000  0.75000  Biso   1.000  Cu
  Cu11     1.0000 0.30699  0.75000  0.25000  Biso   1.000  Cu
  Cu12     1.0000 0.19301  0.25000  0.25000  Biso   1.000  Cu
  Cu13     1.0000 0.65698  0.25000  0.25000  Biso   1.000  Cu
  Cu14     1.0000 0.84302  0.75000  0.25000  Biso   1.000  Cu
  Cu15     1.0000 0.34302  0.75000  0.75000  Biso   1.000  Cu
  Cu16     1.0000 0.15698  0.25000  0.75000  Biso   1.000  Cu
  O1       1.0000 0.30080  0.90210  0.73770  Biso   1.000  O
  O2       1.0000 0.19920  0.09790  0.73770  Biso   1.000  O
  O3       1.0000 0.19920  0.40210  0.76230  Biso   1.000  O
  O4       1.0000 0.30080  0.59790  0.76230  Biso   1.000  O
  O5       1.0000 0.69920  0.09790  0.26230  Biso   1.000  O
  O6       1.0000 0.80080  0.90210  0.26230  Biso   1.000  O
  O7       1.0000 0.80080  0.59790  0.23770  Biso   1.000  O
  O8       1.0000 0.69920  0.40210  0.23770  Biso   1.000  O
  H1       1.0000 0.29120  0.91400  0.68250  Biso   1.000  H
  H2       1.0000 0.20880  0.08600  0.68250  Biso   1.000  H
  H3       1.0000 0.20880  0.41400  0.81750  Biso   1.000  H
  H4       1.0000 0.29120  0.58600  0.81750  Biso   1.000  H
  H5       1.0000 0.70880  0.08600  0.31750  Biso   1.000  H
  H6       1.0000 0.79120  0.91400  0.31750  Biso   1.000  H
  H7       1.0000 0.79120  0.58600  0.18250  Biso   1.000  H
  H8       1.0000 0.70880  0.41400  0.18250  Biso   1.000  H
  O9       1.0000 0.96120  0.01800  0.84820  Biso   1.000  O
  O10      1.0000 0.53880  0.98200  0.84820  Biso   1.000  O
  O11      1.0000 0.53880  0.51800  0.65180  Biso   1.000  O
  O12      1.0000 0.96120  0.48200  0.65180  Biso   1.000  O
  O13      1.0000 0.03880  0.98200  0.15180  Biso   1.000  O
  O14      1.0000 0.46120  0.01800  0.15180  Biso   1.000  O
  O15      1.0000 0.46120  0.48200  0.34820  Biso   1.000  O
  O16      1.0000 0.03880  0.51800  0.34820  Biso   1.000  O
  O17      1.0000 0.86620  0.12820  0.76000  Biso   1.000  O
  O18      1.0000 0.63380  0.87180  0.76000  Biso   1.000  O
  O19      1.0000 0.63380  0.62820  0.74000  Biso   1.000  O
  O20      1.0000 0.86620  0.37180  0.74000  Biso   1.000  O
  O21      1.0000 0.13380  0.87180  0.24000  Biso   1.000  O
  O22      1.0000 0.36620  0.12820  0.24000  Biso   1.000  O
  O23      1.0000 0.36620  0.37180  0.26000  Biso   1.000  O
  O24      1.0000 0.13380  0.62820  0.26000  Biso   1.000  O
  O25      1.0000 0.83430  0.12930  0.12050  Biso   1.000  O
  O26      1.0000 0.66570  0.87070  0.12050  Biso   1.000  O
  O27      1.0000 0.66570  0.62930  0.37950  Biso   1.000  O
  O28      1.0000 0.83430  0.37070  0.37950  Biso   1.000  O
  O29      1.0000 0.16570  0.87070  0.87950  Biso   1.000  O
  O30      1.0000 0.33430  0.12930  0.87950  Biso   1.000  O
  O31      1.0000 0.33430  0.37070  0.62050  Biso   1.000  O
  O32      1.0000 0.16570  0.62930  0.62050  Biso   1.000  O
  O33      1.0000 0.63750  0.23860  0.14020  Biso   1.000  O
  O34      1.0000 0.86250  0.76140  0.14020  Biso   1.000  O
  O35      1.0000 0.86250  0.73860  0.35980  Biso   1.000  O
  O36      1.0000 0.63750  0.26140  0.35980  Biso   1.000  O
  O37      1.0000 0.36250  0.76140  0.85980  Biso   1.000  O
  O38      1.0000 0.13750  0.23860  0.85980  Biso   1.000  O
  O39      1.0000 0.13750  0.26140  0.64020  Biso   1.000  O
  O40      1.0000 0.36250  0.73860  0.64020  Biso   1.000  O
  O41      1.0000 0.52480  0.36440  0.78860  Biso   1.000  O
  O42      1.0000 0.97520  0.63560  0.78860  Biso   1.000  O
  O43      1.0000 0.97520  0.86440  0.71140  Biso   1.000  O
  O44      1.0000 0.52480  0.13560  0.71140  Biso   1.000  O
  O45      1.0000 0.47520  0.63560  0.21140  Biso   1.000  O
  O46      1.0000 0.02480  0.36440  0.21140  Biso   1.000  O
  O47      1.0000 0.02480  0.13560  0.28860  Biso   1.000  O
  O48      1.0000 0.47520  0.86440  0.28860  Biso   1.000  O
  O49      1.0000 0.41420  0.41950  0.89600  Biso   1.000  O
  O50      1.0000 0.08580  0.58050  0.89600  Biso   1.000  O
  O51      1.0000 0.08580  0.91950  0.60400  Biso   1.000  O
  O52      1.0000 0.41420  0.08050  0.60400  Biso   1.000  O
  O53      1.0000 0.58580  0.58050  0.10400  Biso   1.000  O
  O54      1.0000 0.91420  0.41950  0.10400  Biso   1.000  O
  O55      1.0000 0.91420  0.08050  0.39600  Biso   1.000  O
  O56      1.0000 0.58580  0.91950  0.39600  Biso   1.000  O
  N1       1.0000 0.69650  0.22710  0.85840  Biso   1.000  N
  N2       1.0000 0.80350  0.77290  0.85840  Biso   1.000  N
  N3       1.0000 0.80350  0.72710  0.64160  Biso   1.000  N
  N4       1.0000 0.69650  0.27290  0.64160  Biso   1.000  N
  N5       1.0000 0.30350  0.77290  0.14160  Biso   1.000  N
  N6       1.0000 0.19650  0.22710  0.14160  Biso   1.000  N
  N7       1.0000 0.19650  0.27290  0.35840  Biso   1.000  N
  N8       1.0000 0.30350  0.72710  0.35840  Biso   1.000  N
  C1       1.0000 0.78960  0.15310  0.88760  Biso   1.000  C
  C2       1.0000 0.71040  0.84690  0.88760  Biso   1.000  C
  C3       1.0000 0.71040  0.65310  0.61240  Biso   1.000  C
  C4       1.0000 0.78960  0.34690  0.61240  Biso   1.000  C
  C5       1.0000 0.21040  0.84690  0.11240  Biso   1.000  C
  C6       1.0000 0.28960  0.15310  0.11240  Biso   1.000  C
  C7       1.0000 0.28960  0.34690  0.38760  Biso   1.000  C
  C8       1.0000 0.21040  0.65310  0.38760  Biso   1.000  C
  C9       1.0000 0.80100  0.13850  0.96480  Biso   1.000  C
  C10      1.0000 0.69900  0.86150  0.96480  Biso   1.000  C
  C11      1.0000 0.69900  0.63850  0.53520  Biso   1.000  C
  C12      1.0000 0.80100  0.36150  0.53520  Biso   1.000  C
  C13      1.0000 0.19900  0.86150  0.03520  Biso   1.000  C
  C14      1.0000 0.30100  0.13850  0.03520  Biso   1.000  C
  C15      1.0000 0.30100  0.36150  0.46480  Biso   1.000  C
  C16      1.0000 0.19900  0.63850  0.46480  Biso   1.000  C
  H9       1.0000 0.86610  0.08670  0.98470  Biso   1.000  H
  H10      1.0000 0.63390  0.91330  0.98470  Biso   1.000  H
  H11      1.0000 0.63390  0.58670  0.51530  Biso   1.000  H
  H12      1.0000 0.86610  0.41330  0.51530  Biso   1.000  H
  H13      1.0000 0.13390  0.91330  0.01530  Biso   1.000  H
  H14      1.0000 0.36610  0.08670  0.01530  Biso   1.000  H
  H15      1.0000 0.36610  0.41330  0.48470  Biso   1.000  H
  H16      1.0000 0.13390  0.58670  0.48470  Biso   1.000  H
  C17      1.0000 0.71420  0.20190  0.01330  Biso   1.000  C
  C18      1.0000 0.78580  0.79810  0.01330  Biso   1.000  C
  C19      1.0000 0.78580  0.70190  0.48670  Biso   1.000  C
  C20      1.0000 0.71420  0.29810  0.48670  Biso   1.000  C
  C21      1.0000 0.28580  0.79810  0.98670  Biso   1.000  C
  C22      1.0000 0.21420  0.20190  0.98670  Biso   1.000  C
  C23      1.0000 0.21420  0.29810  0.51330  Biso   1.000  C
  C24      1.0000 0.28580  0.70190  0.51330  Biso   1.000  C
  C25      1.0000 0.61620  0.27740  0.98300  Biso   1.000  C
  C26      1.0000 0.88380  0.72260  0.98300  Biso   1.000  C
  C27      1.0000 0.88380  0.77740  0.51700  Biso   1.000  C
  C28      1.0000 0.61620  0.22260  0.51700  Biso   1.000  C
  C29      1.0000 0.38380  0.72260  0.01700  Biso   1.000  C
  C30      1.0000 0.11620  0.27740  0.01700  Biso   1.000  C
  C31      1.0000 0.11620  0.22260  0.48300  Biso   1.000  C
  C32      1.0000 0.38380  0.77740  0.48300  Biso   1.000  C
  H17      1.0000 0.55630  0.32000  0.01450  Biso   1.000  H
  H18      1.0000 0.94370  0.68000  0.01450  Biso   1.000  H
  H19      1.0000 0.94370  0.82000  0.48550  Biso   1.000  H
  H20      1.0000 0.55630  0.18000  0.48550  Biso   1.000  H
  H21      1.0000 0.44370  0.68000  0.98550  Biso   1.000  H
  H22      1.0000 0.05630  0.32000  0.98550  Biso   1.000  H
  H23      1.0000 0.05630  0.18000  0.51450  Biso   1.000  H
  H24      1.0000 0.44370  0.82000  0.51450  Biso   1.000  H
  C33      1.0000 0.61000  0.28760  0.90360  Biso   1.000  C
  C34      1.0000 0.89000  0.71240  0.90360  Biso   1.000  C
  C35      1.0000 0.89000  0.78760  0.59640  Biso   1.000  C
  C36      1.0000 0.61000  0.21240  0.59640  Biso   1.000  C
  C37      1.0000 0.39000  0.71240  0.09640  Biso   1.000  C
  C38      1.0000 0.11000  0.28760  0.09640  Biso   1.000  C
  C39      1.0000 0.11000  0.21240  0.40360  Biso   1.000  C
  C40      1.0000 0.39000  0.78760  0.40360  Biso   1.000  C
  C41      1.0000 0.87860  0.09540  0.82610  Biso   1.000  C
  C42      1.0000 0.62140  0.90460  0.82610  Biso   1.000  C
  C43      1.0000 0.62140  0.59540  0.67390  Biso   1.000  C
  C44      1.0000 0.87860  0.40460  0.67390  Biso   1.000  C
  C45      1.0000 0.12140  0.90460  0.17390  Biso   1.000  C
  C46      1.0000 0.37860  0.09540  0.17390  Biso   1.000  C
  C47      1.0000 0.37860  0.40460  0.32610  Biso   1.000  C
  C48      1.0000 0.12140  0.59540  0.32610  Biso   1.000  C
  C49      1.0000 0.73020  0.18690  0.09910  Biso   1.000  C
  C50      1.0000 0.76980  0.81310  0.09910  Biso   1.000  C
  C51      1.0000 0.76980  0.68690  0.40090  Biso   1.000  C
  C52      1.0000 0.73020  0.31310  0.40090  Biso   1.000  C
  C53      1.0000 0.26980  0.81310  0.90090  Biso   1.000  C
  C54      1.0000 0.23020  0.18690  0.90090  Biso   1.000  C
  C55      1.0000 0.23020  0.31310  0.59910  Biso   1.000  C
  C56      1.0000 0.26980  0.68690  0.59910  Biso   1.000  C
  C57      1.0000 0.50530  0.36590  0.86130  Biso   1.000  C
  C58      1.0000 0.99470  0.63410  0.86130  Biso   1.000  C
  C59      1.0000 0.99470  0.86590  0.63870  Biso   1.000  C
  C60      1.0000 0.50530  0.13410  0.63870  Biso   1.000  C
  C61      1.0000 0.49470  0.63410  0.13870  Biso   1.000  C
  C62      1.0000 0.00530  0.36590  0.13870  Biso   1.000  C
  C63      1.0000 0.00530  0.13410  0.36130  Biso   1.000  C
  C64      1.0000 0.49470  0.86590  0.36130  Biso   1.000  C
