data_image0
_cell_length_a       8.9636
_cell_length_b       20.589
_cell_length_c       13.5194
_cell_angle_alpha    90
_cell_angle_beta     99.469
_cell_angle_gamma    90

_symmetry_space_group_name_H-M    "P 1"
_symmetry_int_tables_number       1

loop_
  _symmetry_equiv_pos_as_xyz
  'x, y, z'

loop_
  _atom_site_label
  _atom_site_occupancy
  _atom_site_fract_x
  _atom_site_fract_y
  _atom_site_fract_z
  _atom_site_thermal_displace_type
  _atom_site_B_iso_or_equiv
  _atom_site_type_symbol
  O1       1.0000 0.00000  0.50000  0.00000  Biso   1.000  O
  O2       1.0000 0.50000  0.00000  0.50000  Biso   1.000  O
  H1       1.0000 0.09210  0.51080  0.01780  Biso   1.000  H
  H2       1.0000 0.40790  0.01080  0.48220  Biso   1.000  H
  H3       1.0000 0.90790  0.48920  0.98220  Biso   1.000  H
  H4       1.0000 0.59210  0.98920  0.51780  Biso   1.000  H
  O3       1.0000 0.25380  0.43120  0.96780  Biso   1.000  O
  O4       1.0000 0.24620  0.93120  0.53220  Biso   1.000  O
  O5       1.0000 0.74620  0.56880  0.03220  Biso   1.000  O
  O6       1.0000 0.75380  0.06880  0.46780  Biso   1.000  O
  H5       1.0000 0.18630  0.45090  0.92720  Biso   1.000  H
  H6       1.0000 0.31370  0.95090  0.57280  Biso   1.000  H
  H7       1.0000 0.81370  0.54910  0.07280  Biso   1.000  H
  H8       1.0000 0.68630  0.04910  0.42720  Biso   1.000  H
  H9       1.0000 0.22210  0.42500  0.02290  Biso   1.000  H
  H10      1.0000 0.27790  0.92500  0.47710  Biso   1.000  H
  H11      1.0000 0.77790  0.57500  0.97710  Biso   1.000  H
  H12      1.0000 0.72210  0.07500  0.52290  Biso   1.000  H
  C1       1.0000 0.41180  0.60934  0.12640  Biso   1.000  C
  C2       1.0000 0.08820  0.10934  0.37360  Biso   1.000  C
  C3       1.0000 0.58820  0.39066  0.87360  Biso   1.000  C
  C4       1.0000 0.91180  0.89066  0.62640  Biso   1.000  C
  H13      1.0000 0.45630  0.64170  0.09310  Biso   1.000  H
  H14      1.0000 0.04370  0.14170  0.40690  Biso   1.000  H
  H15      1.0000 0.54370  0.35830  0.90690  Biso   1.000  H
  H16      1.0000 0.95630  0.85830  0.59310  Biso   1.000  H
  C5       1.0000 0.33160  0.61926  0.20010  Biso   1.000  C
  C6       1.0000 0.16840  0.11926  0.29990  Biso   1.000  C
  C7       1.0000 0.66840  0.38074  0.79990  Biso   1.000  C
  C8       1.0000 0.83160  0.88074  0.70010  Biso   1.000  C
  H17      1.0000 0.31120  0.65910  0.22730  Biso   1.000  H
  H18      1.0000 0.18880  0.15910  0.27270  Biso   1.000  H
  H19      1.0000 0.68880  0.34090  0.77270  Biso   1.000  H
  H20      1.0000 0.81120  0.84090  0.72730  Biso   1.000  H
  C9       1.0000 0.34270  0.51637  0.16870  Biso   1.000  C
  C10      1.0000 0.15730  0.01637  0.33130  Biso   1.000  C
  C11      1.0000 0.65730  0.48363  0.83130  Biso   1.000  C
  C12      1.0000 0.84270  0.98363  0.66870  Biso   1.000  C
  H21      1.0000 0.32930  0.47170  0.17200  Biso   1.000  H
  H22      1.0000 0.17070  0.97170  0.32800  Biso   1.000  H
  H23      1.0000 0.67070  0.52830  0.82800  Biso   1.000  H
  H24      1.0000 0.82930  0.02830  0.67200  Biso   1.000  H
  C13      1.0000 0.19780  0.54394  0.30400  Biso   1.000  C
  C14      1.0000 0.30220  0.04394  0.19600  Biso   1.000  C
  C15      1.0000 0.80220  0.45606  0.69600  Biso   1.000  C
  C16      1.0000 0.69780  0.95606  0.80400  Biso   1.000  C
  C17      1.0000 0.19910  0.58392  0.38470  Biso   1.000  C
  C18      1.0000 0.30090  0.08392  0.11530  Biso   1.000  C
  C19      1.0000 0.80090  0.41608  0.61530  Biso   1.000  C
  C20      1.0000 0.69910  0.91608  0.88470  Biso   1.000  C
  H25      1.0000 0.25320  0.62260  0.38890  Biso   1.000  H
  H26      1.0000 0.24680  0.12260  0.11110  Biso   1.000  H
  H27      1.0000 0.74680  0.37740  0.61110  Biso   1.000  H
  H28      1.0000 0.75320  0.87740  0.88890  Biso   1.000  H
  C21      1.0000 0.11960  0.56660  0.46000  Biso   1.000  C
  C22      1.0000 0.38040  0.06660  0.04000  Biso   1.000  C
  C23      1.0000 0.88040  0.43340  0.54000  Biso   1.000  C
  C24      1.0000 0.61960  0.93340  0.96000  Biso   1.000  C
  H29      1.0000 0.11950  0.59500  0.51360  Biso   1.000  H
  H30      1.0000 0.38050  0.09500  0.98640  Biso   1.000  H
  H31      1.0000 0.88050  0.40500  0.48640  Biso   1.000  H
  H32      1.0000 0.61950  0.90500  0.01360  Biso   1.000  H
  C25      1.0000 0.04070  0.50928  0.45940  Biso   1.000  C
  C26      1.0000 0.45930  0.00928  0.04060  Biso   1.000  C
  C27      1.0000 0.95930  0.49072  0.54060  Biso   1.000  C
  C28      1.0000 0.54070  0.99072  0.95940  Biso   1.000  C
  C29      1.0000 0.03930  0.47074  0.37600  Biso   1.000  C
  C30      1.0000 0.46070  0.97074  0.12400  Biso   1.000  C
  C31      1.0000 0.96070  0.52926  0.62400  Biso   1.000  C
  C32      1.0000 0.53930  0.02926  0.87600  Biso   1.000  C
  H33      1.0000 0.98580  0.43190  0.37190  Biso   1.000  H
  H34      1.0000 0.51420  0.93190  0.12810  Biso   1.000  H
  H35      1.0000 0.01420  0.56810  0.62810  Biso   1.000  H
  H36      1.0000 0.48580  0.06810  0.87190  Biso   1.000  H
  C33      1.0000 0.11410  0.48761  0.29840  Biso   1.000  C
  C34      1.0000 0.38590  0.98761  0.20160  Biso   1.000  C
  C35      1.0000 0.88590  0.51239  0.70160  Biso   1.000  C
  C36      1.0000 0.61410  0.01239  0.79840  Biso   1.000  C
  H37      1.0000 0.10800  0.46090  0.24230  Biso   1.000  H
  H38      1.0000 0.39200  0.96090  0.25770  Biso   1.000  H
  H39      1.0000 0.89200  0.53910  0.75770  Biso   1.000  H
  H40      1.0000 0.60800  0.03910  0.74230  Biso   1.000  H
  C37      1.0000 0.96030  0.69157  0.23870  Biso   1.000  C
  C38      1.0000 0.53970  0.19157  0.26130  Biso   1.000  C
  C39      1.0000 0.03970  0.30843  0.76130  Biso   1.000  C
  C40      1.0000 0.46030  0.80843  0.73870  Biso   1.000  C
  H41      1.0000 0.00950  0.69960  0.18450  Biso   1.000  H
  H42      1.0000 0.49050  0.19960  0.31550  Biso   1.000  H
  H43      1.0000 0.99050  0.30040  0.81550  Biso   1.000  H
  H44      1.0000 0.50950  0.80040  0.68450  Biso   1.000  H
  C41      1.0000 0.85060  0.64700  0.23910  Biso   1.000  C
  C42      1.0000 0.64940  0.14700  0.26090  Biso   1.000  C
  C43      1.0000 0.14940  0.35300  0.76090  Biso   1.000  C
  C44      1.0000 0.35060  0.85300  0.73910  Biso   1.000  C
  H45      1.0000 0.81080  0.61930  0.18710  Biso   1.000  H
  H46      1.0000 0.68920  0.11930  0.31290  Biso   1.000  H
  H47      1.0000 0.18920  0.38070  0.81290  Biso   1.000  H
  H48      1.0000 0.31080  0.88070  0.68710  Biso   1.000  H
  C45      1.0000 0.89680  0.69716  0.38180  Biso   1.000  C
  C46      1.0000 0.60320  0.19716  0.11820  Biso   1.000  C
  C47      1.0000 0.10320  0.30284  0.61820  Biso   1.000  C
  C48      1.0000 0.39680  0.80284  0.88180  Biso   1.000  C
  H49      1.0000 0.89170  0.70940  0.44740  Biso   1.000  H
  H50      1.0000 0.60830  0.20940  0.05260  Biso   1.000  H
  H51      1.0000 0.10830  0.29060  0.55260  Biso   1.000  H
  H52      1.0000 0.39170  0.79060  0.94740  Biso   1.000  H
  C49      1.0000 0.71170  0.60842  0.37480  Biso   1.000  C
  C50      1.0000 0.78830  0.10842  0.12520  Biso   1.000  C
  C51      1.0000 0.28830  0.39158  0.62520  Biso   1.000  C
  C52      1.0000 0.21170  0.89158  0.87480  Biso   1.000  C
  C53      1.0000 0.68180  0.54707  0.33800  Biso   1.000  C
  C54      1.0000 0.81820  0.04707  0.16200  Biso   1.000  C
  C55      1.0000 0.31820  0.45293  0.66200  Biso   1.000  C
  C56      1.0000 0.18180  0.95293  0.83800  Biso   1.000  C
  H53      1.0000 0.71820  0.53300  0.28110  Biso   1.000  H
  H54      1.0000 0.78180  0.03300  0.21890  Biso   1.000  H
  H55      1.0000 0.28180  0.46700  0.71890  Biso   1.000  H
  H56      1.0000 0.21820  0.96700  0.78110  Biso   1.000  H
  C57      1.0000 0.59570  0.50632  0.38790  Biso   1.000  C
  C58      1.0000 0.90430  0.00632  0.11210  Biso   1.000  C
  C59      1.0000 0.40430  0.49368  0.61210  Biso   1.000  C
  C60      1.0000 0.09570  0.99368  0.88790  Biso   1.000  C
  H57      1.0000 0.57340  0.46510  0.36140  Biso   1.000  H
  H58      1.0000 0.92660  0.96510  0.13860  Biso   1.000  H
  H59      1.0000 0.42660  0.53490  0.63860  Biso   1.000  H
  H60      1.0000 0.07340  0.03490  0.86140  Biso   1.000  H
  C61      1.0000 0.54160  0.52265  0.47330  Biso   1.000  C
  C62      1.0000 0.95840  0.02265  0.02670  Biso   1.000  C
  C63      1.0000 0.45840  0.47735  0.52670  Biso   1.000  C
  C64      1.0000 0.04160  0.97735  0.97330  Biso   1.000  C
  C65      1.0000 0.56960  0.58616  0.50480  Biso   1.000  C
  C66      1.0000 0.93040  0.08616  0.99520  Biso   1.000  C
  C67      1.0000 0.43040  0.41384  0.49520  Biso   1.000  C
  C68      1.0000 0.06960  0.91384  0.00480  Biso   1.000  C
  H61      1.0000 0.53100  0.60100  0.56050  Biso   1.000  H
  H62      1.0000 0.96900  0.10100  0.93950  Biso   1.000  H
  H63      1.0000 0.46900  0.39900  0.43950  Biso   1.000  H
  H64      1.0000 0.03100  0.89900  0.06050  Biso   1.000  H
  C69      1.0000 0.65350  0.62820  0.45600  Biso   1.000  C
  C70      1.0000 0.84650  0.12820  0.04400  Biso   1.000  C
  C71      1.0000 0.34650  0.37180  0.54400  Biso   1.000  C
  C72      1.0000 0.15350  0.87180  0.95600  Biso   1.000  C
  H65      1.0000 0.67000  0.67060  0.47920  Biso   1.000  H
  H66      1.0000 0.83000  0.17060  0.02080  Biso   1.000  H
  H67      1.0000 0.33000  0.32940  0.52080  Biso   1.000  H
  H68      1.0000 0.17000  0.82940  0.97920  Biso   1.000  H
  C73      1.0000 0.20350  0.73376  0.55540  Biso   1.000  C
  C74      1.0000 0.29650  0.23376  0.94460  Biso   1.000  C
  C75      1.0000 0.79650  0.26624  0.44460  Biso   1.000  C
  C76      1.0000 0.70350  0.76624  0.05540  Biso   1.000  C
  C77      1.0000 0.17510  0.70459  0.65310  Biso   1.000  C
  C78      1.0000 0.32490  0.20459  0.84690  Biso   1.000  C
  C79      1.0000 0.82490  0.29541  0.34690  Biso   1.000  C
  C80      1.0000 0.67510  0.79541  0.15310  Biso   1.000  C
  C81      1.0000 0.29250  0.66795  0.70730  Biso   1.000  C
  C82      1.0000 0.20750  0.16795  0.79270  Biso   1.000  C
  C83      1.0000 0.70750  0.33205  0.29270  Biso   1.000  C
  C84      1.0000 0.79250  0.83205  0.20730  Biso   1.000  C
  C85      1.0000 0.26570  0.63804  0.79560  Biso   1.000  C
  C86      1.0000 0.23430  0.13804  0.70440  Biso   1.000  C
  C87      1.0000 0.73430  0.36196  0.20440  Biso   1.000  C
  C88      1.0000 0.76570  0.86196  0.29560  Biso   1.000  C
  C89      1.0000 0.12840  0.64322  0.82840  Biso   1.000  C
  C90      1.0000 0.37160  0.14322  0.67160  Biso   1.000  C
  C91      1.0000 0.87160  0.35678  0.17160  Biso   1.000  C
  C92      1.0000 0.62840  0.85678  0.32840  Biso   1.000  C
  H69      1.0000 0.11290  0.62190  0.88650  Biso   1.000  H
  H70      1.0000 0.38710  0.12190  0.61350  Biso   1.000  H
  H71      1.0000 0.88710  0.37810  0.11350  Biso   1.000  H
  H72      1.0000 0.61290  0.87810  0.38650  Biso   1.000  H
  C93      1.0000 0.01240  0.68057  0.77430  Biso   1.000  C
  C94      1.0000 0.48760  0.18057  0.72570  Biso   1.000  C
  C95      1.0000 0.98760  0.31943  0.22570  Biso   1.000  C
  C96      1.0000 0.51240  0.81943  0.27430  Biso   1.000  C
  C97      1.0000 0.03810  0.71127  0.68780  Biso   1.000  C
  C98      1.0000 0.46190  0.21127  0.81220  Biso   1.000  C
  C99      1.0000 0.96190  0.28873  0.31220  Biso   1.000  C
  C100     1.0000 0.53810  0.78873  0.18780  Biso   1.000  C
  H73      1.0000 0.96240  0.73690  0.65210  Biso   1.000  H
  H74      1.0000 0.53760  0.23690  0.84790  Biso   1.000  H
  H75      1.0000 0.03760  0.26310  0.34790  Biso   1.000  H
  H76      1.0000 0.46240  0.76310  0.15210  Biso   1.000  H
  C101     1.0000 0.86510  0.68736  0.81070  Biso   1.000  C
  C102     1.0000 0.63490  0.18736  0.68930  Biso   1.000  C
  C103     1.0000 0.13490  0.31264  0.18930  Biso   1.000  C
  C104     1.0000 0.36510  0.81264  0.31070  Biso   1.000  C
  C105     1.0000 0.39380  0.59972  0.85760  Biso   1.000  C
  C106     1.0000 0.10620  0.09972  0.64240  Biso   1.000  C
  C107     1.0000 0.60620  0.40028  0.14240  Biso   1.000  C
  C108     1.0000 0.89380  0.90028  0.35760  Biso   1.000  C
  Cu1      1.0000 0.50000  0.50000  0.00000  Biso   1.000  Cu
  Cu2      1.0000 0.00000  0.00000  0.50000  Biso   1.000  Cu
  Cu3      1.0000 0.14452  0.78735  0.37657  Biso   1.000  Cu
  Cu4      1.0000 0.35548  0.28735  0.12343  Biso   1.000  Cu
  Cu5      1.0000 0.85548  0.21265  0.62343  Biso   1.000  Cu
  Cu6      1.0000 0.64452  0.71265  0.87657  Biso   1.000  Cu
  N1       1.0000 0.41830  0.54393  0.10740  Biso   1.000  N
  N2       1.0000 0.08170  0.04393  0.39260  Biso   1.000  N
  N3       1.0000 0.58170  0.45607  0.89260  Biso   1.000  N
  N4       1.0000 0.91830  0.95607  0.60740  Biso   1.000  N
  N5       1.0000 0.28500  0.55918  0.22790  Biso   1.000  N
  N6       1.0000 0.21500  0.05918  0.27210  Biso   1.000  N
  N7       1.0000 0.71500  0.44082  0.77210  Biso   1.000  N
  N8       1.0000 0.78500  0.94082  0.72790  Biso   1.000  N
  N9       1.0000 0.98940  0.72322  0.32800  Biso   1.000  N
  N10      1.0000 0.51060  0.22322  0.17200  Biso   1.000  N
  N11      1.0000 0.01060  0.27678  0.67200  Biso   1.000  N
  N12      1.0000 0.48940  0.77678  0.82800  Biso   1.000  N
  N13      1.0000 0.80980  0.65088  0.33210  Biso   1.000  N
  N14      1.0000 0.69020  0.15088  0.16790  Biso   1.000  N
  N15      1.0000 0.19020  0.34912  0.66790  Biso   1.000  N
  N16      1.0000 0.30980  0.84912  0.83210  Biso   1.000  N
  O7       1.0000 0.30950  0.71328  0.51740  Biso   1.000  O
  O8       1.0000 0.19050  0.21328  0.98260  Biso   1.000  O
  O9       1.0000 0.69050  0.28672  0.48260  Biso   1.000  O
  O10      1.0000 0.80950  0.78672  0.01740  Biso   1.000  O
  O11      1.0000 0.11050  0.77719  0.51550  Biso   1.000  O
  O12      1.0000 0.38950  0.27719  0.98450  Biso   1.000  O
  O13      1.0000 0.88950  0.22281  0.48450  Biso   1.000  O
  O14      1.0000 0.61050  0.72281  0.01550  Biso   1.000  O
  O15      1.0000 0.76220  0.72222  0.76188  Biso   1.000  O
  O16      1.0000 0.73780  0.22222  0.73812  Biso   1.000  O
  O17      1.0000 0.23780  0.27778  0.23812  Biso   1.000  O
  O18      1.0000 0.26220  0.77778  0.26188  Biso   1.000  O
  O19      1.0000 0.84460  0.66131  0.89060  Biso   1.000  O
  O20      1.0000 0.65540  0.16131  0.60940  Biso   1.000  O
  O21      1.0000 0.15540  0.33869  0.10940  Biso   1.000  O
  O22      1.0000 0.34460  0.83869  0.39060  Biso   1.000  O
  O23      1.0000 0.35690  0.55200  0.90540  Biso   1.000  O
  O24      1.0000 0.14310  0.05200  0.59460  Biso   1.000  O
  O25      1.0000 0.64310  0.44800  0.09460  Biso   1.000  O
  O26      1.0000 0.85690  0.94800  0.40540  Biso   1.000  O
  O27      1.0000 0.52700  0.61820  0.85550  Biso   1.000  O
  O28      1.0000 0.97300  0.11820  0.64450  Biso   1.000  O
  O29      1.0000 0.47300  0.38180  0.14450  Biso   1.000  O
  O30      1.0000 0.02700  0.88180  0.35550  Biso   1.000  O
  O31      1.0000 0.87170  0.26550  0.95400  Biso   1.000  O
  O32      1.0000 0.62830  0.76550  0.54600  Biso   1.000  O
  O33      1.0000 0.12830  0.73450  0.04600  Biso   1.000  O
  O34      1.0000 0.37170  0.23450  0.45400  Biso   1.000  O
  H77      1.0000 0.96500  0.26310  0.97890  Biso   1.000  H
  H78      1.0000 0.53500  0.76310  0.52110  Biso   1.000  H
  H79      1.0000 0.03500  0.73690  0.02110  Biso   1.000  H
  H80      1.0000 0.46500  0.23690  0.47890  Biso   1.000  H
  H81      1.0000 0.83460  0.30020  0.97380  Biso   1.000  H
  H82      1.0000 0.66540  0.80020  0.52620  Biso   1.000  H
  H83      1.0000 0.16540  0.69980  0.02620  Biso   1.000  H
  H84      1.0000 0.33460  0.19980  0.47380  Biso   1.000  H
  H85      1.0000 0.99180  0.47620  0.94810  Biso   1.000  H
  H86      1.0000 0.50820  0.97620  0.55190  Biso   1.000  H
  H87      1.0000 0.00820  0.52380  0.05190  Biso   1.000  H
  H88      1.0000 0.49180  0.02380  0.44810  Biso   1.000  H
