data_image0
_cell_length_a       17.1818
_cell_length_b       12.1851
_cell_length_c       13.148
_cell_angle_alpha    90
_cell_angle_beta     117.191
_cell_angle_gamma    90

_symmetry_space_group_name_H-M    "P 1"
_symmetry_int_tables_number       1

loop_
  _symmetry_equiv_pos_as_xyz
  'x, y, z'

loop_
  _atom_site_label
  _atom_site_occupancy
  _atom_site_fract_x
  _atom_site_fract_y
  _atom_site_fract_z
  _atom_site_thermal_displace_type
  _atom_site_B_iso_or_equiv
  _atom_site_type_symbol
  Cu1      1.0000 0.48788  0.75255  0.04253  Biso   1.000  Cu
  Cu2      1.0000 0.48788  0.24745  0.54253  Biso   1.000  Cu
  Cu3      1.0000 0.98788  0.25255  0.04253  Biso   1.000  Cu
  Cu4      1.0000 0.98788  0.74745  0.54253  Biso   1.000  Cu
  Cd1      1.0000 0.24333  0.61369  0.22273  Biso   1.000  Cd
  Cd2      1.0000 0.24333  0.38631  0.72273  Biso   1.000  Cd
  Cd3      1.0000 0.74333  0.11369  0.22273  Biso   1.000  Cd
  Cd4      1.0000 0.74333  0.88631  0.72273  Biso   1.000  Cd
  Br1      1.0000 0.25053  0.82936  0.14990  Biso   1.000  Br
  Br2      1.0000 0.25053  0.17064  0.64990  Biso   1.000  Br
  Br3      1.0000 0.75053  0.32936  0.14990  Biso   1.000  Br
  Br4      1.0000 0.75053  0.67064  0.64990  Biso   1.000  Br
  Br5      1.0000 0.09709  0.64259  0.23278  Biso   1.000  Br
  Br6      1.0000 0.09709  0.35741  0.73278  Biso   1.000  Br
  Br7      1.0000 0.59709  0.14259  0.23278  Biso   1.000  Br
  Br8      1.0000 0.59709  0.85741  0.73278  Biso   1.000  Br
  Br9      1.0000 0.39692  0.62460  0.38917  Biso   1.000  Br
  Br10     1.0000 0.39692  0.37540  0.88917  Biso   1.000  Br
  Br11     1.0000 0.89692  0.12460  0.38917  Biso   1.000  Br
  Br12     1.0000 0.89692  0.87540  0.88917  Biso   1.000  Br
  Br13     1.0000 0.22998  0.51216  0.04310  Biso   1.000  Br
  Br14     1.0000 0.22998  0.48784  0.54310  Biso   1.000  Br
  Br15     1.0000 0.72998  0.01216  0.04310  Biso   1.000  Br
  Br16     1.0000 0.72998  0.98784  0.54310  Biso   1.000  Br
  O1       1.0000 0.64460  0.76210  0.11410  Biso   1.000  O
  O2       1.0000 0.64460  0.23790  0.61410  Biso   1.000  O
  O3       1.0000 0.14460  0.26210  0.11410  Biso   1.000  O
  O4       1.0000 0.14460  0.73790  0.61410  Biso   1.000  O
  H1       1.0000 0.66730  0.76170  0.06860  Biso   1.000  H
  H2       1.0000 0.66730  0.23830  0.56860  Biso   1.000  H
  H3       1.0000 0.16730  0.26170  0.06860  Biso   1.000  H
  H4       1.0000 0.16730  0.73830  0.56860  Biso   1.000  H
  H5       1.0000 0.66400  0.70710  0.15850  Biso   1.000  H
  H6       1.0000 0.66400  0.29290  0.65850  Biso   1.000  H
  H7       1.0000 0.16400  0.20710  0.15850  Biso   1.000  H
  H8       1.0000 0.16400  0.79290  0.65850  Biso   1.000  H
  O5       1.0000 0.33520  0.74170  0.97280  Biso   1.000  O
  O6       1.0000 0.33520  0.25830  0.47280  Biso   1.000  O
  O7       1.0000 0.83520  0.24170  0.97280  Biso   1.000  O
  O8       1.0000 0.83520  0.75830  0.47280  Biso   1.000  O
  H9       1.0000 0.30070  0.69500  0.92560  Biso   1.000  H
  H10      1.0000 0.30070  0.30500  0.42560  Biso   1.000  H
  H11      1.0000 0.80070  0.19500  0.92560  Biso   1.000  H
  H12      1.0000 0.80070  0.80500  0.42560  Biso   1.000  H
  H13      1.0000 0.31070  0.76840  0.01070  Biso   1.000  H
  H14      1.0000 0.31070  0.23160  0.51070  Biso   1.000  H
  H15      1.0000 0.81070  0.26840  0.01070  Biso   1.000  H
  H16      1.0000 0.81070  0.73160  0.51070  Biso   1.000  H
  O9       1.0000 0.23110  0.41760  0.29380  Biso   1.000  O
  O10      1.0000 0.23110  0.58240  0.79380  Biso   1.000  O
  O11      1.0000 0.73110  0.91760  0.29380  Biso   1.000  O
  O12      1.0000 0.73110  0.08240  0.79380  Biso   1.000  O
  H17      1.0000 0.20360  0.36270  0.25330  Biso   1.000  H
  H18      1.0000 0.20360  0.63730  0.75330  Biso   1.000  H
  H19      1.0000 0.70360  0.86270  0.25330  Biso   1.000  H
  H20      1.0000 0.70360  0.13730  0.75330  Biso   1.000  H
  H21      1.0000 0.20680  0.43660  0.33470  Biso   1.000  H
  H22      1.0000 0.20680  0.56340  0.83470  Biso   1.000  H
  H23      1.0000 0.70680  0.93660  0.33470  Biso   1.000  H
  H24      1.0000 0.70680  0.06340  0.83470  Biso   1.000  H
  N1       1.0000 0.50040  0.59710  0.09440  Biso   1.000  N
  N2       1.0000 0.50040  0.40290  0.59440  Biso   1.000  N
  N3       1.0000 0.00040  0.09710  0.09440  Biso   1.000  N
  N4       1.0000 0.00040  0.90290  0.59440  Biso   1.000  N
  N5       1.0000 0.56380  0.52570  0.09830  Biso   1.000  N
  N6       1.0000 0.56380  0.47430  0.59830  Biso   1.000  N
  N7       1.0000 0.06380  0.02570  0.09830  Biso   1.000  N
  N8       1.0000 0.06380  0.97430  0.59830  Biso   1.000  N
  N9       1.0000 0.49240  0.45250  0.18200  Biso   1.000  N
  N10      1.0000 0.49240  0.54750  0.68200  Biso   1.000  N
  N11      1.0000 0.99240  0.95250  0.18200  Biso   1.000  N
  N12      1.0000 0.99240  0.04750  0.68200  Biso   1.000  N
  N13      1.0000 0.40390  0.24730  0.28570  Biso   1.000  N
  N14      1.0000 0.40390  0.75270  0.78570  Biso   1.000  N
  N15      1.0000 0.90390  0.74730  0.28570  Biso   1.000  N
  N16      1.0000 0.90390  0.25270  0.78570  Biso   1.000  N
  N17      1.0000 0.46850  0.29430  0.38550  Biso   1.000  N
  N18      1.0000 0.46850  0.70570  0.88550  Biso   1.000  N
  N19      1.0000 0.96850  0.79430  0.38550  Biso   1.000  N
  N20      1.0000 0.96850  0.20570  0.88550  Biso   1.000  N
  N21      1.0000 0.46870  0.37960  0.24290  Biso   1.000  N
  N22      1.0000 0.46870  0.62040  0.74290  Biso   1.000  N
  N23      1.0000 0.96870  0.87960  0.24290  Biso   1.000  N
  N24      1.0000 0.96870  0.12040  0.74290  Biso   1.000  N
  N25      1.0000 0.50850  0.79850  0.19980  Biso   1.000  N
  N26      1.0000 0.50850  0.20150  0.69980  Biso   1.000  N
  N27      1.0000 0.00850  0.29850  0.19980  Biso   1.000  N
  N28      1.0000 0.00850  0.70150  0.69980  Biso   1.000  N
  N29      1.0000 0.56900  0.74300  0.29770  Biso   1.000  N
  N30      1.0000 0.56900  0.25700  0.79770  Biso   1.000  N
  N31      1.0000 0.06900  0.24300  0.29770  Biso   1.000  N
  N32      1.0000 0.06900  0.75700  0.79770  Biso   1.000  N
  N33      1.0000 0.50300  0.87030  0.34550  Biso   1.000  N
  N34      1.0000 0.50300  0.12970  0.84550  Biso   1.000  N
  N35      1.0000 0.00300  0.37030  0.34550  Biso   1.000  N
  N36      1.0000 0.00300  0.62970  0.84550  Biso   1.000  N
  N37      1.0000 0.47420  0.08990  0.49230  Biso   1.000  N
  N38      1.0000 0.47420  0.91010  0.99230  Biso   1.000  N
  N39      1.0000 0.97420  0.58990  0.49230  Biso   1.000  N
  N40      1.0000 0.97420  0.41010  0.99230  Biso   1.000  N
  N41      1.0000 0.41730  0.01520  0.50250  Biso   1.000  N
  N42      1.0000 0.41730  0.98480  0.00250  Biso   1.000  N
  N43      1.0000 0.91730  0.51520  0.50250  Biso   1.000  N
  N44      1.0000 0.91730  0.48480  0.00250  Biso   1.000  N
  N45      1.0000 0.48100  0.94300  0.40860  Biso   1.000  N
  N46      1.0000 0.48100  0.05700  0.90860  Biso   1.000  N
  N47      1.0000 0.98100  0.44300  0.40860  Biso   1.000  N
  N48      1.0000 0.98100  0.55700  0.90860  Biso   1.000  N
  C1       1.0000 0.45770  0.55160  0.14440  Biso   1.000  C
  C2       1.0000 0.45770  0.44840  0.64440  Biso   1.000  C
  C3       1.0000 0.95770  0.05160  0.14440  Biso   1.000  C
  C4       1.0000 0.95770  0.94840  0.64440  Biso   1.000  C
  H25      1.0000 0.41090  0.58320  0.15240  Biso   1.000  H
  H26      1.0000 0.41090  0.41680  0.65240  Biso   1.000  H
  H27      1.0000 0.91090  0.08320  0.15240  Biso   1.000  H
  H28      1.0000 0.91090  0.91680  0.65240  Biso   1.000  H
  C5       1.0000 0.55830  0.43840  0.15140  Biso   1.000  C
  C6       1.0000 0.55830  0.56160  0.65140  Biso   1.000  C
  C7       1.0000 0.05830  0.93840  0.15140  Biso   1.000  C
  C8       1.0000 0.05830  0.06160  0.65140  Biso   1.000  C
  H29      1.0000 0.59370  0.37570  0.16650  Biso   1.000  H
  H30      1.0000 0.59370  0.62430  0.66650  Biso   1.000  H
  H31      1.0000 0.09370  0.87570  0.16650  Biso   1.000  H
  H32      1.0000 0.09370  0.12430  0.66650  Biso   1.000  H
  C9       1.0000 0.40550  0.30050  0.20020  Biso   1.000  C
  C10      1.0000 0.40550  0.69950  0.70020  Biso   1.000  C
  C11      1.0000 0.90550  0.80050  0.20020  Biso   1.000  C
  C12      1.0000 0.90550  0.19950  0.70020  Biso   1.000  C
  H33      1.0000 0.36930  0.28640  0.12230  Biso   1.000  H
  H34      1.0000 0.36930  0.71360  0.62230  Biso   1.000  H
  H35      1.0000 0.86930  0.78640  0.12230  Biso   1.000  H
  H36      1.0000 0.86930  0.21360  0.62230  Biso   1.000  H
  C13      1.0000 0.50680  0.37310  0.35930  Biso   1.000  C
  C14      1.0000 0.50680  0.62690  0.85930  Biso   1.000  C
  C15      1.0000 0.00680  0.87310  0.35930  Biso   1.000  C
  C16      1.0000 0.00680  0.12690  0.85930  Biso   1.000  C
  H37      1.0000 0.55250  0.41750  0.41100  Biso   1.000  H
  H38      1.0000 0.55250  0.58250  0.91100  Biso   1.000  H
  H39      1.0000 0.05250  0.91750  0.41100  Biso   1.000  H
  H40      1.0000 0.05250  0.08250  0.91100  Biso   1.000  H
  C17      1.0000 0.47010  0.87430  0.23000  Biso   1.000  C
  C18      1.0000 0.47010  0.12570  0.73000  Biso   1.000  C
  C19      1.0000 0.97010  0.37430  0.23000  Biso   1.000  C
  C20      1.0000 0.97010  0.62570  0.73000  Biso   1.000  C
  H41      1.0000 0.42710  0.92330  0.18070  Biso   1.000  H
  H42      1.0000 0.42710  0.07670  0.68070  Biso   1.000  H
  H43      1.0000 0.92710  0.42330  0.18070  Biso   1.000  H
  H44      1.0000 0.92710  0.57670  0.68070  Biso   1.000  H
  C21      1.0000 0.56420  0.78890  0.38400  Biso   1.000  C
  C22      1.0000 0.56420  0.21110  0.88400  Biso   1.000  C
  C23      1.0000 0.06420  0.28890  0.38400  Biso   1.000  C
  C24      1.0000 0.06420  0.71110  0.88400  Biso   1.000  C
  H45      1.0000 0.59770  0.76900  0.46110  Biso   1.000  H
  H46      1.0000 0.59770  0.23100  0.96110  Biso   1.000  H
  H47      1.0000 0.09770  0.26900  0.46110  Biso   1.000  H
  H48      1.0000 0.09770  0.73100  0.96110  Biso   1.000  H
  C25      1.0000 0.51180  0.04560  0.43640  Biso   1.000  C
  C26      1.0000 0.51180  0.95440  0.93640  Biso   1.000  C
  C27      1.0000 0.01180  0.54560  0.43640  Biso   1.000  C
  C28      1.0000 0.01180  0.45440  0.93640  Biso   1.000  C
  H49      1.0000 0.55320  0.07930  0.41850  Biso   1.000  H
  H50      1.0000 0.55320  0.92070  0.91850  Biso   1.000  H
  H51      1.0000 0.05320  0.57930  0.41850  Biso   1.000  H
  H52      1.0000 0.05320  0.42070  0.91850  Biso   1.000  H
  C29      1.0000 0.42210  0.92630  0.45110  Biso   1.000  C
  C30      1.0000 0.42210  0.07370  0.95110  Biso   1.000  C
  C31      1.0000 0.92210  0.42630  0.45110  Biso   1.000  C
  C32      1.0000 0.92210  0.57370  0.95110  Biso   1.000  C
  H53      1.0000 0.39050  0.86130  0.44400  Biso   1.000  H
  H54      1.0000 0.39050  0.13870  0.94400  Biso   1.000  H
  H55      1.0000 0.89050  0.36130  0.44400  Biso   1.000  H
  H56      1.0000 0.89050  0.63870  0.94400  Biso   1.000  H
  O13      1.0000 0.73480  0.28580  0.48480  Biso   1.000  O
  O14      1.0000 0.73480  0.71420  0.98480  Biso   1.000  O
  O15      1.0000 0.23480  0.78580  0.48480  Biso   1.000  O
  O16      1.0000 0.23480  0.21420  0.98480  Biso   1.000  O
  H57      1.0000 0.72490  0.24850  0.42560  Biso   1.000  H
  H58      1.0000 0.72490  0.75150  0.92560  Biso   1.000  H
  H59      1.0000 0.22490  0.74850  0.42560  Biso   1.000  H
  H60      1.0000 0.22490  0.25150  0.92560  Biso   1.000  H
  H61      1.0000 0.73270  0.35350  0.46850  Biso   1.000  H
  H62      1.0000 0.73270  0.64650  0.96850  Biso   1.000  H
  H63      1.0000 0.23270  0.85350  0.46850  Biso   1.000  H
  H64      1.0000 0.23270  0.14650  0.96850  Biso   1.000  H
  O17      1.0000 0.74760  0.60020  0.27530  Biso   1.000  O
  O18      1.0000 0.74760  0.39980  0.77530  Biso   1.000  O
  O19      1.0000 0.24760  0.10020  0.27530  Biso   1.000  O
  O20      1.0000 0.24760  0.89980  0.77530  Biso   1.000  O
  H65      1.0000 0.74940  0.53430  0.24860  Biso   1.000  H
  H66      1.0000 0.74940  0.46570  0.74860  Biso   1.000  H
  H67      1.0000 0.24940  0.03430  0.24860  Biso   1.000  H
  H68      1.0000 0.24940  0.96570  0.74860  Biso   1.000  H
  H69      1.0000 0.79780  0.61150  0.32990  Biso   1.000  H
  H70      1.0000 0.79780  0.38850  0.82990  Biso   1.000  H
  H71      1.0000 0.29780  0.11150  0.32990  Biso   1.000  H
  H72      1.0000 0.29780  0.88850  0.82990  Biso   1.000  H
  O21      1.0000 0.68400  0.49930  0.41760  Biso   1.000  O
  O22      1.0000 0.68400  0.50070  0.91760  Biso   1.000  O
  O23      1.0000 0.18400  0.99930  0.41760  Biso   1.000  O
  O24      1.0000 0.18400  0.00070  0.91760  Biso   1.000  O
  H73      1.0000 0.69770  0.53110  0.48100  Biso   1.000  H
  H74      1.0000 0.69770  0.46890  0.98100  Biso   1.000  H
  H75      1.0000 0.19770  0.03110  0.48100  Biso   1.000  H
  H76      1.0000 0.19770  0.96890  0.98100  Biso   1.000  H
  H77      1.0000 0.70390  0.53710  0.38010  Biso   1.000  H
  H78      1.0000 0.70390  0.46290  0.88010  Biso   1.000  H
  H79      1.0000 0.20390  0.03710  0.38010  Biso   1.000  H
  H80      1.0000 0.20390  0.96290  0.88010  Biso   1.000  H
