data_image0
_cell_length_a       13.5711
_cell_length_b       12.8518
_cell_length_c       12.151
_cell_angle_alpha    90
_cell_angle_beta     91.032
_cell_angle_gamma    90

_symmetry_space_group_name_H-M    "P 1"
_symmetry_int_tables_number       1

loop_
  _symmetry_equiv_pos_as_xyz
  'x, y, z'

loop_
  _atom_site_label
  _atom_site_occupancy
  _atom_site_fract_x
  _atom_site_fract_y
  _atom_site_fract_z
  _atom_site_thermal_displace_type
  _atom_site_B_iso_or_equiv
  _atom_site_type_symbol
  Cu1      1.0000 0.25000  0.25000  0.50000  Biso   1.000  Cu
  Cu2      1.0000 0.75000  0.25000  0.00000  Biso   1.000  Cu
  Cu3      1.0000 0.75000  0.75000  0.50000  Biso   1.000  Cu
  Cu4      1.0000 0.25000  0.75000  0.00000  Biso   1.000  Cu
  O1       1.0000 0.23708  0.39525  0.61035  Biso   1.000  O
  O2       1.0000 0.76292  0.39525  0.88965  Biso   1.000  O
  O3       1.0000 0.73708  0.89525  0.61035  Biso   1.000  O
  O4       1.0000 0.26292  0.89525  0.88965  Biso   1.000  O
  O5       1.0000 0.76292  0.60475  0.38965  Biso   1.000  O
  O6       1.0000 0.23708  0.60475  0.11035  Biso   1.000  O
  O7       1.0000 0.26292  0.10475  0.38965  Biso   1.000  O
  O8       1.0000 0.73708  0.10475  0.11035  Biso   1.000  O
  H1       1.0000 0.27890  0.40500  0.66500  Biso   1.000  H
  H2       1.0000 0.72110  0.40500  0.83500  Biso   1.000  H
  H3       1.0000 0.77890  0.90500  0.66500  Biso   1.000  H
  H4       1.0000 0.22110  0.90500  0.83500  Biso   1.000  H
  H5       1.0000 0.72110  0.59500  0.33500  Biso   1.000  H
  H6       1.0000 0.27890  0.59500  0.16500  Biso   1.000  H
  H7       1.0000 0.22110  0.09500  0.33500  Biso   1.000  H
  H8       1.0000 0.77890  0.09500  0.16500  Biso   1.000  H
  H9       1.0000 0.23920  0.44800  0.57660  Biso   1.000  H
  H10      1.0000 0.76080  0.44800  0.92340  Biso   1.000  H
  H11      1.0000 0.73920  0.94800  0.57660  Biso   1.000  H
  H12      1.0000 0.26080  0.94800  0.92340  Biso   1.000  H
  H13      1.0000 0.76080  0.55200  0.42340  Biso   1.000  H
  H14      1.0000 0.23920  0.55200  0.07660  Biso   1.000  H
  H15      1.0000 0.26080  0.05200  0.42340  Biso   1.000  H
  H16      1.0000 0.73920  0.05200  0.07660  Biso   1.000  H
  S1       1.0000 0.30523  0.19304  0.98665  Biso   1.000  S
  S2       1.0000 0.69477  0.19304  0.51335  Biso   1.000  S
  S3       1.0000 0.80523  0.69304  0.98665  Biso   1.000  S
  S4       1.0000 0.19477  0.69304  0.51335  Biso   1.000  S
  S5       1.0000 0.69477  0.80696  0.01335  Biso   1.000  S
  S6       1.0000 0.30523  0.80696  0.48665  Biso   1.000  S
  S7       1.0000 0.19477  0.30696  0.01335  Biso   1.000  S
  S8       1.0000 0.80523  0.30696  0.48665  Biso   1.000  S
  O9       1.0000 0.35982  0.23255  0.89323  Biso   1.000  O
  O10      1.0000 0.64018  0.23255  0.60677  Biso   1.000  O
  O11      1.0000 0.85982  0.73255  0.89323  Biso   1.000  O
  O12      1.0000 0.14018  0.73255  0.60677  Biso   1.000  O
  O13      1.0000 0.64018  0.76745  0.10677  Biso   1.000  O
  O14      1.0000 0.35982  0.76745  0.39323  Biso   1.000  O
  O15      1.0000 0.14018  0.26745  0.10677  Biso   1.000  O
  O16      1.0000 0.85982  0.26745  0.39323  Biso   1.000  O
  O17      1.0000 0.25040  0.09850  0.96450  Biso   1.000  O
  O18      1.0000 0.74960  0.09850  0.53550  Biso   1.000  O
  O19      1.0000 0.75040  0.59850  0.96450  Biso   1.000  O
  O20      1.0000 0.24960  0.59850  0.53550  Biso   1.000  O
  O21      1.0000 0.74960  0.90150  0.03550  Biso   1.000  O
  O22      1.0000 0.25040  0.90150  0.46450  Biso   1.000  O
  O23      1.0000 0.24960  0.40150  0.03550  Biso   1.000  O
  O24      1.0000 0.75040  0.40150  0.46450  Biso   1.000  O
  O25      1.0000 0.36233  0.19038  0.08906  Biso   1.000  O
  O26      1.0000 0.63767  0.19038  0.41094  Biso   1.000  O
  O27      1.0000 0.86233  0.69038  0.08906  Biso   1.000  O
  O28      1.0000 0.13767  0.69038  0.41094  Biso   1.000  O
  O29      1.0000 0.63767  0.80962  0.91094  Biso   1.000  O
  O30      1.0000 0.36233  0.80962  0.58906  Biso   1.000  O
  O31      1.0000 0.13767  0.30962  0.91094  Biso   1.000  O
  O32      1.0000 0.86233  0.30962  0.58906  Biso   1.000  O
  O33      1.0000 0.35093  0.43689  0.79412  Biso   1.000  O
  O34      1.0000 0.64907  0.43689  0.70588  Biso   1.000  O
  O35      1.0000 0.85093  0.93689  0.79412  Biso   1.000  O
  O36      1.0000 0.14907  0.93689  0.70588  Biso   1.000  O
  O37      1.0000 0.64907  0.56311  0.20588  Biso   1.000  O
  O38      1.0000 0.35093  0.56311  0.29412  Biso   1.000  O
  O39      1.0000 0.14907  0.06311  0.20588  Biso   1.000  O
  O40      1.0000 0.85093  0.06311  0.29412  Biso   1.000  O
  H17      1.0000 0.30160  0.47360  0.81230  Biso   1.000  H
  H18      1.0000 0.69840  0.47360  0.68770  Biso   1.000  H
  H19      1.0000 0.80160  0.97360  0.81230  Biso   1.000  H
  H20      1.0000 0.19840  0.97360  0.68770  Biso   1.000  H
  H21      1.0000 0.69840  0.52640  0.18770  Biso   1.000  H
  H22      1.0000 0.30160  0.52640  0.31230  Biso   1.000  H
  H23      1.0000 0.19840  0.02640  0.18770  Biso   1.000  H
  H24      1.0000 0.80160  0.02640  0.31230  Biso   1.000  H
  H25      1.0000 0.34690  0.37840  0.82760  Biso   1.000  H
  H26      1.0000 0.65310  0.37840  0.67240  Biso   1.000  H
  H27      1.0000 0.84690  0.87840  0.82760  Biso   1.000  H
  H28      1.0000 0.15310  0.87840  0.67240  Biso   1.000  H
  H29      1.0000 0.65310  0.62160  0.17240  Biso   1.000  H
  H30      1.0000 0.34690  0.62160  0.32760  Biso   1.000  H
  H31      1.0000 0.15310  0.12160  0.17240  Biso   1.000  H
  H32      1.0000 0.84690  0.12160  0.32760  Biso   1.000  H
  O41      1.0000 0.02190  0.43460  0.58470  Biso   1.000  O
  O42      1.0000 0.97810  0.43460  0.91530  Biso   1.000  O
  O43      1.0000 0.52190  0.93460  0.58470  Biso   1.000  O
  O44      1.0000 0.47810  0.93460  0.91530  Biso   1.000  O
  O45      1.0000 0.97810  0.56540  0.41530  Biso   1.000  O
  O46      1.0000 0.02190  0.56540  0.08470  Biso   1.000  O
  O47      1.0000 0.47810  0.06540  0.41530  Biso   1.000  O
  O48      1.0000 0.52190  0.06540  0.08470  Biso   1.000  O
  H33      1.0000 0.97190  0.39340  0.58850  Biso   1.000  H
  H34      1.0000 0.02810  0.39340  0.91150  Biso   1.000  H
  H35      1.0000 0.47190  0.89340  0.58850  Biso   1.000  H
  H36      1.0000 0.52810  0.89340  0.91150  Biso   1.000  H
  H37      1.0000 0.02810  0.60660  0.41150  Biso   1.000  H
  H38      1.0000 0.97190  0.60660  0.08850  Biso   1.000  H
  H39      1.0000 0.52810  0.10660  0.41150  Biso   1.000  H
  H40      1.0000 0.47190  0.10660  0.08850  Biso   1.000  H
  H41      1.0000 0.01030  0.47670  0.53220  Biso   1.000  H
  H42      1.0000 0.98970  0.47670  0.96780  Biso   1.000  H
  H43      1.0000 0.51030  0.97670  0.53220  Biso   1.000  H
  H44      1.0000 0.48970  0.97670  0.96780  Biso   1.000  H
  H45      1.0000 0.98970  0.52330  0.46780  Biso   1.000  H
  H46      1.0000 0.01030  0.52330  0.03220  Biso   1.000  H
  H47      1.0000 0.48970  0.02330  0.46780  Biso   1.000  H
  H48      1.0000 0.51030  0.02330  0.03220  Biso   1.000  H
  N1       1.0000 0.33696  0.17834  0.61299  Biso   1.000  N
  N2       1.0000 0.66304  0.17834  0.88701  Biso   1.000  N
  N3       1.0000 0.83696  0.67834  0.61299  Biso   1.000  N
  N4       1.0000 0.16304  0.67834  0.88701  Biso   1.000  N
  N5       1.0000 0.66304  0.82166  0.38701  Biso   1.000  N
  N6       1.0000 0.33696  0.82166  0.11299  Biso   1.000  N
  N7       1.0000 0.16304  0.32166  0.38701  Biso   1.000  N
  N8       1.0000 0.83696  0.32166  0.11299  Biso   1.000  N
  N9       1.0000 0.31007  0.08516  0.66178  Biso   1.000  N
  N10      1.0000 0.68993  0.08516  0.83822  Biso   1.000  N
  N11      1.0000 0.81007  0.58516  0.66178  Biso   1.000  N
  N12      1.0000 0.18993  0.58516  0.83822  Biso   1.000  N
  N13      1.0000 0.68993  0.91484  0.33822  Biso   1.000  N
  N14      1.0000 0.31007  0.91484  0.16178  Biso   1.000  N
  N15      1.0000 0.18993  0.41484  0.33822  Biso   1.000  N
  N16      1.0000 0.81007  0.41484  0.16178  Biso   1.000  N
  N17      1.0000 0.45631  0.12957  0.71987  Biso   1.000  N
  N18      1.0000 0.54369  0.12957  0.78013  Biso   1.000  N
  N19      1.0000 0.95631  0.62957  0.71987  Biso   1.000  N
  N20      1.0000 0.04369  0.62957  0.78013  Biso   1.000  N
  N21      1.0000 0.54369  0.87043  0.28013  Biso   1.000  N
  N22      1.0000 0.45631  0.87043  0.21987  Biso   1.000  N
  N23      1.0000 0.04369  0.37043  0.28013  Biso   1.000  N
  N24      1.0000 0.95631  0.37043  0.21987  Biso   1.000  N
  N25      1.0000 0.12961  0.19180  0.57697  Biso   1.000  N
  N26      1.0000 0.87039  0.19180  0.92303  Biso   1.000  N
  N27      1.0000 0.62961  0.69180  0.57697  Biso   1.000  N
  N28      1.0000 0.37039  0.69180  0.92303  Biso   1.000  N
  N29      1.0000 0.87039  0.80820  0.42303  Biso   1.000  N
  N30      1.0000 0.12961  0.80820  0.07697  Biso   1.000  N
  N31      1.0000 0.37039  0.30820  0.42303  Biso   1.000  N
  N32      1.0000 0.62961  0.30820  0.07697  Biso   1.000  N
  N33      1.0000 0.06234  0.12163  0.52981  Biso   1.000  N
  N34      1.0000 0.93766  0.12163  0.97019  Biso   1.000  N
  N35      1.0000 0.56234  0.62163  0.52981  Biso   1.000  N
  N36      1.0000 0.43766  0.62163  0.97019  Biso   1.000  N
  N37      1.0000 0.93766  0.87837  0.47019  Biso   1.000  N
  N38      1.0000 0.06234  0.87837  0.02981  Biso   1.000  N
  N39      1.0000 0.43766  0.37837  0.47019  Biso   1.000  N
  N40      1.0000 0.56234  0.37837  0.02981  Biso   1.000  N
  N41      1.0000 0.02474  0.15191  0.70080  Biso   1.000  N
  N42      1.0000 0.97526  0.15191  0.79920  Biso   1.000  N
  N43      1.0000 0.52474  0.65191  0.70080  Biso   1.000  N
  N44      1.0000 0.47526  0.65191  0.79920  Biso   1.000  N
  N45      1.0000 0.97526  0.84809  0.29920  Biso   1.000  N
  N46      1.0000 0.02474  0.84809  0.20080  Biso   1.000  N
  N47      1.0000 0.47526  0.34809  0.29920  Biso   1.000  N
  N48      1.0000 0.52474  0.34809  0.20080  Biso   1.000  N
  C1       1.0000 0.42546  0.20378  0.64846  Biso   1.000  C
  C2       1.0000 0.57454  0.20378  0.85154  Biso   1.000  C
  C3       1.0000 0.92546  0.70378  0.64846  Biso   1.000  C
  C4       1.0000 0.07454  0.70378  0.85154  Biso   1.000  C
  C5       1.0000 0.57454  0.79622  0.35154  Biso   1.000  C
  C6       1.0000 0.42546  0.79622  0.14846  Biso   1.000  C
  C7       1.0000 0.07454  0.29622  0.35154  Biso   1.000  C
  C8       1.0000 0.92546  0.29622  0.14846  Biso   1.000  C
  H49      1.0000 0.46120  0.26310  0.62790  Biso   1.000  H
  H50      1.0000 0.53880  0.26310  0.87210  Biso   1.000  H
  H51      1.0000 0.96120  0.76310  0.62790  Biso   1.000  H
  H52      1.0000 0.03880  0.76310  0.87210  Biso   1.000  H
  H53      1.0000 0.53880  0.73690  0.37210  Biso   1.000  H
  H54      1.0000 0.46120  0.73690  0.12790  Biso   1.000  H
  H55      1.0000 0.03880  0.23690  0.37210  Biso   1.000  H
  H56      1.0000 0.96120  0.23690  0.12790  Biso   1.000  H
  C9       1.0000 0.38312  0.05778  0.72670  Biso   1.000  C
  C10      1.0000 0.61688  0.05778  0.77330  Biso   1.000  C
  C11      1.0000 0.88312  0.55778  0.72670  Biso   1.000  C
  C12      1.0000 0.11688  0.55778  0.77330  Biso   1.000  C
  C13      1.0000 0.61688  0.94222  0.27330  Biso   1.000  C
  C14      1.0000 0.38312  0.94222  0.22670  Biso   1.000  C
  C15      1.0000 0.11688  0.44222  0.27330  Biso   1.000  C
  C16      1.0000 0.88312  0.44222  0.22670  Biso   1.000  C
  H57      1.0000 0.38490  0.99790  0.77110  Biso   1.000  H
  H58      1.0000 0.61510  0.99790  0.72890  Biso   1.000  H
  H59      1.0000 0.88490  0.49790  0.77110  Biso   1.000  H
  H60      1.0000 0.11510  0.49790  0.72890  Biso   1.000  H
  H61      1.0000 0.61510  0.00210  0.22890  Biso   1.000  H
  H62      1.0000 0.38490  0.00210  0.27110  Biso   1.000  H
  H63      1.0000 0.11510  0.50210  0.22890  Biso   1.000  H
  H64      1.0000 0.88490  0.50210  0.27110  Biso   1.000  H
  C17      1.0000 0.10589  0.20948  0.67855  Biso   1.000  C
  C18      1.0000 0.89411  0.20948  0.82145  Biso   1.000  C
  C19      1.0000 0.60589  0.70948  0.67855  Biso   1.000  C
  C20      1.0000 0.39411  0.70948  0.82145  Biso   1.000  C
  C21      1.0000 0.89411  0.79052  0.32145  Biso   1.000  C
  C22      1.0000 0.10589  0.79052  0.17855  Biso   1.000  C
  C23      1.0000 0.39411  0.29052  0.32145  Biso   1.000  C
  C24      1.0000 0.60589  0.29052  0.17855  Biso   1.000  C
  H65      1.0000 0.13910  0.25430  0.72790  Biso   1.000  H
  H66      1.0000 0.86090  0.25430  0.77210  Biso   1.000  H
  H67      1.0000 0.63910  0.75430  0.72790  Biso   1.000  H
  H68      1.0000 0.36090  0.75430  0.77210  Biso   1.000  H
  H69      1.0000 0.86090  0.74570  0.27210  Biso   1.000  H
  H70      1.0000 0.13910  0.74570  0.22790  Biso   1.000  H
  H71      1.0000 0.36090  0.24570  0.27210  Biso   1.000  H
  H72      1.0000 0.63910  0.24570  0.22790  Biso   1.000  H
  C25      1.0000 0.99936  0.09952  0.60586  Biso   1.000  C
  C26      1.0000 0.00064  0.09952  0.89414  Biso   1.000  C
  C27      1.0000 0.49936  0.59952  0.60586  Biso   1.000  C
  C28      1.0000 0.50064  0.59952  0.89414  Biso   1.000  C
  C29      1.0000 0.00064  0.90048  0.39414  Biso   1.000  C
  C30      1.0000 0.99936  0.90048  0.10586  Biso   1.000  C
  C31      1.0000 0.50064  0.40048  0.39414  Biso   1.000  C
  C32      1.0000 0.49936  0.40048  0.10586  Biso   1.000  C
  H73      1.0000 0.94500  0.05470  0.59720  Biso   1.000  H
  H74      1.0000 0.05500  0.05470  0.90280  Biso   1.000  H
  H75      1.0000 0.44500  0.55470  0.59720  Biso   1.000  H
  H76      1.0000 0.55500  0.55470  0.90280  Biso   1.000  H
  H77      1.0000 0.05500  0.94530  0.40280  Biso   1.000  H
  H78      1.0000 0.94500  0.94530  0.09720  Biso   1.000  H
  H79      1.0000 0.55500  0.44530  0.40280  Biso   1.000  H
  H80      1.0000 0.44500  0.44530  0.09720  Biso   1.000  H
  H81      1.0000 0.07300  0.39960  0.57280  Biso   1.000  H
  H82      1.0000 0.92700  0.39960  0.92720  Biso   1.000  H
  H83      1.0000 0.57300  0.89960  0.57280  Biso   1.000  H
  H84      1.0000 0.42700  0.89960  0.92720  Biso   1.000  H
  H85      1.0000 0.92700  0.60040  0.42720  Biso   1.000  H
  H86      1.0000 0.07300  0.60040  0.07280  Biso   1.000  H
  H87      1.0000 0.42700  0.10040  0.42720  Biso   1.000  H
  H88      1.0000 0.57300  0.10040  0.07280  Biso   1.000  H
  O49      1.0000 0.36270  0.27930  0.90230  Biso   1.000  O
  O50      1.0000 0.63730  0.27930  0.59770  Biso   1.000  O
  O51      1.0000 0.86270  0.77930  0.90230  Biso   1.000  O
  O52      1.0000 0.13730  0.77930  0.59770  Biso   1.000  O
  O53      1.0000 0.63730  0.72070  0.09770  Biso   1.000  O
  O54      1.0000 0.36270  0.72070  0.40230  Biso   1.000  O
  O55      1.0000 0.13730  0.22070  0.09770  Biso   1.000  O
  O56      1.0000 0.86270  0.22070  0.40230  Biso   1.000  O
  O57      1.0000 0.36610  0.24980  0.10130  Biso   1.000  O
  O58      1.0000 0.63390  0.24980  0.39870  Biso   1.000  O
  O59      1.0000 0.86610  0.74980  0.10130  Biso   1.000  O
  O60      1.0000 0.13390  0.74980  0.39870  Biso   1.000  O
  O61      1.0000 0.63390  0.75020  0.89870  Biso   1.000  O
  O62      1.0000 0.36610  0.75020  0.60130  Biso   1.000  O
  O63      1.0000 0.13390  0.25020  0.89870  Biso   1.000  O
  O64      1.0000 0.86610  0.25020  0.60130  Biso   1.000  O
  O65      1.0000 0.28020  0.39900  0.03100  Biso   1.000  O
  O66      1.0000 0.71980  0.39900  0.46900  Biso   1.000  O
  O67      1.0000 0.78020  0.89900  0.03100  Biso   1.000  O
  O68      1.0000 0.21980  0.89900  0.46900  Biso   1.000  O
  O69      1.0000 0.71980  0.60100  0.96900  Biso   1.000  O
  O70      1.0000 0.28020  0.60100  0.53100  Biso   1.000  O
  O71      1.0000 0.21980  0.10100  0.96900  Biso   1.000  O
  O72      1.0000 0.78020  0.10100  0.53100  Biso   1.000  O
  S9       1.0000 0.31510  0.29430  0.00690  Biso   1.000  S
  S10      1.0000 0.68490  0.29430  0.49310  Biso   1.000  S
  S11      1.0000 0.81510  0.79430  0.00690  Biso   1.000  S
  S12      1.0000 0.18490  0.79430  0.49310  Biso   1.000  S
  S13      1.0000 0.68490  0.70570  0.99310  Biso   1.000  S
  S14      1.0000 0.31510  0.70570  0.50690  Biso   1.000  S
  S15      1.0000 0.18490  0.20570  0.99310  Biso   1.000  S
  S16      1.0000 0.81510  0.20570  0.50690  Biso   1.000  S
