data_image0
_cell_length_a       10.6332
_cell_length_b       12.0361
_cell_length_c       12.8052
_cell_angle_alpha    90
_cell_angle_beta     92.256
_cell_angle_gamma    90

_symmetry_space_group_name_H-M    "P 1"
_symmetry_int_tables_number       1

loop_
  _symmetry_equiv_pos_as_xyz
  'x, y, z'

loop_
  _atom_site_label
  _atom_site_occupancy
  _atom_site_fract_x
  _atom_site_fract_y
  _atom_site_fract_z
  _atom_site_thermal_displace_type
  _atom_site_B_iso_or_equiv
  _atom_site_type_symbol
  Cu1      1.0000 0.12227  0.37021  0.49515  Biso   1.000  Cu
  Cu2      1.0000 0.37773  0.87021  0.00485  Biso   1.000  Cu
  Cu3      1.0000 0.87773  0.62979  0.50486  Biso   1.000  Cu
  Cu4      1.0000 0.62227  0.12979  0.99514  Biso   1.000  Cu
  N1       1.0000 0.12645  0.29713  0.63562  Biso   1.000  N
  N2       1.0000 0.37355  0.79713  0.86438  Biso   1.000  N
  N3       1.0000 0.87355  0.70287  0.36438  Biso   1.000  N
  N4       1.0000 0.62645  0.20287  0.13562  Biso   1.000  N
  N5       1.0000 0.03044  0.30208  0.70530  Biso   1.000  N
  N6       1.0000 0.46956  0.80208  0.79470  Biso   1.000  N
  N7       1.0000 0.96956  0.69792  0.29470  Biso   1.000  N
  N8       1.0000 0.53044  0.19792  0.20530  Biso   1.000  N
  N9       1.0000 0.18546  0.20457  0.77208  Biso   1.000  N
  N10      1.0000 0.31454  0.70457  0.72792  Biso   1.000  N
  N11      1.0000 0.81454  0.79543  0.22792  Biso   1.000  N
  N12      1.0000 0.68546  0.29543  0.27208  Biso   1.000  N
  N13      1.0000 0.40810  0.11853  0.96340  Biso   1.000  N
  N14      1.0000 0.09190  0.61853  0.53660  Biso   1.000  N
  N15      1.0000 0.59190  0.88147  0.03660  Biso   1.000  N
  N16      1.0000 0.90810  0.38147  0.46340  Biso   1.000  N
  N17      1.0000 0.34783  0.01861  0.93675  Biso   1.000  N
  N18      1.0000 0.15217  0.51861  0.56325  Biso   1.000  N
  N19      1.0000 0.65217  0.98139  0.06325  Biso   1.000  N
  N20      1.0000 0.84783  0.48139  0.43675  Biso   1.000  N
  N21      1.0000 0.26255  0.14854  0.84327  Biso   1.000  N
  N22      1.0000 0.23745  0.64854  0.65673  Biso   1.000  N
  N23      1.0000 0.73745  0.85146  0.15673  Biso   1.000  N
  N24      1.0000 0.76255  0.35146  0.34327  Biso   1.000  N
  N25      1.0000 0.13704  0.21908  0.42950  Biso   1.000  N
  N26      1.0000 0.36296  0.71908  0.07050  Biso   1.000  N
  N27      1.0000 0.86296  0.78092  0.57050  Biso   1.000  N
  N28      1.0000 0.63704  0.28092  0.92950  Biso   1.000  N
  N29      1.0000 0.06755  0.12569  0.45546  Biso   1.000  N
  N30      1.0000 0.43245  0.62569  0.04454  Biso   1.000  N
  N31      1.0000 0.93245  0.87431  0.54454  Biso   1.000  N
  N32      1.0000 0.56755  0.37431  0.95546  Biso   1.000  N
  N33      1.0000 0.20767  0.08084  0.34302  Biso   1.000  N
  N34      1.0000 0.29233  0.58084  0.15698  Biso   1.000  N
  N35      1.0000 0.79233  0.91916  0.65698  Biso   1.000  N
  N36      1.0000 0.70767  0.41916  0.84302  Biso   1.000  N
  N37      1.0000 0.35435  0.93851  0.14561  Biso   1.000  N
  N38      1.0000 0.14565  0.43851  0.35439  Biso   1.000  N
  N39      1.0000 0.64565  0.06149  0.85439  Biso   1.000  N
  N40      1.0000 0.85435  0.56149  0.64561  Biso   1.000  N
  N41      1.0000 0.44014  0.91884  0.22918  Biso   1.000  N
  N42      1.0000 0.05986  0.41884  0.27082  Biso   1.000  N
  N43      1.0000 0.55986  0.08116  0.77082  Biso   1.000  N
  N44      1.0000 0.94014  0.58116  0.72918  Biso   1.000  N
  N45      1.0000 0.28410  0.01992  0.28021  Biso   1.000  N
  N46      1.0000 0.21590  0.51992  0.21979  Biso   1.000  N
  N47      1.0000 0.71590  0.98008  0.71979  Biso   1.000  N
  N48      1.0000 0.78410  0.48008  0.78021  Biso   1.000  N
  C1       1.0000 0.21868  0.23905  0.67681  Biso   1.000  C
  C2       1.0000 0.28132  0.73905  0.82319  Biso   1.000  C
  C3       1.0000 0.78132  0.76095  0.32319  Biso   1.000  C
  C4       1.0000 0.71868  0.26095  0.17681  Biso   1.000  C
  C5       1.0000 0.06864  0.24544  0.78722  Biso   1.000  C
  C6       1.0000 0.43136  0.74544  0.71278  Biso   1.000  C
  C7       1.0000 0.93136  0.75456  0.21278  Biso   1.000  C
  C8       1.0000 0.56864  0.25456  0.28722  Biso   1.000  C
  C9       1.0000 0.35444  0.19561  0.90570  Biso   1.000  C
  C10      1.0000 0.14556  0.69561  0.59430  Biso   1.000  C
  C11      1.0000 0.64556  0.80439  0.09430  Biso   1.000  C
  C12      1.0000 0.85444  0.30439  0.40570  Biso   1.000  C
  C13      1.0000 0.26083  0.03831  0.86454  Biso   1.000  C
  C14      1.0000 0.23917  0.53831  0.63546  Biso   1.000  C
  C15      1.0000 0.73917  0.96169  0.13546  Biso   1.000  C
  C16      1.0000 0.76083  0.46169  0.36454  Biso   1.000  C
  C17      1.0000 0.21979  0.19067  0.36298  Biso   1.000  C
  C18      1.0000 0.28021  0.69067  0.13702  Biso   1.000  C
  C19      1.0000 0.78021  0.80933  0.63702  Biso   1.000  C
  C20      1.0000 0.71979  0.30933  0.86298  Biso   1.000  C
  C21      1.0000 0.11203  0.04356  0.40258  Biso   1.000  C
  C22      1.0000 0.38797  0.54356  0.09742  Biso   1.000  C
  C23      1.0000 0.88797  0.95644  0.59742  Biso   1.000  C
  C24      1.0000 0.61203  0.45644  0.90258  Biso   1.000  C
  C25      1.0000 0.26228  0.99869  0.17684  Biso   1.000  C
  C26      1.0000 0.23772  0.49869  0.32316  Biso   1.000  C
  C27      1.0000 0.73772  0.00131  0.82316  Biso   1.000  C
  C28      1.0000 0.76228  0.50131  0.67684  Biso   1.000  C
  C29      1.0000 0.39580  0.96888  0.30954  Biso   1.000  C
  C30      1.0000 0.10420  0.46888  0.19046  Biso   1.000  C
  C31      1.0000 0.60420  0.03112  0.69046  Biso   1.000  C
  C32      1.0000 0.89580  0.53112  0.80954  Biso   1.000  C
  N49      1.0000 0.47753  0.36773  0.55190  Biso   1.000  N
  N50      1.0000 0.02247  0.86773  0.94810  Biso   1.000  N
  N51      1.0000 0.52247  0.63227  0.44810  Biso   1.000  N
  N52      1.0000 0.97753  0.13227  0.05190  Biso   1.000  N
  O1       1.0000 0.37959  0.34630  0.49811  Biso   1.000  O
  O2       1.0000 0.12041  0.84630  0.00189  Biso   1.000  O
  O3       1.0000 0.62041  0.65370  0.50189  Biso   1.000  O
  O4       1.0000 0.87959  0.15370  0.99811  Biso   1.000  O
  O5       1.0000 0.47254  0.38317  0.64820  Biso   1.000  O
  O6       1.0000 0.02746  0.88317  0.85180  Biso   1.000  O
  O7       1.0000 0.52746  0.61683  0.35180  Biso   1.000  O
  O8       1.0000 0.97254  0.11683  0.14820  Biso   1.000  O
  O9       1.0000 0.58046  0.37418  0.50922  Biso   1.000  O
  O10      1.0000 0.91954  0.87418  0.99078  Biso   1.000  O
  O11      1.0000 0.41954  0.62582  0.49078  Biso   1.000  O
  O12      1.0000 0.08046  0.12582  0.00922  Biso   1.000  O
  N53      1.0000 0.30277  0.96367  0.58233  Biso   1.000  N
  N54      1.0000 0.19723  0.46367  0.91767  Biso   1.000  N
  N55      1.0000 0.69723  0.03633  0.41767  Biso   1.000  N
  N56      1.0000 0.80277  0.53633  0.08233  Biso   1.000  N
  O13      1.0000 0.33510  0.87747  0.53696  Biso   1.000  O
  O14      1.0000 0.16490  0.37747  0.96304  Biso   1.000  O
  O15      1.0000 0.66490  0.12253  0.46304  Biso   1.000  O
  O16      1.0000 0.83510  0.62253  0.03696  Biso   1.000  O
  O17      1.0000 0.22398  0.95676  0.65108  Biso   1.000  O
  O18      1.0000 0.27602  0.45676  0.84892  Biso   1.000  O
  O19      1.0000 0.77602  0.04324  0.34892  Biso   1.000  O
  O20      1.0000 0.72398  0.54324  0.15108  Biso   1.000  O
  O21      1.0000 0.34949  0.05411  0.55521  Biso   1.000  O
  O22      1.0000 0.15051  0.55411  0.94479  Biso   1.000  O
  O23      1.0000 0.65051  0.94589  0.44479  Biso   1.000  O
  O24      1.0000 0.84949  0.44589  0.05521  Biso   1.000  O
  O25      1.0000 0.78652  0.21408  0.65079  Biso   1.000  O
  O26      1.0000 0.71348  0.71408  0.84921  Biso   1.000  O
  O27      1.0000 0.21348  0.78592  0.34921  Biso   1.000  O
  O28      1.0000 0.28652  0.28592  0.15079  Biso   1.000  O
  H1       1.0000 0.29000  0.22100  0.64900  Biso   1.000  H
  H2       1.0000 0.21000  0.72100  0.85100  Biso   1.000  H
  H3       1.0000 0.71000  0.77900  0.35100  Biso   1.000  H
  H4       1.0000 0.79000  0.27900  0.14900  Biso   1.000  H
  H5       1.0000 0.02700  0.23300  0.84760  Biso   1.000  H
  H6       1.0000 0.47300  0.73300  0.65240  Biso   1.000  H
  H7       1.0000 0.97300  0.76700  0.15240  Biso   1.000  H
  H8       1.0000 0.52700  0.26700  0.34760  Biso   1.000  H
  H9       1.0000 0.37100  0.26720  0.90600  Biso   1.000  H
  H10      1.0000 0.12900  0.76720  0.59400  Biso   1.000  H
  H11      1.0000 0.62900  0.73280  0.09400  Biso   1.000  H
  H12      1.0000 0.87100  0.23280  0.40600  Biso   1.000  H
  H13      1.0000 0.20550  0.98750  0.83720  Biso   1.000  H
  H14      1.0000 0.29450  0.48750  0.66280  Biso   1.000  H
  H15      1.0000 0.79450  0.01250  0.16280  Biso   1.000  H
  H16      1.0000 0.70550  0.51250  0.33720  Biso   1.000  H
  H17      1.0000 0.27500  0.23300  0.32910  Biso   1.000  H
  H18      1.0000 0.22500  0.73300  0.17090  Biso   1.000  H
  H19      1.0000 0.72500  0.76700  0.67090  Biso   1.000  H
  H20      1.0000 0.77500  0.26700  0.82910  Biso   1.000  H
  H21      1.0000 0.08900  0.97300  0.40320  Biso   1.000  H
  H22      1.0000 0.41100  0.47300  0.09680  Biso   1.000  H
  H23      1.0000 0.91100  0.02700  0.59680  Biso   1.000  H
  H24      1.0000 0.58900  0.52700  0.90320  Biso   1.000  H
  H25      1.0000 0.19800  0.02440  0.13830  Biso   1.000  H
  H26      1.0000 0.30200  0.52440  0.36170  Biso   1.000  H
  H27      1.0000 0.80200  0.97560  0.86170  Biso   1.000  H
  H28      1.0000 0.69800  0.47560  0.63830  Biso   1.000  H
  H29      1.0000 0.43300  0.97230  0.37880  Biso   1.000  H
  H30      1.0000 0.06700  0.47230  0.12120  Biso   1.000  H
  H31      1.0000 0.56700  0.02770  0.62120  Biso   1.000  H
  H32      1.0000 0.93300  0.52770  0.87880  Biso   1.000  H
  H33      1.0000 0.84300  0.25700  0.63300  Biso   1.000  H
  H34      1.0000 0.65700  0.75700  0.86700  Biso   1.000  H
  H35      1.0000 0.15700  0.74300  0.36700  Biso   1.000  H
  H36      1.0000 0.34300  0.24300  0.13300  Biso   1.000  H
  H37      1.0000 0.73400  0.21600  0.59400  Biso   1.000  H
  H38      1.0000 0.76600  0.71600  0.90600  Biso   1.000  H
  H39      1.0000 0.26600  0.78400  0.40600  Biso   1.000  H
  H40      1.0000 0.23400  0.28400  0.09400  Biso   1.000  H
