data_image0
_cell_length_a       7.6691
_cell_length_b       12.8998
_cell_length_c       10.182
_cell_angle_alpha    90
_cell_angle_beta     94.073
_cell_angle_gamma    90

_symmetry_space_group_name_H-M    "P 1"
_symmetry_int_tables_number       1

loop_
  _symmetry_equiv_pos_as_xyz
  'x, y, z'

loop_
  _atom_site_label
  _atom_site_occupancy
  _atom_site_fract_x
  _atom_site_fract_y
  _atom_site_fract_z
  _atom_site_thermal_displace_type
  _atom_site_B_iso_or_equiv
  _atom_site_type_symbol
  Cu1      1.0000 0.50000  0.50000  0.00000  Biso   1.000  Cu
  Cu2      1.0000 0.00000  0.00000  0.50000  Biso   1.000  Cu
  O1       1.0000 0.67830  0.46471  0.19789  Biso   1.000  O
  O2       1.0000 0.82170  0.96471  0.30211  Biso   1.000  O
  O3       1.0000 0.32170  0.53529  0.80211  Biso   1.000  O
  O4       1.0000 0.17830  0.03529  0.69789  Biso   1.000  O
  H1       1.0000 0.71190  0.50010  0.26860  Biso   1.000  H
  H2       1.0000 0.78810  0.00010  0.23140  Biso   1.000  H
  H3       1.0000 0.28810  0.49990  0.73140  Biso   1.000  H
  H4       1.0000 0.21190  0.99990  0.76860  Biso   1.000  H
  H5       1.0000 0.76950  0.42620  0.18450  Biso   1.000  H
  H6       1.0000 0.73050  0.92620  0.31550  Biso   1.000  H
  H7       1.0000 0.23050  0.57380  0.81550  Biso   1.000  H
  H8       1.0000 0.26950  0.07380  0.68450  Biso   1.000  H
  O5       1.0000 0.75350  0.62099  0.38770  Biso   1.000  O
  O6       1.0000 0.74650  0.12099  0.11230  Biso   1.000  O
  O7       1.0000 0.24650  0.37901  0.61230  Biso   1.000  O
  O8       1.0000 0.25350  0.87901  0.88770  Biso   1.000  O
  O9       1.0000 0.63490  0.68899  0.55064  Biso   1.000  O
  O10      1.0000 0.86510  0.18899  0.94936  Biso   1.000  O
  O11      1.0000 0.36510  0.31101  0.44936  Biso   1.000  O
  O12      1.0000 0.13490  0.81101  0.05064  Biso   1.000  O
  O13      1.0000 0.71200  0.53114  0.56160  Biso   1.000  O
  O14      1.0000 0.78800  0.03114  0.93840  Biso   1.000  O
  O15      1.0000 0.28800  0.46886  0.43840  Biso   1.000  O
  O16      1.0000 0.21200  0.96886  0.06160  Biso   1.000  O
  O17      1.0000 0.95670  0.33845  0.14752  Biso   1.000  O
  O18      1.0000 0.54330  0.83845  0.35248  Biso   1.000  O
  O19      1.0000 0.04330  0.66155  0.85248  Biso   1.000  O
  O20      1.0000 0.45670  0.16155  0.64752  Biso   1.000  O
  H9       1.0000 0.00990  0.39310  0.09960  Biso   1.000  H
  H10      1.0000 0.49010  0.89310  0.40040  Biso   1.000  H
  H11      1.0000 0.99010  0.60690  0.90040  Biso   1.000  H
  H12      1.0000 0.50990  0.10690  0.59960  Biso   1.000  H
  H13      1.0000 0.91730  0.28970  0.08690  Biso   1.000  H
  H14      1.0000 0.58270  0.78970  0.41310  Biso   1.000  H
  H15      1.0000 0.08270  0.71030  0.91310  Biso   1.000  H
  H16      1.0000 0.41730  0.21030  0.58690  Biso   1.000  H
  N1       1.0000 0.33090  0.56478  0.12180  Biso   1.000  N
  N2       1.0000 0.16910  0.06478  0.37820  Biso   1.000  N
  N3       1.0000 0.66910  0.43522  0.87820  Biso   1.000  N
  N4       1.0000 0.83090  0.93522  0.62180  Biso   1.000  N
  N5       1.0000 0.15750  0.53278  0.11971  Biso   1.000  N
  N6       1.0000 0.34250  0.03278  0.38029  Biso   1.000  N
  N7       1.0000 0.84250  0.46722  0.88029  Biso   1.000  N
  N8       1.0000 0.65750  0.96722  0.61971  Biso   1.000  N
  N9       1.0000 0.20720  0.65119  0.26979  Biso   1.000  N
  N10      1.0000 0.29280  0.15119  0.23021  Biso   1.000  N
  N11      1.0000 0.79280  0.34881  0.73021  Biso   1.000  N
  N12      1.0000 0.70720  0.84881  0.76979  Biso   1.000  N
  N13      1.0000 0.10410  0.85973  0.46736  Biso   1.000  N
  N14      1.0000 0.39590  0.35973  0.03264  Biso   1.000  N
  N15      1.0000 0.89590  0.14027  0.53264  Biso   1.000  N
  N16      1.0000 0.60410  0.64027  0.96736  Biso   1.000  N
  N17      1.0000 0.16630  0.79026  0.56390  Biso   1.000  N
  N18      1.0000 0.33370  0.29026  0.93610  Biso   1.000  N
  N19      1.0000 0.83370  0.20974  0.43610  Biso   1.000  N
  N20      1.0000 0.66630  0.70974  0.06390  Biso   1.000  N
  N21      1.0000 0.17920  0.72074  0.36973  Biso   1.000  N
  N22      1.0000 0.32080  0.22074  0.13027  Biso   1.000  N
  N23      1.0000 0.82080  0.27926  0.63027  Biso   1.000  N
  N24      1.0000 0.67920  0.77926  0.86973  Biso   1.000  N
  N25      1.0000 0.70250  0.61213  0.50050  Biso   1.000  N
  N26      1.0000 0.79750  0.11213  0.99950  Biso   1.000  N
  N27      1.0000 0.29750  0.38787  0.49950  Biso   1.000  N
  N28      1.0000 0.20250  0.88787  0.00050  Biso   1.000  N
  C1       1.0000 0.35820  0.63543  0.21148  Biso   1.000  C
  C2       1.0000 0.14180  0.13543  0.28852  Biso   1.000  C
  C3       1.0000 0.64180  0.36457  0.78852  Biso   1.000  C
  C4       1.0000 0.85820  0.86457  0.71148  Biso   1.000  C
  H17      1.0000 0.46460  0.66980  0.23240  Biso   1.000  H
  H18      1.0000 0.03540  0.16980  0.26760  Biso   1.000  H
  H19      1.0000 0.53540  0.33020  0.76760  Biso   1.000  H
  H20      1.0000 0.96460  0.83020  0.73240  Biso   1.000  H
  C5       1.0000 0.08710  0.58661  0.20970  Biso   1.000  C
  C6       1.0000 0.41290  0.08661  0.29030  Biso   1.000  C
  C7       1.0000 0.91290  0.41339  0.79030  Biso   1.000  C
  C8       1.0000 0.58710  0.91339  0.70970  Biso   1.000  C
  H21      1.0000 0.96990  0.58150  0.23030  Biso   1.000  H
  H22      1.0000 0.53010  0.08150  0.26970  Biso   1.000  H
  H23      1.0000 0.03010  0.41850  0.76970  Biso   1.000  H
  H24      1.0000 0.46990  0.91850  0.73030  Biso   1.000  H
  C9       1.0000 0.11360  0.81743  0.35170  Biso   1.000  C
  C10      1.0000 0.38640  0.31743  0.14830  Biso   1.000  C
  C11      1.0000 0.88640  0.18257  0.64830  Biso   1.000  C
  C12      1.0000 0.61360  0.68257  0.85170  Biso   1.000  C
  H25      1.0000 0.08070  0.84860  0.27030  Biso   1.000  H
  H26      1.0000 0.41930  0.34860  0.22970  Biso   1.000  H
  H27      1.0000 0.91930  0.15140  0.72970  Biso   1.000  H
  H28      1.0000 0.58070  0.65140  0.77030  Biso   1.000  H
  C13      1.0000 0.20970  0.70674  0.50230  Biso   1.000  C
  C14      1.0000 0.29030  0.20674  0.99770  Biso   1.000  C
  C15      1.0000 0.79030  0.29326  0.49770  Biso   1.000  C
  C16      1.0000 0.70970  0.79326  0.00230  Biso   1.000  C
  H29      1.0000 0.25510  0.64610  0.54290  Biso   1.000  H
  H30      1.0000 0.24490  0.14610  0.95710  Biso   1.000  H
  H31      1.0000 0.74490  0.35390  0.45710  Biso   1.000  H
  H32      1.0000 0.75510  0.85390  0.04290  Biso   1.000  H
