data_image0
_cell_length_a       17.4259
_cell_length_b       26.8326
_cell_length_c       21.5209
_cell_angle_alpha    90
_cell_angle_beta     90
_cell_angle_gamma    90

_symmetry_space_group_name_H-M    "P 1"
_symmetry_int_tables_number       1

loop_
  _symmetry_equiv_pos_as_xyz
  'x, y, z'

loop_
  _atom_site_label
  _atom_site_occupancy
  _atom_site_fract_x
  _atom_site_fract_y
  _atom_site_fract_z
  _atom_site_thermal_displace_type
  _atom_site_B_iso_or_equiv
  _atom_site_type_symbol
  Cu1      1.0000 0.27208  0.21827  0.15523  Biso   1.000  Cu
  Cu2      1.0000 0.22792  0.28173  0.65522  Biso   1.000  Cu
  Cu3      1.0000 0.72792  0.21827  0.34477  Biso   1.000  Cu
  Cu4      1.0000 0.77208  0.28173  0.84478  Biso   1.000  Cu
  Cu5      1.0000 0.72792  0.78173  0.84478  Biso   1.000  Cu
  Cu6      1.0000 0.77208  0.71827  0.34477  Biso   1.000  Cu
  Cu7      1.0000 0.27208  0.78173  0.65522  Biso   1.000  Cu
  Cu8      1.0000 0.22792  0.71827  0.15523  Biso   1.000  Cu
  Cu9      1.0000 0.24998  0.12510  0.25249  Biso   1.000  Cu
  Cu10     1.0000 0.25002  0.37490  0.75249  Biso   1.000  Cu
  Cu11     1.0000 0.75002  0.12510  0.24751  Biso   1.000  Cu
  Cu12     1.0000 0.74998  0.37490  0.74751  Biso   1.000  Cu
  Cu13     1.0000 0.75002  0.87490  0.74751  Biso   1.000  Cu
  Cu14     1.0000 0.74998  0.62510  0.24751  Biso   1.000  Cu
  Cu15     1.0000 0.24998  0.87490  0.75249  Biso   1.000  Cu
  Cu16     1.0000 0.25002  0.62510  0.25249  Biso   1.000  Cu
  Cu17     1.0000 0.22656  0.96688  0.85141  Biso   1.000  Cu
  Cu18     1.0000 0.27344  0.53312  0.35141  Biso   1.000  Cu
  Cu19     1.0000 0.77344  0.96688  0.64859  Biso   1.000  Cu
  Cu20     1.0000 0.72656  0.53312  0.14859  Biso   1.000  Cu
  Cu21     1.0000 0.77344  0.03312  0.14859  Biso   1.000  Cu
  Cu22     1.0000 0.72656  0.46688  0.64859  Biso   1.000  Cu
  Cu23     1.0000 0.22656  0.03312  0.35141  Biso   1.000  Cu
  Cu24     1.0000 0.27344  0.46688  0.85141  Biso   1.000  Cu
  O1       1.0000 0.31402  0.17621  0.21769  Biso   1.000  O
  O2       1.0000 0.18598  0.32379  0.71769  Biso   1.000  O
  O3       1.0000 0.68598  0.17621  0.28231  Biso   1.000  O
  O4       1.0000 0.81402  0.32379  0.78231  Biso   1.000  O
  O5       1.0000 0.68598  0.82379  0.78231  Biso   1.000  O
  O6       1.0000 0.81402  0.67621  0.28231  Biso   1.000  O
  O7       1.0000 0.31402  0.82379  0.71769  Biso   1.000  O
  O8       1.0000 0.18598  0.67621  0.21769  Biso   1.000  O
  H1       1.0000 0.32950  0.19460  0.24700  Biso   1.000  H
  H2       1.0000 0.17050  0.30540  0.74700  Biso   1.000  H
  H3       1.0000 0.67050  0.19460  0.25300  Biso   1.000  H
  H4       1.0000 0.82950  0.30540  0.75300  Biso   1.000  H
  H5       1.0000 0.67050  0.80540  0.75300  Biso   1.000  H
  H6       1.0000 0.82950  0.69460  0.25300  Biso   1.000  H
  H7       1.0000 0.32950  0.80540  0.74700  Biso   1.000  H
  H8       1.0000 0.17050  0.69460  0.24700  Biso   1.000  H
  O9       1.0000 0.18610  0.07383  0.28725  Biso   1.000  O
  O10      1.0000 0.31390  0.42617  0.78725  Biso   1.000  O
  O11      1.0000 0.81390  0.07383  0.21275  Biso   1.000  O
  O12      1.0000 0.68610  0.42617  0.71275  Biso   1.000  O
  O13      1.0000 0.81390  0.92617  0.71275  Biso   1.000  O
  O14      1.0000 0.68610  0.57383  0.21275  Biso   1.000  O
  O15      1.0000 0.18610  0.92617  0.78725  Biso   1.000  O
  O16      1.0000 0.31390  0.57383  0.28725  Biso   1.000  O
  H9       1.0000 0.17260  0.05480  0.25740  Biso   1.000  H
  H10      1.0000 0.32740  0.44520  0.75740  Biso   1.000  H
  H11      1.0000 0.82740  0.05480  0.24260  Biso   1.000  H
  H12      1.0000 0.67260  0.44520  0.74260  Biso   1.000  H
  H13      1.0000 0.82740  0.94520  0.74260  Biso   1.000  H
  H14      1.0000 0.67260  0.55480  0.24260  Biso   1.000  H
  H15      1.0000 0.17260  0.94520  0.75740  Biso   1.000  H
  H16      1.0000 0.32740  0.55480  0.25740  Biso   1.000  H
  N1       1.0000 0.25277  0.15349  0.10682  Biso   1.000  N
  N2       1.0000 0.24723  0.34651  0.60682  Biso   1.000  N
  N3       1.0000 0.74723  0.15349  0.39318  Biso   1.000  N
  N4       1.0000 0.75277  0.34651  0.89318  Biso   1.000  N
  N5       1.0000 0.74723  0.84651  0.89318  Biso   1.000  N
  N6       1.0000 0.75277  0.65349  0.39318  Biso   1.000  N
  N7       1.0000 0.25277  0.84651  0.60682  Biso   1.000  N
  N8       1.0000 0.24723  0.65349  0.10682  Biso   1.000  N
  N9       1.0000 0.23793  0.11062  0.14061  Biso   1.000  N
  N10      1.0000 0.26207  0.38938  0.64061  Biso   1.000  N
  N11      1.0000 0.76207  0.11062  0.35939  Biso   1.000  N
  N12      1.0000 0.73793  0.38938  0.85939  Biso   1.000  N
  N13      1.0000 0.76207  0.88938  0.85939  Biso   1.000  N
  N14      1.0000 0.73793  0.61062  0.35939  Biso   1.000  N
  N15      1.0000 0.23793  0.88938  0.64061  Biso   1.000  N
  N16      1.0000 0.26207  0.61062  0.14061  Biso   1.000  N
  N17      1.0000 0.26570  0.09046  0.04629  Biso   1.000  N
  N18      1.0000 0.23430  0.40954  0.54629  Biso   1.000  N
  N19      1.0000 0.73430  0.09046  0.45371  Biso   1.000  N
  N20      1.0000 0.76570  0.40954  0.95371  Biso   1.000  N
  N21      1.0000 0.73430  0.90954  0.95371  Biso   1.000  N
  N22      1.0000 0.76570  0.59046  0.45371  Biso   1.000  N
  N23      1.0000 0.26570  0.90954  0.54629  Biso   1.000  N
  N24      1.0000 0.23430  0.59046  0.04629  Biso   1.000  N
  N25      1.0000 0.34480  0.01997  0.92478  Biso   1.000  N
  N26      1.0000 0.15520  0.48003  0.42478  Biso   1.000  N
  N27      1.0000 0.65520  0.01997  0.57522  Biso   1.000  N
  N28      1.0000 0.84480  0.48003  0.07522  Biso   1.000  N
  N29      1.0000 0.65520  0.98003  0.07522  Biso   1.000  N
  N30      1.0000 0.84480  0.51997  0.57522  Biso   1.000  N
  N31      1.0000 0.34480  0.98003  0.42478  Biso   1.000  N
  N32      1.0000 0.15520  0.51997  0.92478  Biso   1.000  N
  N33      1.0000 0.26619  0.01041  0.91970  Biso   1.000  N
  N34      1.0000 0.23381  0.48959  0.41970  Biso   1.000  N
  N35      1.0000 0.73381  0.01041  0.58030  Biso   1.000  N
  N36      1.0000 0.76619  0.48959  0.08030  Biso   1.000  N
  N37      1.0000 0.73381  0.98959  0.08030  Biso   1.000  N
  N38      1.0000 0.76619  0.51041  0.58030  Biso   1.000  N
  N39      1.0000 0.26619  0.98959  0.41970  Biso   1.000  N
  N40      1.0000 0.23381  0.51041  0.91970  Biso   1.000  N
  N41      1.0000 0.28236  0.06158  0.99425  Biso   1.000  N
  N42      1.0000 0.21764  0.43842  0.49425  Biso   1.000  N
  N43      1.0000 0.71764  0.06158  0.50575  Biso   1.000  N
  N44      1.0000 0.78236  0.43842  0.00575  Biso   1.000  N
  N45      1.0000 0.71764  0.93842  0.00575  Biso   1.000  N
  N46      1.0000 0.78236  0.56158  0.50575  Biso   1.000  N
  N47      1.0000 0.28236  0.93842  0.49425  Biso   1.000  N
  N48      1.0000 0.21764  0.56158  0.99425  Biso   1.000  N
  N49      1.0000 0.14919  0.20780  0.20296  Biso   1.000  N
  N50      1.0000 0.35081  0.29220  0.70296  Biso   1.000  N
  N51      1.0000 0.85081  0.20780  0.29704  Biso   1.000  N
  N52      1.0000 0.64919  0.29220  0.79704  Biso   1.000  N
  N53      1.0000 0.85081  0.79220  0.79704  Biso   1.000  N
  N54      1.0000 0.64919  0.70780  0.29704  Biso   1.000  N
  N55      1.0000 0.14919  0.79220  0.70296  Biso   1.000  N
  N56      1.0000 0.35081  0.70780  0.20296  Biso   1.000  N
  N57      1.0000 0.15616  0.16897  0.24555  Biso   1.000  N
  N58      1.0000 0.34384  0.33103  0.74555  Biso   1.000  N
  N59      1.0000 0.84384  0.16897  0.25445  Biso   1.000  N
  N60      1.0000 0.65616  0.33103  0.75445  Biso   1.000  N
  N61      1.0000 0.84384  0.83103  0.75445  Biso   1.000  N
  N62      1.0000 0.65616  0.66897  0.25445  Biso   1.000  N
  N63      1.0000 0.15616  0.83103  0.74555  Biso   1.000  N
  N64      1.0000 0.34384  0.66897  0.24555  Biso   1.000  N
  N65      1.0000 0.03855  0.19441  0.24444  Biso   1.000  N
  N66      1.0000 0.46145  0.30559  0.74444  Biso   1.000  N
  N67      1.0000 0.96145  0.19441  0.25556  Biso   1.000  N
  N68      1.0000 0.53855  0.30559  0.75556  Biso   1.000  N
  N69      1.0000 0.96145  0.80559  0.75556  Biso   1.000  N
  N70      1.0000 0.53855  0.69441  0.25556  Biso   1.000  N
  N71      1.0000 0.03855  0.80559  0.74444  Biso   1.000  N
  N72      1.0000 0.46145  0.69441  0.24444  Biso   1.000  N
  N73      1.0000 0.34512  0.07992  0.25747  Biso   1.000  N
  N74      1.0000 0.15488  0.42008  0.75747  Biso   1.000  N
  N75      1.0000 0.65488  0.07992  0.24253  Biso   1.000  N
  N76      1.0000 0.84512  0.42008  0.74253  Biso   1.000  N
  N77      1.0000 0.65488  0.92008  0.74253  Biso   1.000  N
  N78      1.0000 0.84512  0.57992  0.24253  Biso   1.000  N
  N79      1.0000 0.34512  0.92008  0.75747  Biso   1.000  N
  N80      1.0000 0.15488  0.57992  0.25747  Biso   1.000  N
  N81      1.0000 0.35179  0.04227  0.30162  Biso   1.000  N
  N82      1.0000 0.14821  0.45773  0.80162  Biso   1.000  N
  N83      1.0000 0.64821  0.04227  0.19838  Biso   1.000  N
  N84      1.0000 0.85179  0.45773  0.69838  Biso   1.000  N
  N85      1.0000 0.64821  0.95773  0.69838  Biso   1.000  N
  N86      1.0000 0.85179  0.54227  0.19838  Biso   1.000  N
  N87      1.0000 0.35179  0.95773  0.80162  Biso   1.000  N
  N88      1.0000 0.14821  0.54227  0.30162  Biso   1.000  N
  N89      1.0000 0.46155  0.05452  0.25637  Biso   1.000  N
  N90      1.0000 0.03845  0.44548  0.75637  Biso   1.000  N
  N91      1.0000 0.53845  0.05452  0.24363  Biso   1.000  N
  N92      1.0000 0.96155  0.44548  0.74363  Biso   1.000  N
  N93      1.0000 0.53845  0.94548  0.74363  Biso   1.000  N
  N94      1.0000 0.96155  0.55452  0.24363  Biso   1.000  N
  N95      1.0000 0.46155  0.94548  0.75637  Biso   1.000  N
  N96      1.0000 0.03845  0.55452  0.25637  Biso   1.000  N
  N97      1.0000 0.23700  0.35927  0.86171  Biso   1.000  N
  N98      1.0000 0.26300  0.14073  0.36171  Biso   1.000  N
  N99      1.0000 0.76300  0.35927  0.63829  Biso   1.000  N
  N100     1.0000 0.73700  0.14073  0.13829  Biso   1.000  N
  N101     1.0000 0.76300  0.64073  0.13829  Biso   1.000  N
  N102     1.0000 0.73700  0.85927  0.63829  Biso   1.000  N
  N103     1.0000 0.23700  0.64073  0.36171  Biso   1.000  N
  N104     1.0000 0.26300  0.85927  0.86171  Biso   1.000  N
  N105     1.0000 0.24715  0.40164  0.89766  Biso   1.000  N
  N106     1.0000 0.25285  0.09836  0.39766  Biso   1.000  N
  N107     1.0000 0.75285  0.40164  0.60234  Biso   1.000  N
  N108     1.0000 0.74715  0.09836  0.10234  Biso   1.000  N
  N109     1.0000 0.75285  0.59836  0.10234  Biso   1.000  N
  N110     1.0000 0.74715  0.90164  0.60234  Biso   1.000  N
  N111     1.0000 0.24715  0.59836  0.39766  Biso   1.000  N
  N112     1.0000 0.25285  0.90164  0.89766  Biso   1.000  N
  N113     1.0000 0.22637  0.34017  0.95896  Biso   1.000  N
  N114     1.0000 0.27363  0.15983  0.45896  Biso   1.000  N
  N115     1.0000 0.77363  0.34017  0.54104  Biso   1.000  N
  N116     1.0000 0.72637  0.15983  0.04104  Biso   1.000  N
  N117     1.0000 0.77363  0.65983  0.04104  Biso   1.000  N
  N118     1.0000 0.72637  0.84017  0.54104  Biso   1.000  N
  N119     1.0000 0.22637  0.65983  0.45896  Biso   1.000  N
  N120     1.0000 0.27363  0.84017  0.95896  Biso   1.000  N
  N121     1.0000 0.23048  0.26286  0.08866  Biso   1.000  N
  N122     1.0000 0.26952  0.23714  0.58866  Biso   1.000  N
  N123     1.0000 0.76952  0.26286  0.41134  Biso   1.000  N
  N124     1.0000 0.73048  0.23714  0.91134  Biso   1.000  N
  N125     1.0000 0.76952  0.73714  0.91134  Biso   1.000  N
  N126     1.0000 0.73048  0.76286  0.41134  Biso   1.000  N
  N127     1.0000 0.23048  0.73714  0.58866  Biso   1.000  N
  N128     1.0000 0.26952  0.76286  0.08866  Biso   1.000  N
  N129     1.0000 0.15564  0.27873  0.09107  Biso   1.000  N
  N130     1.0000 0.34436  0.22127  0.59107  Biso   1.000  N
  N131     1.0000 0.84436  0.27873  0.40893  Biso   1.000  N
  N132     1.0000 0.65564  0.22127  0.90893  Biso   1.000  N
  N133     1.0000 0.84436  0.72127  0.90893  Biso   1.000  N
  N134     1.0000 0.65564  0.77873  0.40893  Biso   1.000  N
  N135     1.0000 0.15564  0.72127  0.59107  Biso   1.000  N
  N136     1.0000 0.34436  0.77873  0.09107  Biso   1.000  N
  N137     1.0000 0.21346  0.31248  0.01211  Biso   1.000  N
  N138     1.0000 0.28654  0.18752  0.51211  Biso   1.000  N
  N139     1.0000 0.78654  0.31248  0.48789  Biso   1.000  N
  N140     1.0000 0.71346  0.18752  0.98789  Biso   1.000  N
  N141     1.0000 0.78654  0.68752  0.98789  Biso   1.000  N
  N142     1.0000 0.71346  0.81248  0.48789  Biso   1.000  N
  N143     1.0000 0.21346  0.68752  0.51211  Biso   1.000  N
  N144     1.0000 0.28654  0.81248  0.01211  Biso   1.000  N
  N145     1.0000 0.29830  0.27806  0.20912  Biso   1.000  N
  N146     1.0000 0.20170  0.22194  0.70912  Biso   1.000  N
  N147     1.0000 0.70170  0.27806  0.29088  Biso   1.000  N
  N148     1.0000 0.79830  0.22194  0.79088  Biso   1.000  N
  N149     1.0000 0.70170  0.72194  0.79088  Biso   1.000  N
  N150     1.0000 0.79830  0.77806  0.29088  Biso   1.000  N
  N151     1.0000 0.29830  0.72194  0.70912  Biso   1.000  N
  N152     1.0000 0.20170  0.77806  0.20912  Biso   1.000  N
  N153     1.0000 0.33750  0.27076  0.26317  Biso   1.000  N
  N154     1.0000 0.16250  0.22924  0.76317  Biso   1.000  N
  N155     1.0000 0.66250  0.27076  0.23683  Biso   1.000  N
  N156     1.0000 0.83750  0.22924  0.73683  Biso   1.000  N
  N157     1.0000 0.66250  0.72924  0.73683  Biso   1.000  N
  N158     1.0000 0.83750  0.77076  0.23683  Biso   1.000  N
  N159     1.0000 0.33750  0.72924  0.76317  Biso   1.000  N
  N160     1.0000 0.16250  0.77076  0.26317  Biso   1.000  N
  N161     1.0000 0.31990  0.34940  0.25059  Biso   1.000  N
  N162     1.0000 0.18010  0.15060  0.75059  Biso   1.000  N
  N163     1.0000 0.68010  0.34940  0.24941  Biso   1.000  N
  N164     1.0000 0.81990  0.15060  0.74941  Biso   1.000  N
  N165     1.0000 0.68010  0.65060  0.74941  Biso   1.000  N
  N166     1.0000 0.81990  0.84940  0.24941  Biso   1.000  N
  N167     1.0000 0.31990  0.65060  0.75059  Biso   1.000  N
  N168     1.0000 0.18010  0.84940  0.25059  Biso   1.000  N
  N169     1.0000 0.30173  0.47218  0.30057  Biso   1.000  N
  N170     1.0000 0.19827  0.02782  0.80057  Biso   1.000  N
  N171     1.0000 0.69827  0.47218  0.19943  Biso   1.000  N
  N172     1.0000 0.80173  0.02782  0.69943  Biso   1.000  N
  N173     1.0000 0.69827  0.52782  0.69943  Biso   1.000  N
  N174     1.0000 0.80173  0.97218  0.19943  Biso   1.000  N
  N175     1.0000 0.30173  0.52782  0.80057  Biso   1.000  N
  N176     1.0000 0.19827  0.97218  0.30057  Biso   1.000  N
  N177     1.0000 0.34940  0.47791  0.24928  Biso   1.000  N
  N178     1.0000 0.15060  0.02209  0.74928  Biso   1.000  N
  N179     1.0000 0.65060  0.47791  0.25072  Biso   1.000  N
  N180     1.0000 0.84940  0.02209  0.75072  Biso   1.000  N
  N181     1.0000 0.65060  0.52209  0.75072  Biso   1.000  N
  N182     1.0000 0.84940  0.97791  0.25072  Biso   1.000  N
  N183     1.0000 0.34940  0.52209  0.74928  Biso   1.000  N
  N184     1.0000 0.15060  0.97791  0.24928  Biso   1.000  N
  N185     1.0000 0.31990  0.40002  0.26038  Biso   1.000  N
  N186     1.0000 0.18010  0.09998  0.76038  Biso   1.000  N
  N187     1.0000 0.68010  0.40002  0.23962  Biso   1.000  N
  N188     1.0000 0.81990  0.09998  0.73962  Biso   1.000  N
  N189     1.0000 0.68010  0.59998  0.73962  Biso   1.000  N
  N190     1.0000 0.81990  0.90002  0.23962  Biso   1.000  N
  N191     1.0000 0.31990  0.59998  0.76038  Biso   1.000  N
  N192     1.0000 0.18010  0.90002  0.26038  Biso   1.000  N
  C1       1.0000 0.26910  0.14044  0.05011  Biso   1.000  C
  C2       1.0000 0.23090  0.35956  0.55011  Biso   1.000  C
  C3       1.0000 0.73090  0.14044  0.44989  Biso   1.000  C
  C4       1.0000 0.76910  0.35956  0.94989  Biso   1.000  C
  C5       1.0000 0.73090  0.85956  0.94989  Biso   1.000  C
  C6       1.0000 0.76910  0.64044  0.44989  Biso   1.000  C
  C7       1.0000 0.26910  0.85956  0.55011  Biso   1.000  C
  C8       1.0000 0.23090  0.64044  0.05011  Biso   1.000  C
  H17      1.0000 0.28130  0.16250  0.01700  Biso   1.000  H
  H18      1.0000 0.21870  0.33750  0.51700  Biso   1.000  H
  H19      1.0000 0.71870  0.16250  0.48300  Biso   1.000  H
  H20      1.0000 0.78130  0.33750  0.98300  Biso   1.000  H
  H21      1.0000 0.71870  0.83750  0.98300  Biso   1.000  H
  H22      1.0000 0.78130  0.66250  0.48300  Biso   1.000  H
  H23      1.0000 0.28130  0.83750  0.51700  Biso   1.000  H
  H24      1.0000 0.21870  0.66250  0.01700  Biso   1.000  H
  C9       1.0000 0.24560  0.07402  0.10343  Biso   1.000  C
  C10      1.0000 0.25440  0.42598  0.60343  Biso   1.000  C
  C11      1.0000 0.75440  0.07402  0.39657  Biso   1.000  C
  C12      1.0000 0.74560  0.42598  0.89657  Biso   1.000  C
  C13      1.0000 0.75440  0.92598  0.89657  Biso   1.000  C
  C14      1.0000 0.74560  0.57402  0.39657  Biso   1.000  C
  C15      1.0000 0.24560  0.92598  0.60343  Biso   1.000  C
  C16      1.0000 0.25440  0.57402  0.10343  Biso   1.000  C
  H25      1.0000 0.23830  0.04000  0.11430  Biso   1.000  H
  H26      1.0000 0.26170  0.46000  0.61430  Biso   1.000  H
  H27      1.0000 0.76170  0.04000  0.38570  Biso   1.000  H
  H28      1.0000 0.73830  0.46000  0.88570  Biso   1.000  H
  H29      1.0000 0.76170  0.96000  0.88570  Biso   1.000  H
  H30      1.0000 0.73830  0.54000  0.38570  Biso   1.000  H
  H31      1.0000 0.23830  0.96000  0.61430  Biso   1.000  H
  H32      1.0000 0.26170  0.54000  0.11430  Biso   1.000  H
  C17      1.0000 0.34980  0.05103  0.97160  Biso   1.000  C
  C18      1.0000 0.15020  0.44897  0.47160  Biso   1.000  C
  C19      1.0000 0.65020  0.05103  0.52840  Biso   1.000  C
  C20      1.0000 0.84980  0.44897  0.02840  Biso   1.000  C
  C21      1.0000 0.65020  0.94897  0.02840  Biso   1.000  C
  C22      1.0000 0.84980  0.55103  0.52840  Biso   1.000  C
  C23      1.0000 0.34980  0.94897  0.47160  Biso   1.000  C
  C24      1.0000 0.15020  0.55103  0.97160  Biso   1.000  C
  H33      1.0000 0.39660  0.06420  0.98710  Biso   1.000  H
  H34      1.0000 0.10340  0.43580  0.48710  Biso   1.000  H
  H35      1.0000 0.60340  0.06420  0.51290  Biso   1.000  H
  H36      1.0000 0.89660  0.43580  0.01290  Biso   1.000  H
  H37      1.0000 0.60340  0.93580  0.01290  Biso   1.000  H
  H38      1.0000 0.89660  0.56420  0.51290  Biso   1.000  H
  H39      1.0000 0.39660  0.93580  0.48710  Biso   1.000  H
  H40      1.0000 0.10340  0.56420  0.98710  Biso   1.000  H
  C25      1.0000 0.22970  0.03523  0.96145  Biso   1.000  C
  C26      1.0000 0.27030  0.46477  0.46145  Biso   1.000  C
  C27      1.0000 0.77030  0.03523  0.53855  Biso   1.000  C
  C28      1.0000 0.72970  0.46477  0.03855  Biso   1.000  C
  C29      1.0000 0.77030  0.96477  0.03855  Biso   1.000  C
  C30      1.0000 0.72970  0.53523  0.53855  Biso   1.000  C
  C31      1.0000 0.22970  0.96477  0.46145  Biso   1.000  C
  C32      1.0000 0.27030  0.53523  0.96145  Biso   1.000  C
  H41      1.0000 0.17590  0.03510  0.96810  Biso   1.000  H
  H42      1.0000 0.32410  0.46490  0.46810  Biso   1.000  H
  H43      1.0000 0.82410  0.03510  0.53190  Biso   1.000  H
  H44      1.0000 0.67590  0.46490  0.03190  Biso   1.000  H
  H45      1.0000 0.82410  0.96490  0.03190  Biso   1.000  H
  H46      1.0000 0.67590  0.53510  0.53190  Biso   1.000  H
  H47      1.0000 0.17590  0.96490  0.46810  Biso   1.000  H
  H48      1.0000 0.32410  0.53510  0.96810  Biso   1.000  H
  C33      1.0000 0.07922  0.22171  0.20250  Biso   1.000  C
  C34      1.0000 0.42078  0.27829  0.70250  Biso   1.000  C
  C35      1.0000 0.92078  0.22171  0.29750  Biso   1.000  C
  C36      1.0000 0.57922  0.27829  0.79750  Biso   1.000  C
  C37      1.0000 0.92078  0.77829  0.79750  Biso   1.000  C
  C38      1.0000 0.57922  0.72171  0.29750  Biso   1.000  C
  C39      1.0000 0.07922  0.77829  0.70250  Biso   1.000  C
  C40      1.0000 0.42078  0.72171  0.20250  Biso   1.000  C
  H49      1.0000 0.05860  0.24720  0.17680  Biso   1.000  H
  H50      1.0000 0.44140  0.25280  0.67680  Biso   1.000  H
  H51      1.0000 0.94140  0.24720  0.32320  Biso   1.000  H
  H52      1.0000 0.55860  0.25280  0.82320  Biso   1.000  H
  H53      1.0000 0.94140  0.75280  0.82320  Biso   1.000  H
  H54      1.0000 0.55860  0.74720  0.32320  Biso   1.000  H
  H55      1.0000 0.05860  0.75280  0.67680  Biso   1.000  H
  H56      1.0000 0.44140  0.74720  0.17680  Biso   1.000  H
  C41      1.0000 0.08900  0.16183  0.26926  Biso   1.000  C
  C42      1.0000 0.41100  0.33817  0.76926  Biso   1.000  C
  C43      1.0000 0.91100  0.16183  0.23074  Biso   1.000  C
  C44      1.0000 0.58900  0.33817  0.73074  Biso   1.000  C
  C45      1.0000 0.91100  0.83817  0.73074  Biso   1.000  C
  C46      1.0000 0.58900  0.66183  0.23074  Biso   1.000  C
  C47      1.0000 0.08900  0.83817  0.76926  Biso   1.000  C
  C48      1.0000 0.41100  0.66183  0.26926  Biso   1.000  C
  H57      1.0000 0.07680  0.13730  0.29960  Biso   1.000  H
  H58      1.0000 0.42320  0.36270  0.79960  Biso   1.000  H
  H59      1.0000 0.92320  0.13730  0.20040  Biso   1.000  H
  H60      1.0000 0.57680  0.36270  0.70040  Biso   1.000  H
  H61      1.0000 0.92320  0.86270  0.70040  Biso   1.000  H
  H62      1.0000 0.57680  0.63730  0.20040  Biso   1.000  H
  H63      1.0000 0.07680  0.86270  0.79960  Biso   1.000  H
  H64      1.0000 0.42320  0.63730  0.29960  Biso   1.000  H
  C49      1.0000 0.40895  0.08683  0.23188  Biso   1.000  C
  C50      1.0000 0.09105  0.41317  0.73188  Biso   1.000  C
  C51      1.0000 0.59105  0.08683  0.26812  Biso   1.000  C
  C52      1.0000 0.90895  0.41317  0.76812  Biso   1.000  C
  C53      1.0000 0.59105  0.91317  0.76812  Biso   1.000  C
  C54      1.0000 0.90895  0.58683  0.26812  Biso   1.000  C
  C55      1.0000 0.40895  0.91317  0.73188  Biso   1.000  C
  C56      1.0000 0.09105  0.58683  0.23188  Biso   1.000  C
  H65      1.0000 0.41910  0.11080  0.20040  Biso   1.000  H
  H66      1.0000 0.08090  0.38920  0.70040  Biso   1.000  H
  H67      1.0000 0.58090  0.11080  0.29960  Biso   1.000  H
  H68      1.0000 0.91910  0.38920  0.79960  Biso   1.000  H
  H69      1.0000 0.58090  0.88920  0.79960  Biso   1.000  H
  H70      1.0000 0.91910  0.61080  0.29960  Biso   1.000  H
  H71      1.0000 0.41910  0.88920  0.70040  Biso   1.000  H
  H72      1.0000 0.08090  0.61080  0.20040  Biso   1.000  H
  C57      1.0000 0.42280  0.02870  0.30011  Biso   1.000  C
  C58      1.0000 0.07720  0.47130  0.80011  Biso   1.000  C
  C59      1.0000 0.57720  0.02870  0.19989  Biso   1.000  C
  C60      1.0000 0.92280  0.47130  0.69989  Biso   1.000  C
  C61      1.0000 0.57720  0.97130  0.69989  Biso   1.000  C
  C62      1.0000 0.92280  0.52870  0.19989  Biso   1.000  C
  C63      1.0000 0.42280  0.97130  0.80011  Biso   1.000  C
  C64      1.0000 0.07720  0.52870  0.30011  Biso   1.000  C
  H73      1.0000 0.44470  0.00400  0.32620  Biso   1.000  H
  H74      1.0000 0.05530  0.49600  0.82620  Biso   1.000  H
  H75      1.0000 0.55530  0.00400  0.17380  Biso   1.000  H
  H76      1.0000 0.94470  0.49600  0.67380  Biso   1.000  H
  H77      1.0000 0.55530  0.99600  0.67380  Biso   1.000  H
  H78      1.0000 0.94470  0.50400  0.17380  Biso   1.000  H
  H79      1.0000 0.44470  0.99600  0.82620  Biso   1.000  H
  H80      1.0000 0.05530  0.50400  0.32620  Biso   1.000  H
  C65      1.0000 0.22520  0.32243  0.90048  Biso   1.000  C
  C66      1.0000 0.27480  0.17757  0.40048  Biso   1.000  C
  C67      1.0000 0.77480  0.32243  0.59952  Biso   1.000  C
  C68      1.0000 0.72520  0.17757  0.09952  Biso   1.000  C
  C69      1.0000 0.77480  0.67757  0.09952  Biso   1.000  C
  C70      1.0000 0.72520  0.82243  0.59952  Biso   1.000  C
  C71      1.0000 0.22520  0.67757  0.40048  Biso   1.000  C
  C72      1.0000 0.27480  0.82243  0.90048  Biso   1.000  C
  H81      1.0000 0.21710  0.28860  0.88910  Biso   1.000  H
  H82      1.0000 0.28290  0.21140  0.38910  Biso   1.000  H
  H83      1.0000 0.78290  0.28860  0.61090  Biso   1.000  H
  H84      1.0000 0.71710  0.21140  0.11090  Biso   1.000  H
  H85      1.0000 0.78290  0.71140  0.11090  Biso   1.000  H
  H86      1.0000 0.71710  0.78860  0.61090  Biso   1.000  H
  H87      1.0000 0.21710  0.71140  0.38910  Biso   1.000  H
  H88      1.0000 0.28290  0.78860  0.88910  Biso   1.000  H
  C73      1.0000 0.24010  0.38997  0.95565  Biso   1.000  C
  C74      1.0000 0.25990  0.11003  0.45565  Biso   1.000  C
  C75      1.0000 0.75990  0.38997  0.54435  Biso   1.000  C
  C76      1.0000 0.74010  0.11003  0.04435  Biso   1.000  C
  C77      1.0000 0.75990  0.61003  0.04435  Biso   1.000  C
  C78      1.0000 0.74010  0.88997  0.54435  Biso   1.000  C
  C79      1.0000 0.24010  0.61003  0.45565  Biso   1.000  C
  C80      1.0000 0.25990  0.88997  0.95565  Biso   1.000  C
  H89      1.0000 0.24380  0.41220  0.98980  Biso   1.000  H
  H90      1.0000 0.25620  0.08780  0.48980  Biso   1.000  H
  H91      1.0000 0.75620  0.41220  0.51020  Biso   1.000  H
  H92      1.0000 0.74380  0.08780  0.01020  Biso   1.000  H
  H93      1.0000 0.75620  0.58780  0.01020  Biso   1.000  H
  H94      1.0000 0.74380  0.91220  0.51020  Biso   1.000  H
  H95      1.0000 0.24380  0.58780  0.48980  Biso   1.000  H
  H96      1.0000 0.25620  0.91220  0.98980  Biso   1.000  H
  C81      1.0000 0.26360  0.28385  0.04175  Biso   1.000  C
  C82      1.0000 0.23640  0.21615  0.54175  Biso   1.000  C
  C83      1.0000 0.73640  0.28385  0.45825  Biso   1.000  C
  C84      1.0000 0.76360  0.21615  0.95825  Biso   1.000  C
  C85      1.0000 0.73640  0.71615  0.95825  Biso   1.000  C
  C86      1.0000 0.76360  0.78385  0.45825  Biso   1.000  C
  C87      1.0000 0.26360  0.71615  0.54175  Biso   1.000  C
  C88      1.0000 0.23640  0.78385  0.04175  Biso   1.000  C
  H97      1.0000 0.31580  0.27950  0.03030  Biso   1.000  H
  H98      1.0000 0.18420  0.22050  0.53030  Biso   1.000  H
  H99      1.0000 0.68420  0.27950  0.46970  Biso   1.000  H
  H100     1.0000 0.81580  0.22050  0.96970  Biso   1.000  H
  H101     1.0000 0.68420  0.72050  0.96970  Biso   1.000  H
  H102     1.0000 0.81580  0.77950  0.46970  Biso   1.000  H
  H103     1.0000 0.31580  0.72050  0.53030  Biso   1.000  H
  H104     1.0000 0.18420  0.77950  0.03030  Biso   1.000  H
  C89      1.0000 0.14660  0.30846  0.04342  Biso   1.000  C
  C90      1.0000 0.35340  0.19154  0.54342  Biso   1.000  C
  C91      1.0000 0.85340  0.30846  0.45658  Biso   1.000  C
  C92      1.0000 0.64660  0.19154  0.95658  Biso   1.000  C
  C93      1.0000 0.85340  0.69154  0.95658  Biso   1.000  C
  C94      1.0000 0.64660  0.80846  0.45658  Biso   1.000  C
  C95      1.0000 0.14660  0.69154  0.54342  Biso   1.000  C
  C96      1.0000 0.35340  0.80846  0.04342  Biso   1.000  C
  H105     1.0000 0.10010  0.32470  0.03250  Biso   1.000  H
  H106     1.0000 0.39990  0.17530  0.53250  Biso   1.000  H
  H107     1.0000 0.89990  0.32470  0.46750  Biso   1.000  H
  H108     1.0000 0.60010  0.17530  0.96750  Biso   1.000  H
  H109     1.0000 0.89990  0.67530  0.96750  Biso   1.000  H
  H110     1.0000 0.60010  0.82470  0.46750  Biso   1.000  H
  H111     1.0000 0.10010  0.67530  0.53250  Biso   1.000  H
  H112     1.0000 0.39990  0.82470  0.03250  Biso   1.000  H
  C97      1.0000 0.28510  0.32535  0.20304  Biso   1.000  C
  C98      1.0000 0.21490  0.17465  0.70304  Biso   1.000  C
  C99      1.0000 0.71490  0.32535  0.29696  Biso   1.000  C
  C100     1.0000 0.78510  0.17465  0.79696  Biso   1.000  C
  C101     1.0000 0.71490  0.67465  0.79696  Biso   1.000  C
  C102     1.0000 0.78510  0.82535  0.29696  Biso   1.000  C
  C103     1.0000 0.28510  0.67465  0.70304  Biso   1.000  C
  C104     1.0000 0.21490  0.82535  0.20304  Biso   1.000  C
  H113     1.0000 0.25600  0.34050  0.17080  Biso   1.000  H
  H114     1.0000 0.24400  0.15950  0.67080  Biso   1.000  H
  H115     1.0000 0.74400  0.34050  0.32920  Biso   1.000  H
  H116     1.0000 0.75600  0.15950  0.82920  Biso   1.000  H
  H117     1.0000 0.74400  0.65950  0.82920  Biso   1.000  H
  H118     1.0000 0.75600  0.84050  0.32920  Biso   1.000  H
  H119     1.0000 0.25600  0.65950  0.67080  Biso   1.000  H
  H120     1.0000 0.24400  0.84050  0.17080  Biso   1.000  H
  C105     1.0000 0.35050  0.31431  0.28750  Biso   1.000  C
  C106     1.0000 0.14950  0.18569  0.78750  Biso   1.000  C
  C107     1.0000 0.64950  0.31431  0.21250  Biso   1.000  C
  C108     1.0000 0.85050  0.18569  0.71250  Biso   1.000  C
  C109     1.0000 0.64950  0.68569  0.71250  Biso   1.000  C
  C110     1.0000 0.85050  0.81431  0.21250  Biso   1.000  C
  C111     1.0000 0.35050  0.68569  0.78750  Biso   1.000  C
  C112     1.0000 0.14950  0.81431  0.28750  Biso   1.000  C
  H121     1.0000 0.37720  0.32030  0.32530  Biso   1.000  H
  H122     1.0000 0.12280  0.17970  0.82530  Biso   1.000  H
  H123     1.0000 0.62280  0.32030  0.17470  Biso   1.000  H
  H124     1.0000 0.87720  0.17970  0.67470  Biso   1.000  H
  H125     1.0000 0.62280  0.67970  0.67470  Biso   1.000  H
  H126     1.0000 0.87720  0.82030  0.17470  Biso   1.000  H
  H127     1.0000 0.37720  0.67970  0.82530  Biso   1.000  H
  H128     1.0000 0.12280  0.82030  0.32530  Biso   1.000  H
  C113     1.0000 0.28420  0.42513  0.30539  Biso   1.000  C
  C114     1.0000 0.21580  0.07487  0.80539  Biso   1.000  C
  C115     1.0000 0.71580  0.42513  0.19461  Biso   1.000  C
  C116     1.0000 0.78420  0.07487  0.69461  Biso   1.000  C
  C117     1.0000 0.71580  0.57487  0.69461  Biso   1.000  C
  C118     1.0000 0.78420  0.92513  0.19461  Biso   1.000  C
  C119     1.0000 0.28420  0.57487  0.80539  Biso   1.000  C
  C120     1.0000 0.21580  0.92513  0.30539  Biso   1.000  C
  H129     1.0000 0.25140  0.41100  0.33590  Biso   1.000  H
  H130     1.0000 0.24860  0.08900  0.83590  Biso   1.000  H
  H131     1.0000 0.74860  0.41100  0.16410  Biso   1.000  H
  H132     1.0000 0.75140  0.08900  0.66410  Biso   1.000  H
  H133     1.0000 0.74860  0.58900  0.66410  Biso   1.000  H
  H134     1.0000 0.75140  0.91100  0.16410  Biso   1.000  H
  H135     1.0000 0.25140  0.58900  0.83590  Biso   1.000  H
  H136     1.0000 0.24860  0.91100  0.33590  Biso   1.000  H
  C121     1.0000 0.36050  0.43397  0.22760  Biso   1.000  C
  C122     1.0000 0.13950  0.06603  0.72760  Biso   1.000  C
  C123     1.0000 0.63950  0.43397  0.27240  Biso   1.000  C
  C124     1.0000 0.86050  0.06603  0.77240  Biso   1.000  C
  C125     1.0000 0.63950  0.56603  0.77240  Biso   1.000  C
  C126     1.0000 0.86050  0.93397  0.27240  Biso   1.000  C
  C127     1.0000 0.36050  0.56603  0.72760  Biso   1.000  C
  C128     1.0000 0.13950  0.93397  0.22760  Biso   1.000  C
  H137     1.0000 0.39270  0.42640  0.19330  Biso   1.000  H
  H138     1.0000 0.10730  0.07360  0.69330  Biso   1.000  H
  H139     1.0000 0.60730  0.42640  0.30670  Biso   1.000  H
  H140     1.0000 0.89270  0.07360  0.80670  Biso   1.000  H
  H141     1.0000 0.60730  0.57360  0.80670  Biso   1.000  H
  H142     1.0000 0.89270  0.92640  0.30670  Biso   1.000  H
  H143     1.0000 0.39270  0.57360  0.69330  Biso   1.000  H
  H144     1.0000 0.10730  0.92640  0.19330  Biso   1.000  H
  O17      1.0000 0.10040  0.97246  0.90458  Biso   1.000  O
  O18      1.0000 0.39960  0.52754  0.40458  Biso   1.000  O
  O19      1.0000 0.89960  0.97246  0.59542  Biso   1.000  O
  O20      1.0000 0.60040  0.52754  0.09542  Biso   1.000  O
  O21      1.0000 0.89960  0.02754  0.09542  Biso   1.000  O
  O22      1.0000 0.60040  0.47246  0.59542  Biso   1.000  O
  O23      1.0000 0.10040  0.02754  0.40458  Biso   1.000  O
  O24      1.0000 0.39960  0.47246  0.90458  Biso   1.000  O
  O25      1.0000 0.39462  0.22588  0.09921  Biso   1.000  O
  O26      1.0000 0.10538  0.27412  0.59921  Biso   1.000  O
  O27      1.0000 0.60538  0.22588  0.40079  Biso   1.000  O
  O28      1.0000 0.89462  0.27412  0.90079  Biso   1.000  O
  O29      1.0000 0.60538  0.77412  0.90079  Biso   1.000  O
  O30      1.0000 0.89462  0.72588  0.40079  Biso   1.000  O
  O31      1.0000 0.39462  0.77412  0.59921  Biso   1.000  O
  O32      1.0000 0.10538  0.72588  0.09921  Biso   1.000  O
  O33      1.0000 0.43340  0.14674  0.09320  Biso   1.000  O
  O34      1.0000 0.06660  0.35326  0.59320  Biso   1.000  O
  O35      1.0000 0.56660  0.14674  0.40680  Biso   1.000  O
  O36      1.0000 0.93340  0.35326  0.90680  Biso   1.000  O
  O37      1.0000 0.56660  0.85326  0.90680  Biso   1.000  O
  O38      1.0000 0.93340  0.64674  0.40680  Biso   1.000  O
  O39      1.0000 0.43340  0.85326  0.59320  Biso   1.000  O
  O40      1.0000 0.06660  0.64674  0.09320  Biso   1.000  O
  C129     1.0000 0.43400  0.19271  0.10280  Biso   1.000  C
  C130     1.0000 0.06600  0.30729  0.60280  Biso   1.000  C
  C131     1.0000 0.56600  0.19271  0.39720  Biso   1.000  C
  C132     1.0000 0.93400  0.30729  0.89720  Biso   1.000  C
  C133     1.0000 0.56600  0.80729  0.89720  Biso   1.000  C
  C134     1.0000 0.93400  0.69271  0.39720  Biso   1.000  C
  C135     1.0000 0.43400  0.80729  0.60280  Biso   1.000  C
  C136     1.0000 0.06600  0.69271  0.10280  Biso   1.000  C
  C137     1.0000 0.51130  0.20580  0.13600  Biso   1.000  C
  C138     1.0000 0.98870  0.29420  0.63600  Biso   1.000  C
  C139     1.0000 0.48870  0.20580  0.36400  Biso   1.000  C
  C140     1.0000 0.01130  0.29420  0.86400  Biso   1.000  C
  C141     1.0000 0.48870  0.79420  0.86400  Biso   1.000  C
  C142     1.0000 0.01130  0.70580  0.36400  Biso   1.000  C
  C143     1.0000 0.51130  0.79420  0.63600  Biso   1.000  C
  C144     1.0000 0.98870  0.70580  0.13600  Biso   1.000  C
  F1       1.0000 0.53910  0.16750  0.16760  Biso   1.000  F
  F2       1.0000 0.96090  0.33250  0.66760  Biso   1.000  F
  F3       1.0000 0.46090  0.16750  0.33240  Biso   1.000  F
  F4       1.0000 0.03910  0.33250  0.83240  Biso   1.000  F
  F5       1.0000 0.46090  0.83250  0.83240  Biso   1.000  F
  F6       1.0000 0.03910  0.66750  0.33240  Biso   1.000  F
  F7       1.0000 0.53910  0.83250  0.66760  Biso   1.000  F
  F8       1.0000 0.96090  0.66750  0.16760  Biso   1.000  F
  F9       1.0000 0.56440  0.22090  0.09600  Biso   1.000  F
  F10      1.0000 0.93560  0.27910  0.59600  Biso   1.000  F
  F11      1.0000 0.43560  0.22090  0.40400  Biso   1.000  F
  F12      1.0000 0.06440  0.27910  0.90400  Biso   1.000  F
  F13      1.0000 0.43560  0.77910  0.90400  Biso   1.000  F
  F14      1.0000 0.06440  0.72090  0.40400  Biso   1.000  F
  F15      1.0000 0.56440  0.77910  0.59600  Biso   1.000  F
  F16      1.0000 0.93560  0.72090  0.09600  Biso   1.000  F
  F17      1.0000 0.50130  0.24310  0.17700  Biso   1.000  F
  F18      1.0000 0.99870  0.25690  0.67700  Biso   1.000  F
  F19      1.0000 0.49870  0.24310  0.32300  Biso   1.000  F
  F20      1.0000 0.00130  0.25690  0.82300  Biso   1.000  F
  F21      1.0000 0.49870  0.75690  0.82300  Biso   1.000  F
  F22      1.0000 0.00130  0.74310  0.32300  Biso   1.000  F
  F23      1.0000 0.50130  0.75690  0.67700  Biso   1.000  F
  F24      1.0000 0.99870  0.74310  0.17700  Biso   1.000  F
  F25      1.0000 0.56990  0.18030  0.11090  Biso   1.000  F
  F26      1.0000 0.93010  0.31970  0.61090  Biso   1.000  F
  F27      1.0000 0.43010  0.18030  0.38910  Biso   1.000  F
  F28      1.0000 0.06990  0.31970  0.88910  Biso   1.000  F
  F29      1.0000 0.43010  0.81970  0.88910  Biso   1.000  F
  F30      1.0000 0.06990  0.68030  0.38910  Biso   1.000  F
  F31      1.0000 0.56990  0.81970  0.61090  Biso   1.000  F
  F32      1.0000 0.93010  0.68030  0.11090  Biso   1.000  F
  F33      1.0000 0.51000  0.19430  0.19590  Biso   1.000  F
  F34      1.0000 0.99000  0.30570  0.69590  Biso   1.000  F
  F35      1.0000 0.49000  0.19430  0.30410  Biso   1.000  F
  F36      1.0000 0.01000  0.30570  0.80410  Biso   1.000  F
  F37      1.0000 0.49000  0.80570  0.80410  Biso   1.000  F
  F38      1.0000 0.01000  0.69430  0.30410  Biso   1.000  F
  F39      1.0000 0.51000  0.80570  0.69590  Biso   1.000  F
  F40      1.0000 0.99000  0.69430  0.19590  Biso   1.000  F
  F41      1.0000 0.52890  0.25360  0.13110  Biso   1.000  F
  F42      1.0000 0.97110  0.24640  0.63110  Biso   1.000  F
  F43      1.0000 0.47110  0.25360  0.36890  Biso   1.000  F
  F44      1.0000 0.02890  0.24640  0.86890  Biso   1.000  F
  F45      1.0000 0.47110  0.74640  0.86890  Biso   1.000  F
  F46      1.0000 0.02890  0.75360  0.36890  Biso   1.000  F
  F47      1.0000 0.52890  0.74640  0.63110  Biso   1.000  F
  F48      1.0000 0.97110  0.75360  0.13110  Biso   1.000  F
