data_image0
_cell_length_a       12.9933
_cell_length_b       13.089
_cell_length_c       13.071
_cell_angle_alpha    90
_cell_angle_beta     118.394
_cell_angle_gamma    90

_symmetry_space_group_name_H-M    "P 1"
_symmetry_int_tables_number       1

loop_
  _symmetry_equiv_pos_as_xyz
  'x, y, z'

loop_
  _atom_site_label
  _atom_site_occupancy
  _atom_site_fract_x
  _atom_site_fract_y
  _atom_site_fract_z
  _atom_site_thermal_displace_type
  _atom_site_B_iso_or_equiv
  _atom_site_type_symbol
  Cu1      1.0000 0.50000  0.00000  0.00000  Biso   1.000  Cu
  Cu2      1.0000 0.50000  0.50000  0.50000  Biso   1.000  Cu
  Cl1      1.0000 0.21716  0.27795  0.86006  Biso   1.000  Cl
  Cl2      1.0000 0.78284  0.77795  0.63994  Biso   1.000  Cl
  Cl3      1.0000 0.78284  0.72205  0.13994  Biso   1.000  Cl
  Cl4      1.0000 0.21716  0.22205  0.36006  Biso   1.000  Cl
  Cl5      1.0000 0.39988  0.35886  0.07805  Biso   1.000  Cl
  Cl6      1.0000 0.60012  0.85886  0.42195  Biso   1.000  Cl
  Cl7      1.0000 0.60012  0.64114  0.92195  Biso   1.000  Cl
  Cl8      1.0000 0.39988  0.14114  0.57805  Biso   1.000  Cl
  Cl9      1.0000 0.21117  0.24082  0.07422  Biso   1.000  Cl
  Cl10     1.0000 0.78883  0.74082  0.42578  Biso   1.000  Cl
  Cl11     1.0000 0.78883  0.75918  0.92578  Biso   1.000  Cl
  Cl12     1.0000 0.21117  0.25918  0.57422  Biso   1.000  Cl
  O1       1.0000 0.07279  0.42188  0.95751  Biso   1.000  O
  O2       1.0000 0.92721  0.92188  0.54249  Biso   1.000  O
  O3       1.0000 0.92721  0.57812  0.04249  Biso   1.000  O
  O4       1.0000 0.07279  0.07812  0.45751  Biso   1.000  O
  O5       1.0000 0.21750  0.51195  0.95830  Biso   1.000  O
  O6       1.0000 0.78250  0.01195  0.54170  Biso   1.000  O
  O7       1.0000 0.78250  0.48805  0.04170  Biso   1.000  O
  O8       1.0000 0.21750  0.98805  0.45830  Biso   1.000  O
  N1       1.0000 0.53308  0.14800  0.97870  Biso   1.000  N
  N2       1.0000 0.46692  0.64800  0.52130  Biso   1.000  N
  N3       1.0000 0.46692  0.85200  0.02130  Biso   1.000  N
  N4       1.0000 0.53308  0.35200  0.47870  Biso   1.000  N
  N5       1.0000 0.62095  0.20819  0.06371  Biso   1.000  N
  N6       1.0000 0.37905  0.70819  0.43629  Biso   1.000  N
  N7       1.0000 0.37905  0.79181  0.93629  Biso   1.000  N
  N8       1.0000 0.62095  0.29181  0.56371  Biso   1.000  N
  N9       1.0000 0.52859  0.29505  0.90264  Biso   1.000  N
  N10      1.0000 0.47141  0.79505  0.59736  Biso   1.000  N
  N11      1.0000 0.47141  0.70495  0.09736  Biso   1.000  N
  N12      1.0000 0.52859  0.20495  0.40264  Biso   1.000  N
  N13      1.0000 0.48699  0.45782  0.67329  Biso   1.000  N
  N14      1.0000 0.51301  0.95782  0.82671  Biso   1.000  N
  N15      1.0000 0.51301  0.54218  0.32671  Biso   1.000  N
  N16      1.0000 0.48699  0.04218  0.17329  Biso   1.000  N
  N17      1.0000 0.40181  0.49545  0.70091  Biso   1.000  N
  N18      1.0000 0.59819  0.99545  0.79909  Biso   1.000  N
  N19      1.0000 0.59819  0.50455  0.29909  Biso   1.000  N
  N20      1.0000 0.40181  0.00455  0.20091  Biso   1.000  N
  N21      1.0000 0.49824  0.37170  0.82011  Biso   1.000  N
  N22      1.0000 0.50176  0.87170  0.67989  Biso   1.000  N
  N23      1.0000 0.50176  0.62830  0.17989  Biso   1.000  N
  N24      1.0000 0.49824  0.12830  0.32011  Biso   1.000  N
  N25      1.0000 0.67679  0.98007  0.09885  Biso   1.000  N
  N26      1.0000 0.32321  0.48007  0.40115  Biso   1.000  N
  N27      1.0000 0.32321  0.01993  0.90115  Biso   1.000  N
  N28      1.0000 0.67679  0.51993  0.59885  Biso   1.000  N
  N29      1.0000 0.73224  0.96841  0.21902  Biso   1.000  N
  N30      1.0000 0.26776  0.46841  0.28098  Biso   1.000  N
  N31      1.0000 0.26776  0.03159  0.78098  Biso   1.000  N
  N32      1.0000 0.73224  0.53159  0.71902  Biso   1.000  N
  N33      1.0000 0.86323  0.98659  0.16071  Biso   1.000  N
  N34      1.0000 0.13677  0.48659  0.33929  Biso   1.000  N
  N35      1.0000 0.13677  0.01341  0.83929  Biso   1.000  N
  N36      1.0000 0.86323  0.51341  0.66071  Biso   1.000  N
  N37      1.0000 0.11264  0.04733  0.13380  Biso   1.000  N
  N38      1.0000 0.88736  0.54733  0.36620  Biso   1.000  N
  N39      1.0000 0.88736  0.95267  0.86620  Biso   1.000  N
  N40      1.0000 0.11264  0.45267  0.63380  Biso   1.000  N
  N41      1.0000 0.13253  0.94396  0.16530  Biso   1.000  N
  N42      1.0000 0.86747  0.44396  0.33470  Biso   1.000  N
  N43      1.0000 0.86747  0.05604  0.83470  Biso   1.000  N
  N44      1.0000 0.13253  0.55604  0.66530  Biso   1.000  N
  N45      1.0000 0.96989  0.99183  0.16080  Biso   1.000  N
  N46      1.0000 0.03011  0.49183  0.33920  Biso   1.000  N
  N47      1.0000 0.03011  0.00817  0.83920  Biso   1.000  N
  N48      1.0000 0.96989  0.50817  0.66080  Biso   1.000  N
  C1       1.0000 0.47967  0.20085  0.88330  Biso   1.000  C
  C2       1.0000 0.52033  0.70085  0.61670  Biso   1.000  C
  C3       1.0000 0.52033  0.79915  0.11670  Biso   1.000  C
  C4       1.0000 0.47967  0.29915  0.38330  Biso   1.000  C
  H1       1.0000 0.41700  0.17740  0.81210  Biso   1.000  H
  H2       1.0000 0.58300  0.67740  0.68790  Biso   1.000  H
  H3       1.0000 0.58300  0.82260  0.18790  Biso   1.000  H
  H4       1.0000 0.41700  0.32260  0.31210  Biso   1.000  H
  C5       1.0000 0.61698  0.29625  0.01559  Biso   1.000  C
  C6       1.0000 0.38302  0.79625  0.48441  Biso   1.000  C
  C7       1.0000 0.38302  0.70375  0.98441  Biso   1.000  C
  C8       1.0000 0.61698  0.20375  0.51559  Biso   1.000  C
  H5       1.0000 0.66730  0.35250  0.05270  Biso   1.000  H
  H6       1.0000 0.33270  0.85250  0.44730  Biso   1.000  H
  H7       1.0000 0.33270  0.64750  0.94730  Biso   1.000  H
  H8       1.0000 0.66730  0.14750  0.55270  Biso   1.000  H
  C9       1.0000 0.54316  0.38410  0.74514  Biso   1.000  C
  C10      1.0000 0.45684  0.88410  0.75486  Biso   1.000  C
  C11      1.0000 0.45684  0.61590  0.25486  Biso   1.000  C
  C12      1.0000 0.54316  0.11590  0.24514  Biso   1.000  C
  H9       1.0000 0.60510  0.34530  0.74550  Biso   1.000  H
  H10      1.0000 0.39490  0.84530  0.75450  Biso   1.000  H
  H11      1.0000 0.39490  0.65470  0.25450  Biso   1.000  H
  H12      1.0000 0.60510  0.15470  0.24550  Biso   1.000  H
  C13      1.0000 0.41060  0.44182  0.78844  Biso   1.000  C
  C14      1.0000 0.58940  0.94182  0.71156  Biso   1.000  C
  C15      1.0000 0.58940  0.55818  0.21156  Biso   1.000  C
  C16      1.0000 0.41060  0.05818  0.28844  Biso   1.000  C
  H13      1.0000 0.36300  0.45020  0.82500  Biso   1.000  H
  H14      1.0000 0.63700  0.95020  0.67500  Biso   1.000  H
  H15      1.0000 0.63700  0.54980  0.17500  Biso   1.000  H
  H16      1.0000 0.36300  0.04980  0.32500  Biso   1.000  H
  C17      1.0000 0.75652  0.98996  0.06558  Biso   1.000  C
  C18      1.0000 0.24348  0.48996  0.43442  Biso   1.000  C
  C19      1.0000 0.24348  0.01004  0.93442  Biso   1.000  C
  C20      1.0000 0.75652  0.51004  0.56558  Biso   1.000  C
  H17      1.0000 0.74200  0.99810  0.98760  Biso   1.000  H
  H18      1.0000 0.25800  0.49810  0.51240  Biso   1.000  H
  H19      1.0000 0.25800  0.00190  0.01240  Biso   1.000  H
  H20      1.0000 0.74200  0.50190  0.48760  Biso   1.000  H
  C21      1.0000 0.84441  0.97386  0.25460  Biso   1.000  C
  C22      1.0000 0.15559  0.47386  0.24540  Biso   1.000  C
  C23      1.0000 0.15559  0.02614  0.74540  Biso   1.000  C
  C24      1.0000 0.84441  0.52614  0.75460  Biso   1.000  C
  H21      1.0000 0.90380  0.96970  0.33330  Biso   1.000  H
  H22      1.0000 0.09620  0.46970  0.16670  Biso   1.000  H
  H23      1.0000 0.09620  0.03030  0.66670  Biso   1.000  H
  H24      1.0000 0.90380  0.53030  0.83330  Biso   1.000  H
  C25      1.0000 0.01500  0.07366  0.13220  Biso   1.000  C
  C26      1.0000 0.98500  0.57366  0.36780  Biso   1.000  C
  C27      1.0000 0.98500  0.92634  0.86780  Biso   1.000  C
  C28      1.0000 0.01500  0.42634  0.63220  Biso   1.000  C
  H25      1.0000 0.98090  0.13980  0.11380  Biso   1.000  H
  H26      1.0000 0.01910  0.63980  0.38620  Biso   1.000  H
  H27      1.0000 0.01910  0.86020  0.88620  Biso   1.000  H
  H28      1.0000 0.98090  0.36020  0.61380  Biso   1.000  H
  C29      1.0000 0.04540  0.91240  0.18000  Biso   1.000  C
  C30      1.0000 0.95460  0.41240  0.32000  Biso   1.000  C
  C31      1.0000 0.95460  0.08760  0.82000  Biso   1.000  C
  C32      1.0000 0.04540  0.58760  0.68000  Biso   1.000  C
  H29      1.0000 0.03570  0.84480  0.20070  Biso   1.000  H
  H30      1.0000 0.96430  0.34480  0.29930  Biso   1.000  H
  H31      1.0000 0.96430  0.15520  0.79930  Biso   1.000  H
  H32      1.0000 0.03570  0.65520  0.70070  Biso   1.000  H
  C33      1.0000 0.17120  0.43366  0.96909  Biso   1.000  C
  C34      1.0000 0.82880  0.93366  0.53091  Biso   1.000  C
  C35      1.0000 0.82880  0.56634  0.03091  Biso   1.000  C
  C36      1.0000 0.17120  0.06634  0.46909  Biso   1.000  C
  C37      1.0000 0.24762  0.33316  0.99728  Biso   1.000  C
  C38      1.0000 0.75238  0.83316  0.50272  Biso   1.000  C
  C39      1.0000 0.75238  0.66684  0.00272  Biso   1.000  C
  C40      1.0000 0.24762  0.16684  0.49728  Biso   1.000  C
  O9       1.0000 0.06764  0.67802  0.95420  Biso   1.000  O
  O10      1.0000 0.93236  0.17802  0.54580  Biso   1.000  O
  O11      1.0000 0.93236  0.32198  0.04580  Biso   1.000  O
  O12      1.0000 0.06764  0.82198  0.45420  Biso   1.000  O
  H33      1.0000 0.01770  0.65230  0.97250  Biso   1.000  H
  H34      1.0000 0.98230  0.15230  0.52750  Biso   1.000  H
  H35      1.0000 0.98230  0.34770  0.02750  Biso   1.000  H
  H36      1.0000 0.01770  0.84770  0.47250  Biso   1.000  H
  H37      1.0000 0.10800  0.62830  0.94940  Biso   1.000  H
  H38      1.0000 0.89200  0.12830  0.55060  Biso   1.000  H
  H39      1.0000 0.89200  0.37170  0.05060  Biso   1.000  H
  H40      1.0000 0.10800  0.87170  0.44940  Biso   1.000  H
  O13      1.0000 0.26970  0.78276  0.12710  Biso   1.000  O
  O14      1.0000 0.73030  0.28276  0.37290  Biso   1.000  O
  O15      1.0000 0.73030  0.21724  0.87290  Biso   1.000  O
  O16      1.0000 0.26970  0.71724  0.62710  Biso   1.000  O
  H41      1.0000 0.21050  0.74720  0.08080  Biso   1.000  H
  H42      1.0000 0.78950  0.24720  0.41920  Biso   1.000  H
  H43      1.0000 0.78950  0.25280  0.91920  Biso   1.000  H
  H44      1.0000 0.21050  0.75280  0.58080  Biso   1.000  H
  H45      1.0000 0.24380  0.83200  0.15140  Biso   1.000  H
  H46      1.0000 0.75620  0.33200  0.34860  Biso   1.000  H
  H47      1.0000 0.75620  0.16800  0.84860  Biso   1.000  H
  H48      1.0000 0.24380  0.66800  0.65140  Biso   1.000  H
  O17      1.0000 0.89100  0.30820  0.75430  Biso   1.000  O
  O18      1.0000 0.10900  0.80820  0.74570  Biso   1.000  O
  O19      1.0000 0.10900  0.69180  0.24570  Biso   1.000  O
  O20      1.0000 0.89100  0.19180  0.25430  Biso   1.000  O
  H49      1.0000 0.92320  0.35350  0.80890  Biso   1.000  H
  H50      1.0000 0.07680  0.85350  0.69110  Biso   1.000  H
  H51      1.0000 0.07680  0.64650  0.19110  Biso   1.000  H
  H52      1.0000 0.92320  0.14650  0.30890  Biso   1.000  H
  H53      1.0000 0.81840  0.32220  0.71670  Biso   1.000  H
  H54      1.0000 0.18160  0.82220  0.78330  Biso   1.000  H
  H55      1.0000 0.18160  0.67780  0.28330  Biso   1.000  H
  H56      1.0000 0.81840  0.17780  0.21670  Biso   1.000  H
