data_image0
_cell_length_a       10.1953
_cell_length_b       12.4717
_cell_length_c       13.2844
_cell_angle_alpha    90
_cell_angle_beta     112.142
_cell_angle_gamma    90

_symmetry_space_group_name_H-M    "P 1"
_symmetry_int_tables_number       1

loop_
  _symmetry_equiv_pos_as_xyz
  'x, y, z'

loop_
  _atom_site_label
  _atom_site_occupancy
  _atom_site_fract_x
  _atom_site_fract_y
  _atom_site_fract_z
  _atom_site_thermal_displace_type
  _atom_site_B_iso_or_equiv
  _atom_site_type_symbol
  Cu1      1.0000 0.00000  0.00000  0.00000  Biso   1.000  Cu
  Cu2      1.0000 0.00000  0.50000  0.50000  Biso   1.000  Cu
  O1       1.0000 0.23626  0.00064  0.01328  Biso   1.000  O
  O2       1.0000 0.76374  0.50064  0.48672  Biso   1.000  O
  O3       1.0000 0.76374  0.99936  0.98672  Biso   1.000  O
  O4       1.0000 0.23626  0.49936  0.51328  Biso   1.000  O
  O5       1.0000 0.11110  0.55979  0.19655  Biso   1.000  O
  O6       1.0000 0.88890  0.05979  0.30345  Biso   1.000  O
  O7       1.0000 0.88890  0.44021  0.80345  Biso   1.000  O
  O8       1.0000 0.11110  0.94021  0.69655  Biso   1.000  O
  O9       1.0000 0.19780  0.56985  0.07436  Biso   1.000  O
  O10      1.0000 0.80220  0.06985  0.42564  Biso   1.000  O
  O11      1.0000 0.80220  0.43015  0.92564  Biso   1.000  O
  O12      1.0000 0.19780  0.93015  0.57436  Biso   1.000  O
  O13      1.0000 0.20640  0.70608  0.17970  Biso   1.000  O
  O14      1.0000 0.79360  0.20608  0.32030  Biso   1.000  O
  O15      1.0000 0.79360  0.29392  0.82030  Biso   1.000  O
  O16      1.0000 0.20640  0.79392  0.67970  Biso   1.000  O
  N1       1.0000 0.02024  0.15105  0.05861  Biso   1.000  N
  N2       1.0000 0.97976  0.65105  0.44139  Biso   1.000  N
  N3       1.0000 0.97976  0.84895  0.94139  Biso   1.000  N
  N4       1.0000 0.02024  0.34895  0.55861  Biso   1.000  N
  N5       1.0000 0.09220  0.23387  0.03118  Biso   1.000  N
  N6       1.0000 0.90780  0.73387  0.46882  Biso   1.000  N
  N7       1.0000 0.90780  0.76613  0.96882  Biso   1.000  N
  N8       1.0000 0.09220  0.26613  0.53118  Biso   1.000  N
  N9       1.0000 0.99862  0.29239  0.14329  Biso   1.000  N
  N10      1.0000 0.00138  0.79239  0.35671  Biso   1.000  N
  N11      1.0000 0.00138  0.70761  0.85671  Biso   1.000  N
  N12      1.0000 0.99862  0.20761  0.64329  Biso   1.000  N
  N13      1.0000 0.95363  0.44458  0.34793  Biso   1.000  N
  N14      1.0000 0.04637  0.94458  0.15207  Biso   1.000  N
  N15      1.0000 0.04637  0.55542  0.65207  Biso   1.000  N
  N16      1.0000 0.95363  0.05542  0.84793  Biso   1.000  N
  N17      1.0000 0.83470  0.47489  0.25908  Biso   1.000  N
  N18      1.0000 0.16530  0.97489  0.24092  Biso   1.000  N
  N19      1.0000 0.16530  0.52511  0.74092  Biso   1.000  N
  N20      1.0000 0.83470  0.02511  0.75908  Biso   1.000  N
  N21      1.0000 0.95674  0.35969  0.20814  Biso   1.000  N
  N22      1.0000 0.04326  0.85969  0.29186  Biso   1.000  N
  N23      1.0000 0.04326  0.64031  0.79186  Biso   1.000  N
  N24      1.0000 0.95674  0.14031  0.70814  Biso   1.000  N
  N25      1.0000 0.45240  0.97575  0.14361  Biso   1.000  N
  N26      1.0000 0.54760  0.47575  0.35639  Biso   1.000  N
  N27      1.0000 0.54760  0.02425  0.85639  Biso   1.000  N
  N28      1.0000 0.45240  0.52425  0.64361  Biso   1.000  N
  N29      1.0000 0.17122  0.61374  0.14942  Biso   1.000  N
  N30      1.0000 0.82878  0.11374  0.35058  Biso   1.000  N
  N31      1.0000 0.82878  0.38626  0.85058  Biso   1.000  N
  N32      1.0000 0.17122  0.88626  0.64942  Biso   1.000  N
  C1       1.0000 0.96450  0.18682  0.12548  Biso   1.000  C
  C2       1.0000 0.03550  0.68682  0.37452  Biso   1.000  C
  C3       1.0000 0.03550  0.81318  0.87452  Biso   1.000  C
  C4       1.0000 0.96450  0.31318  0.62548  Biso   1.000  C
  H1       1.0000 0.91040  0.14690  0.15600  Biso   1.000  H
  H2       1.0000 0.08960  0.64690  0.34400  Biso   1.000  H
  H3       1.0000 0.08960  0.85310  0.84400  Biso   1.000  H
  H4       1.0000 0.91040  0.35310  0.65600  Biso   1.000  H
  C5       1.0000 0.07700  0.31828  0.08299  Biso   1.000  C
  C6       1.0000 0.92300  0.81828  0.41701  Biso   1.000  C
  C7       1.0000 0.92300  0.68172  0.91701  Biso   1.000  C
  C8       1.0000 0.07700  0.18172  0.58299  Biso   1.000  C
  H5       1.0000 0.11420  0.38660  0.07960  Biso   1.000  H
  H6       1.0000 0.88580  0.88660  0.42040  Biso   1.000  H
  H7       1.0000 0.88580  0.61340  0.92040  Biso   1.000  H
  H8       1.0000 0.11420  0.11340  0.57960  Biso   1.000  H
  C9       1.0000 0.02560  0.37630  0.31560  Biso   1.000  C
  C10      1.0000 0.97440  0.87630  0.18440  Biso   1.000  C
  C11      1.0000 0.97440  0.62370  0.68440  Biso   1.000  C
  C12      1.0000 0.02560  0.12370  0.81560  Biso   1.000  C
  H9       1.0000 0.11120  0.34390  0.35970  Biso   1.000  H
  H10      1.0000 0.88880  0.84390  0.14030  Biso   1.000  H
  H11      1.0000 0.88880  0.65610  0.64030  Biso   1.000  H
  H12      1.0000 0.11120  0.15610  0.85970  Biso   1.000  H
  C13      1.0000 0.84040  0.42245  0.17615  Biso   1.000  C
  C14      1.0000 0.15960  0.92245  0.32385  Biso   1.000  C
  C15      1.0000 0.15960  0.57755  0.82385  Biso   1.000  C
  C16      1.0000 0.84040  0.07755  0.67615  Biso   1.000  C
  H13      1.0000 0.77340  0.42750  0.10460  Biso   1.000  H
  H14      1.0000 0.22660  0.92750  0.39540  Biso   1.000  H
  H15      1.0000 0.22660  0.57250  0.89540  Biso   1.000  H
  H16      1.0000 0.77340  0.07250  0.60460  Biso   1.000  H
  C17      1.0000 0.32260  0.94618  0.08510  Biso   1.000  C
  C18      1.0000 0.67740  0.44618  0.41490  Biso   1.000  C
  C19      1.0000 0.67740  0.05382  0.91490  Biso   1.000  C
  C20      1.0000 0.32260  0.55382  0.58510  Biso   1.000  C
  H17      1.0000 0.29320  0.87820  0.09900  Biso   1.000  H
  H18      1.0000 0.70680  0.37820  0.40100  Biso   1.000  H
  H19      1.0000 0.70680  0.12180  0.90100  Biso   1.000  H
  H20      1.0000 0.29320  0.62180  0.59900  Biso   1.000  H
  C21      1.0000 0.50420  0.08020  0.12760  Biso   1.000  C
  C22      1.0000 0.49580  0.58020  0.37240  Biso   1.000  C
  C23      1.0000 0.49580  0.91980  0.87240  Biso   1.000  C
  C24      1.0000 0.50420  0.41980  0.62760  Biso   1.000  C
  H21      1.0000 0.43540  0.11380  0.06360  Biso   1.000  H
  H22      1.0000 0.56460  0.61380  0.43640  Biso   1.000  H
  H23      1.0000 0.56460  0.88620  0.93640  Biso   1.000  H
  H24      1.0000 0.43540  0.38620  0.56360  Biso   1.000  H
  H25      1.0000 0.59320  0.07170  0.11780  Biso   1.000  H
  H26      1.0000 0.40680  0.57170  0.38220  Biso   1.000  H
  H27      1.0000 0.40680  0.92830  0.88220  Biso   1.000  H
  H28      1.0000 0.59320  0.42830  0.61780  Biso   1.000  H
  H29      1.0000 0.51870  0.12480  0.19070  Biso   1.000  H
  H30      1.0000 0.48130  0.62480  0.30930  Biso   1.000  H
  H31      1.0000 0.48130  0.87520  0.80930  Biso   1.000  H
  H32      1.0000 0.51870  0.37520  0.69070  Biso   1.000  H
  C25      1.0000 0.54580  0.90670  0.23060  Biso   1.000  C
  C26      1.0000 0.45420  0.40670  0.26940  Biso   1.000  C
  C27      1.0000 0.45420  0.09330  0.76940  Biso   1.000  C
  C28      1.0000 0.54580  0.59330  0.73060  Biso   1.000  C
  H33      1.0000 0.49560  0.84180  0.23470  Biso   1.000  H
  H34      1.0000 0.50440  0.34180  0.26530  Biso   1.000  H
  H35      1.0000 0.50440  0.15820  0.76530  Biso   1.000  H
  H36      1.0000 0.49560  0.65820  0.73470  Biso   1.000  H
  H37      1.0000 0.57490  0.94450  0.29940  Biso   1.000  H
  H38      1.0000 0.42510  0.44450  0.20060  Biso   1.000  H
  H39      1.0000 0.42510  0.05550  0.70060  Biso   1.000  H
  H40      1.0000 0.57490  0.55550  0.79940  Biso   1.000  H
  H41      1.0000 0.62880  0.88810  0.21520  Biso   1.000  H
  H42      1.0000 0.37120  0.38810  0.28480  Biso   1.000  H
  H43      1.0000 0.37120  0.11190  0.78480  Biso   1.000  H
  H44      1.0000 0.62880  0.61190  0.71520  Biso   1.000  H
  C29      1.0000 0.34000  0.17420  0.43410  Biso   1.000  C
  C30      1.0000 0.66000  0.67420  0.06590  Biso   1.000  C
  C31      1.0000 0.66000  0.82580  0.56590  Biso   1.000  C
  C32      1.0000 0.34000  0.32580  0.93410  Biso   1.000  C
  O17      1.0000 0.27490  0.19590  0.31300  Biso   1.000  O
  O18      1.0000 0.72510  0.69590  0.18700  Biso   1.000  O
  O19      1.0000 0.72510  0.80410  0.68700  Biso   1.000  O
  O20      1.0000 0.27490  0.30410  0.81300  Biso   1.000  O
  C33      1.0000 0.48790  0.15320  0.46010  Biso   1.000  C
  C34      1.0000 0.51210  0.65320  0.03990  Biso   1.000  C
  C35      1.0000 0.51210  0.84680  0.53990  Biso   1.000  C
  C36      1.0000 0.48790  0.34680  0.96010  Biso   1.000  C
  C37      1.0000 0.44510  0.13480  0.39450  Biso   1.000  C
  C38      1.0000 0.55490  0.63480  0.10550  Biso   1.000  C
  C39      1.0000 0.55490  0.86520  0.60550  Biso   1.000  C
  C40      1.0000 0.44510  0.36520  0.89450  Biso   1.000  C
  O21      1.0000 0.57660  0.18640  0.45580  Biso   1.000  O
  O22      1.0000 0.42340  0.68640  0.04420  Biso   1.000  O
  O23      1.0000 0.42340  0.81360  0.54420  Biso   1.000  O
  O24      1.0000 0.57660  0.31360  0.95580  Biso   1.000  O
