data_image0
_cell_length_a       17.2465
_cell_length_b       11.688
_cell_length_c       13.0107
_cell_angle_alpha    90
_cell_angle_beta     103.671
_cell_angle_gamma    90

_symmetry_space_group_name_H-M    "P 1"
_symmetry_int_tables_number       1

loop_
  _symmetry_equiv_pos_as_xyz
  'x, y, z'

loop_
  _atom_site_label
  _atom_site_occupancy
  _atom_site_fract_x
  _atom_site_fract_y
  _atom_site_fract_z
  _atom_site_thermal_displace_type
  _atom_site_B_iso_or_equiv
  _atom_site_type_symbol
  Cu1      1.0000 0.00000  0.00000  0.50000  Biso   1.000  Cu
  Cu2      1.0000 0.00000  0.50000  0.00000  Biso   1.000  Cu
  Cu3      1.0000 0.50000  0.00000  0.50000  Biso   1.000  Cu
  Cu4      1.0000 0.50000  0.50000  0.00000  Biso   1.000  Cu
  N1       1.0000 0.09355  0.84614  0.49673  Biso   1.000  N
  N2       1.0000 0.90645  0.34614  0.00327  Biso   1.000  N
  N3       1.0000 0.90645  0.15386  0.50327  Biso   1.000  N
  N4       1.0000 0.09355  0.65386  0.99673  Biso   1.000  N
  N5       1.0000 0.09498  0.78460  0.40506  Biso   1.000  N
  N6       1.0000 0.90502  0.28460  0.09494  Biso   1.000  N
  N7       1.0000 0.90502  0.21540  0.59494  Biso   1.000  N
  N8       1.0000 0.09498  0.71540  0.90506  Biso   1.000  N
  N9       1.0000 0.21615  0.81251  0.49455  Biso   1.000  N
  N10      1.0000 0.78385  0.31251  0.00545  Biso   1.000  N
  N11      1.0000 0.78385  0.18749  0.50545  Biso   1.000  N
  N12      1.0000 0.21615  0.68749  0.99455  Biso   1.000  N
  N13      1.0000 0.41317  0.89456  0.52164  Biso   1.000  N
  N14      1.0000 0.58683  0.39456  0.97836  Biso   1.000  N
  N15      1.0000 0.58683  0.10544  0.47836  Biso   1.000  N
  N16      1.0000 0.41317  0.60544  0.02164  Biso   1.000  N
  N17      1.0000 0.42241  0.81552  0.60304  Biso   1.000  N
  N18      1.0000 0.57759  0.31552  0.89696  Biso   1.000  N
  N19      1.0000 0.57759  0.18448  0.39696  Biso   1.000  N
  N20      1.0000 0.42241  0.68448  0.10304  Biso   1.000  N
  N21      1.0000 0.29801  0.82392  0.51925  Biso   1.000  N
  N22      1.0000 0.70199  0.32392  0.98075  Biso   1.000  N
  N23      1.0000 0.70199  0.17608  0.48075  Biso   1.000  N
  N24      1.0000 0.29801  0.67608  0.01925  Biso   1.000  N
  N25      1.0000 0.06095  0.04854  0.64583  Biso   1.000  N
  N26      1.0000 0.93905  0.54854  0.85417  Biso   1.000  N
  N27      1.0000 0.93905  0.95146  0.35417  Biso   1.000  N
  N28      1.0000 0.06095  0.45146  0.14583  Biso   1.000  N
  N29      1.0000 0.07160  0.97951  0.73484  Biso   1.000  N
  N30      1.0000 0.92840  0.47951  0.76516  Biso   1.000  N
  N31      1.0000 0.92840  0.02049  0.26516  Biso   1.000  N
  N32      1.0000 0.07160  0.52049  0.23484  Biso   1.000  N
  N33      1.0000 0.09218  0.15725  0.78237  Biso   1.000  N
  N34      1.0000 0.90782  0.65725  0.71763  Biso   1.000  N
  N35      1.0000 0.90782  0.84275  0.21763  Biso   1.000  N
  N36      1.0000 0.09218  0.34275  0.28237  Biso   1.000  N
  N37      1.0000 0.06520  0.38925  0.93634  Biso   1.000  N
  N38      1.0000 0.93480  0.88925  0.56366  Biso   1.000  N
  N39      1.0000 0.93480  0.61075  0.06366  Biso   1.000  N
  N40      1.0000 0.06520  0.11075  0.43634  Biso   1.000  N
  N41      1.0000 0.14561  0.40319  0.93827  Biso   1.000  N
  N42      1.0000 0.85439  0.90319  0.56173  Biso   1.000  N
  N43      1.0000 0.85439  0.59681  0.06173  Biso   1.000  N
  N44      1.0000 0.14561  0.09681  0.43827  Biso   1.000  N
  N45      1.0000 0.09860  0.25433  0.84334  Biso   1.000  N
  N46      1.0000 0.90140  0.75433  0.65666  Biso   1.000  N
  N47      1.0000 0.90140  0.74567  0.15666  Biso   1.000  N
  N48      1.0000 0.09860  0.24567  0.34334  Biso   1.000  N
  N49      1.0000 0.43913  0.13809  0.53429  Biso   1.000  N
  N50      1.0000 0.56087  0.63809  0.96571  Biso   1.000  N
  N51      1.0000 0.56087  0.86191  0.46571  Biso   1.000  N
  N52      1.0000 0.43913  0.36191  0.03429  Biso   1.000  N
  N53      1.0000 0.35662  0.14450  0.51536  Biso   1.000  N
  N54      1.0000 0.64338  0.64450  0.98464  Biso   1.000  N
  N55      1.0000 0.64338  0.85550  0.48464  Biso   1.000  N
  N56      1.0000 0.35662  0.35550  0.01536  Biso   1.000  N
  N57      1.0000 0.40928  0.28816  0.61193  Biso   1.000  N
  N58      1.0000 0.59072  0.78816  0.88807  Biso   1.000  N
  N59      1.0000 0.59072  0.71184  0.38807  Biso   1.000  N
  N60      1.0000 0.40928  0.21184  0.11193  Biso   1.000  N
  N61      1.0000 0.42740  0.48306  0.81850  Biso   1.000  N
  N62      1.0000 0.57260  0.98306  0.68150  Biso   1.000  N
  N63      1.0000 0.57260  0.51694  0.18150  Biso   1.000  N
  N64      1.0000 0.42740  0.01694  0.31850  Biso   1.000  N
  N65      1.0000 0.43551  0.55560  0.73697  Biso   1.000  N
  N66      1.0000 0.56449  0.05560  0.76303  Biso   1.000  N
  N67      1.0000 0.56449  0.44440  0.26303  Biso   1.000  N
  N68      1.0000 0.43551  0.94440  0.23697  Biso   1.000  N
  N69      1.0000 0.41695  0.38267  0.67674  Biso   1.000  N
  N70      1.0000 0.58305  0.88267  0.82326  Biso   1.000  N
  N71      1.0000 0.58305  0.61733  0.32326  Biso   1.000  N
  N72      1.0000 0.41695  0.11733  0.17674  Biso   1.000  N
  C1       1.0000 0.16646  0.86210  0.54800  Biso   1.000  C
  C2       1.0000 0.83354  0.36210  0.95200  Biso   1.000  C
  C3       1.0000 0.83354  0.13790  0.45200  Biso   1.000  C
  C4       1.0000 0.16646  0.63790  0.04800  Biso   1.000  C
  H1       1.0000 0.18270  0.90240  0.61290  Biso   1.000  H
  H2       1.0000 0.81730  0.40240  0.88710  Biso   1.000  H
  H3       1.0000 0.81730  0.09760  0.38710  Biso   1.000  H
  H4       1.0000 0.18270  0.59760  0.11290  Biso   1.000  H
  C5       1.0000 0.16884  0.76580  0.40570  Biso   1.000  C
  C6       1.0000 0.83116  0.26580  0.09430  Biso   1.000  C
  C7       1.0000 0.83116  0.23420  0.59430  Biso   1.000  C
  C8       1.0000 0.16884  0.73420  0.90570  Biso   1.000  C
  H5       1.0000 0.18730  0.72570  0.35260  Biso   1.000  H
  H6       1.0000 0.81270  0.22570  0.14740  Biso   1.000  H
  H7       1.0000 0.81270  0.27430  0.64740  Biso   1.000  H
  H8       1.0000 0.18730  0.77430  0.85260  Biso   1.000  H
  C9       1.0000 0.35235  0.77480  0.59990  Biso   1.000  C
  C10      1.0000 0.64765  0.27480  0.90010  Biso   1.000  C
  C11      1.0000 0.64765  0.22520  0.40010  Biso   1.000  C
  C12      1.0000 0.35235  0.72520  0.09990  Biso   1.000  C
  H9       1.0000 0.34060  0.71880  0.64690  Biso   1.000  H
  H10      1.0000 0.65940  0.21880  0.85310  Biso   1.000  H
  H11      1.0000 0.65940  0.28120  0.35310  Biso   1.000  H
  H12      1.0000 0.34060  0.78120  0.14690  Biso   1.000  H
  C13      1.0000 0.33855  0.89820  0.47230  Biso   1.000  C
  C14      1.0000 0.66145  0.39820  0.02770  Biso   1.000  C
  C15      1.0000 0.66145  0.10180  0.52770  Biso   1.000  C
  C16      1.0000 0.33855  0.60180  0.97230  Biso   1.000  C
  H13      1.0000 0.31620  0.94520  0.41320  Biso   1.000  H
  H14      1.0000 0.68380  0.44520  0.08680  Biso   1.000  H
  H15      1.0000 0.68380  0.05480  0.58680  Biso   1.000  H
  H16      1.0000 0.31620  0.55480  0.91320  Biso   1.000  H
  C17      1.0000 0.07361  0.15390  0.67540  Biso   1.000  C
  C18      1.0000 0.92639  0.65390  0.82460  Biso   1.000  C
  C19      1.0000 0.92639  0.84610  0.32460  Biso   1.000  C
  C20      1.0000 0.07361  0.34610  0.17540  Biso   1.000  C
  H17      1.0000 0.07040  0.21810  0.62980  Biso   1.000  H
  H18      1.0000 0.92960  0.71810  0.87020  Biso   1.000  H
  H19      1.0000 0.92960  0.78190  0.37020  Biso   1.000  H
  H20      1.0000 0.07040  0.28190  0.12980  Biso   1.000  H
  C21      1.0000 0.08960  0.04670  0.81560  Biso   1.000  C
  C22      1.0000 0.91040  0.54670  0.68440  Biso   1.000  C
  C23      1.0000 0.91040  0.95330  0.18440  Biso   1.000  C
  C24      1.0000 0.08960  0.45330  0.31560  Biso   1.000  C
  H21      1.0000 0.09960  0.02300  0.88740  Biso   1.000  H
  H22      1.0000 0.90040  0.52300  0.61260  Biso   1.000  H
  H23      1.0000 0.90040  0.97700  0.11260  Biso   1.000  H
  H24      1.0000 0.09960  0.47700  0.38740  Biso   1.000  H
  C25      1.0000 0.03837  0.30020  0.88000  Biso   1.000  C
  C26      1.0000 0.96163  0.80020  0.62000  Biso   1.000  C
  C27      1.0000 0.96163  0.69980  0.12000  Biso   1.000  C
  C28      1.0000 0.03837  0.19980  0.38000  Biso   1.000  C
  H25      1.0000 0.98530  0.27180  0.86660  Biso   1.000  H
  H26      1.0000 0.01470  0.77180  0.63340  Biso   1.000  H
  H27      1.0000 0.01470  0.72820  0.13340  Biso   1.000  H
  H28      1.0000 0.98530  0.22820  0.36660  Biso   1.000  H
  C29      1.0000 0.16398  0.32070  0.88200  Biso   1.000  C
  C30      1.0000 0.83602  0.82070  0.61800  Biso   1.000  C
  C31      1.0000 0.83602  0.67930  0.11800  Biso   1.000  C
  C32      1.0000 0.16398  0.17930  0.38200  Biso   1.000  C
  H29      1.0000 0.21540  0.30830  0.86940  Biso   1.000  H
  H30      1.0000 0.78460  0.80830  0.63060  Biso   1.000  H
  H31      1.0000 0.78460  0.69170  0.13060  Biso   1.000  H
  H32      1.0000 0.21540  0.19170  0.36940  Biso   1.000  H
  C33      1.0000 0.47000  0.22520  0.59234  Biso   1.000  C
  C34      1.0000 0.53000  0.72520  0.90766  Biso   1.000  C
  C35      1.0000 0.53000  0.77480  0.40766  Biso   1.000  C
  C36      1.0000 0.47000  0.27480  0.09234  Biso   1.000  C
  H33      1.0000 0.52530  0.24150  0.61650  Biso   1.000  H
  H34      1.0000 0.47470  0.74150  0.88350  Biso   1.000  H
  H35      1.0000 0.47470  0.75850  0.38350  Biso   1.000  H
  H36      1.0000 0.52530  0.25850  0.11650  Biso   1.000  H
  C37      1.0000 0.34058  0.23450  0.56390  Biso   1.000  C
  C38      1.0000 0.65942  0.73450  0.93610  Biso   1.000  C
  C39      1.0000 0.65942  0.76550  0.43610  Biso   1.000  C
  C40      1.0000 0.34058  0.26550  0.06390  Biso   1.000  C
  H37      1.0000 0.28850  0.25940  0.56570  Biso   1.000  H
  H38      1.0000 0.71150  0.75940  0.93430  Biso   1.000  H
  H39      1.0000 0.71150  0.74060  0.43430  Biso   1.000  H
  H40      1.0000 0.28850  0.24060  0.06570  Biso   1.000  H
  C41      1.0000 0.41621  0.38130  0.78000  Biso   1.000  C
  C42      1.0000 0.58379  0.88130  0.72000  Biso   1.000  C
  C43      1.0000 0.58379  0.61870  0.22000  Biso   1.000  C
  C44      1.0000 0.41621  0.11870  0.28000  Biso   1.000  C
  H41      1.0000 0.40860  0.31500  0.81870  Biso   1.000  H
  H42      1.0000 0.59140  0.81500  0.68130  Biso   1.000  H
  H43      1.0000 0.59140  0.68500  0.18130  Biso   1.000  H
  H44      1.0000 0.40860  0.18500  0.31870  Biso   1.000  H
  C45      1.0000 0.42880  0.49390  0.65280  Biso   1.000  C
  C46      1.0000 0.57120  0.99390  0.84720  Biso   1.000  C
  C47      1.0000 0.57120  0.50610  0.34720  Biso   1.000  C
  C48      1.0000 0.42880  0.00610  0.15280  Biso   1.000  C
  H45      1.0000 0.43160  0.52160  0.58520  Biso   1.000  H
  H46      1.0000 0.56840  0.02160  0.91480  Biso   1.000  H
  H47      1.0000 0.56840  0.47840  0.41480  Biso   1.000  H
  H48      1.0000 0.43160  0.97840  0.08520  Biso   1.000  H
  O1       1.0000 0.28048  0.85810  0.78220  Biso   1.000  O
  O2       1.0000 0.71952  0.35810  0.71780  Biso   1.000  O
  O3       1.0000 0.71952  0.14190  0.21780  Biso   1.000  O
  O4       1.0000 0.28048  0.64190  0.28220  Biso   1.000  O
  O5       1.0000 0.39070  0.88660  0.91110  Biso   1.000  O
  O6       1.0000 0.60930  0.38660  0.58890  Biso   1.000  O
  O7       1.0000 0.60930  0.11340  0.08890  Biso   1.000  O
  O8       1.0000 0.39070  0.61340  0.41110  Biso   1.000  O
  C49      1.0000 0.33330  0.91460  0.83960  Biso   1.000  C
  C50      1.0000 0.66670  0.41460  0.66040  Biso   1.000  C
  C51      1.0000 0.66670  0.08540  0.16040  Biso   1.000  C
  C52      1.0000 0.33330  0.58540  0.33960  Biso   1.000  C
  C53      1.0000 0.31930  0.04030  0.82300  Biso   1.000  C
  C54      1.0000 0.68070  0.54030  0.67700  Biso   1.000  C
  C55      1.0000 0.68070  0.95970  0.17700  Biso   1.000  C
  C56      1.0000 0.31930  0.45970  0.32300  Biso   1.000  C
  F1       1.0000 0.38340  0.10410  0.83400  Biso   1.000  F
  F2       1.0000 0.61660  0.60410  0.66600  Biso   1.000  F
  F3       1.0000 0.61660  0.89590  0.16600  Biso   1.000  F
  F4       1.0000 0.38340  0.39590  0.33400  Biso   1.000  F
  F5       1.0000 0.27280  0.06500  0.72790  Biso   1.000  F
  F6       1.0000 0.72720  0.56500  0.77210  Biso   1.000  F
  F7       1.0000 0.72720  0.93500  0.27210  Biso   1.000  F
  F8       1.0000 0.27280  0.43500  0.22790  Biso   1.000  F
  F9       1.0000 0.28090  0.08280  0.89350  Biso   1.000  F
  F10      1.0000 0.71910  0.58280  0.60650  Biso   1.000  F
  F11      1.0000 0.71910  0.91720  0.10650  Biso   1.000  F
  F12      1.0000 0.28090  0.41720  0.39350  Biso   1.000  F
  O9       1.0000 0.21810  0.33750  0.67920  Biso   1.000  O
  O10      1.0000 0.78190  0.83750  0.82080  Biso   1.000  O
  O11      1.0000 0.78190  0.66250  0.32080  Biso   1.000  O
  O12      1.0000 0.21810  0.16250  0.17920  Biso   1.000  O
  O13      1.0000 0.10870  0.37790  0.55080  Biso   1.000  O
  O14      1.0000 0.89130  0.87790  0.94920  Biso   1.000  O
  O15      1.0000 0.89130  0.62210  0.44920  Biso   1.000  O
  O16      1.0000 0.10870  0.12210  0.05080  Biso   1.000  O
  C57      1.0000 0.17090  0.39850  0.61940  Biso   1.000  C
  C58      1.0000 0.82910  0.89850  0.88060  Biso   1.000  C
  C59      1.0000 0.82910  0.60150  0.38060  Biso   1.000  C
  C60      1.0000 0.17090  0.10150  0.11940  Biso   1.000  C
  C61      1.0000 0.17470  0.52840  0.64310  Biso   1.000  C
  C62      1.0000 0.82530  0.02840  0.85690  Biso   1.000  C
  C63      1.0000 0.82530  0.47160  0.35690  Biso   1.000  C
  C64      1.0000 0.17470  0.97160  0.14310  Biso   1.000  C
  F13      1.0000 0.21100  0.55010  0.74430  Biso   1.000  F
  F14      1.0000 0.78900  0.05010  0.75570  Biso   1.000  F
  F15      1.0000 0.78900  0.44990  0.25570  Biso   1.000  F
  F16      1.0000 0.21100  0.94990  0.24430  Biso   1.000  F
  F17      1.0000 0.10770  0.58440  0.62910  Biso   1.000  F
  F18      1.0000 0.89230  0.08440  0.87090  Biso   1.000  F
  F19      1.0000 0.89230  0.41560  0.37090  Biso   1.000  F
  F20      1.0000 0.10770  0.91560  0.12910  Biso   1.000  F
  F21      1.0000 0.21560  0.57950  0.58070  Biso   1.000  F
  F22      1.0000 0.78440  0.07950  0.91930  Biso   1.000  F
  F23      1.0000 0.78440  0.42050  0.41930  Biso   1.000  F
  F24      1.0000 0.21560  0.92050  0.08070  Biso   1.000  F
  C65      1.0000 0.33690  0.04100  0.81710  Biso   1.000  C
  C66      1.0000 0.66310  0.54100  0.68290  Biso   1.000  C
  C67      1.0000 0.66310  0.95900  0.18290  Biso   1.000  C
  C68      1.0000 0.33690  0.45900  0.31710  Biso   1.000  C
  C69      1.0000 0.18250  0.41610  0.62710  Biso   1.000  C
  C70      1.0000 0.81750  0.91610  0.87290  Biso   1.000  C
  C71      1.0000 0.81750  0.58390  0.37290  Biso   1.000  C
  C72      1.0000 0.18250  0.08390  0.12710  Biso   1.000  C
  C73      1.0000 0.15830  0.52890  0.64930  Biso   1.000  C
  C74      1.0000 0.84170  0.02890  0.85070  Biso   1.000  C
  C75      1.0000 0.84170  0.47110  0.35070  Biso   1.000  C
  C76      1.0000 0.15830  0.97110  0.14930  Biso   1.000  C
  F25      1.0000 0.38690  0.09880  0.89480  Biso   1.000  F
  F26      1.0000 0.61310  0.59880  0.60520  Biso   1.000  F
  F27      1.0000 0.61310  0.90120  0.10520  Biso   1.000  F
  F28      1.0000 0.38690  0.40120  0.39480  Biso   1.000  F
  F29      1.0000 0.26900  0.09710  0.79820  Biso   1.000  F
  F30      1.0000 0.73100  0.59710  0.70180  Biso   1.000  F
  F31      1.0000 0.73100  0.90290  0.20180  Biso   1.000  F
  F32      1.0000 0.26900  0.40290  0.29820  Biso   1.000  F
  F33      1.0000 0.36700  0.05980  0.73280  Biso   1.000  F
  F34      1.0000 0.63300  0.55980  0.76720  Biso   1.000  F
  F35      1.0000 0.63300  0.94020  0.26720  Biso   1.000  F
  F36      1.0000 0.36700  0.44020  0.23280  Biso   1.000  F
  F37      1.0000 0.10660  0.52600  0.70930  Biso   1.000  F
  F38      1.0000 0.89340  0.02600  0.79070  Biso   1.000  F
  F39      1.0000 0.89340  0.47400  0.29070  Biso   1.000  F
  F40      1.0000 0.10660  0.97400  0.20930  Biso   1.000  F
  F41      1.0000 0.12310  0.58660  0.56350  Biso   1.000  F
  F42      1.0000 0.87690  0.08660  0.93650  Biso   1.000  F
  F43      1.0000 0.87690  0.41340  0.43650  Biso   1.000  F
  F44      1.0000 0.12310  0.91340  0.06350  Biso   1.000  F
  F45      1.0000 0.22040  0.59280  0.69770  Biso   1.000  F
  F46      1.0000 0.77960  0.09280  0.80230  Biso   1.000  F
  F47      1.0000 0.77960  0.40720  0.30230  Biso   1.000  F
  F48      1.0000 0.22040  0.90720  0.19770  Biso   1.000  F
  O17      1.0000 0.23640  0.37500  0.69700  Biso   1.000  O
  O18      1.0000 0.76360  0.87500  0.80300  Biso   1.000  O
  O19      1.0000 0.76360  0.62500  0.30300  Biso   1.000  O
  O20      1.0000 0.23640  0.12500  0.19700  Biso   1.000  O
  O21      1.0000 0.15300  0.36160  0.54670  Biso   1.000  O
  O22      1.0000 0.84700  0.86160  0.95330  Biso   1.000  O
  O23      1.0000 0.84700  0.63840  0.45330  Biso   1.000  O
  O24      1.0000 0.15300  0.13840  0.04670  Biso   1.000  O
