data_image0
_cell_length_a       8.298
_cell_length_b       10.206
_cell_length_c       16.135
_cell_angle_alpha    90
_cell_angle_beta     90
_cell_angle_gamma    90

_symmetry_space_group_name_H-M    "P 1"
_symmetry_int_tables_number       1

loop_
  _symmetry_equiv_pos_as_xyz
  'x, y, z'

loop_
  _atom_site_label
  _atom_site_occupancy
  _atom_site_fract_x
  _atom_site_fract_y
  _atom_site_fract_z
  _atom_site_thermal_displace_type
  _atom_site_B_iso_or_equiv
  _atom_site_type_symbol
  Cu1      1.0000 0.35129  0.55825  0.00449  Biso   1.000  Cu
  Cu2      1.0000 0.14871  0.44175  0.50449  Biso   1.000  Cu
  Cu3      1.0000 0.85129  0.94175  0.99551  Biso   1.000  Cu
  Cu4      1.0000 0.64871  0.05825  0.49551  Biso   1.000  Cu
  S1       1.0000 0.58887  0.70928  0.88002  Biso   1.000  S
  S2       1.0000 0.91113  0.29072  0.38002  Biso   1.000  S
  S3       1.0000 0.08887  0.79072  0.11998  Biso   1.000  S
  S4       1.0000 0.41113  0.20928  0.61998  Biso   1.000  S
  O1       1.0000 0.73230  0.77324  0.91416  Biso   1.000  O
  O2       1.0000 0.76770  0.22676  0.41416  Biso   1.000  O
  O3       1.0000 0.23230  0.72676  0.08584  Biso   1.000  O
  O4       1.0000 0.26770  0.27324  0.58584  Biso   1.000  O
  O5       1.0000 0.52480  0.78803  0.81002  Biso   1.000  O
  O6       1.0000 0.97520  0.21197  0.31002  Biso   1.000  O
  O7       1.0000 0.02480  0.71197  0.18998  Biso   1.000  O
  O8       1.0000 0.47520  0.28803  0.68998  Biso   1.000  O
  O9       1.0000 0.46190  0.70412  0.94557  Biso   1.000  O
  O10      1.0000 0.03810  0.29588  0.44557  Biso   1.000  O
  O11      1.0000 0.96190  0.79588  0.05443  Biso   1.000  O
  O12      1.0000 0.53810  0.20412  0.55443  Biso   1.000  O
  O13      1.0000 0.62510  0.57690  0.85090  Biso   1.000  O
  O14      1.0000 0.87490  0.42310  0.35090  Biso   1.000  O
  O15      1.0000 0.12510  0.92310  0.14910  Biso   1.000  O
  O16      1.0000 0.37490  0.07690  0.64910  Biso   1.000  O
  N1       1.0000 0.95840  0.51710  0.85292  Biso   1.000  N
  N2       1.0000 0.54160  0.48290  0.35292  Biso   1.000  N
  N3       1.0000 0.45840  0.98290  0.14708  Biso   1.000  N
  N4       1.0000 0.04160  0.01710  0.64708  Biso   1.000  N
  C1       1.0000 0.57840  0.41110  0.11954  Biso   1.000  C
  C2       1.0000 0.92160  0.58890  0.61954  Biso   1.000  C
  C3       1.0000 0.07840  0.08890  0.88046  Biso   1.000  C
  C4       1.0000 0.42160  0.91110  0.38046  Biso   1.000  C
  H1       1.0000 0.51430  0.33650  0.12200  Biso   1.000  H
  H2       1.0000 0.98570  0.66350  0.62200  Biso   1.000  H
  H3       1.0000 0.01430  0.16350  0.87800  Biso   1.000  H
  H4       1.0000 0.48570  0.83650  0.37800  Biso   1.000  H
  N5       1.0000 0.77140  0.55050  0.13984  Biso   1.000  N
  N6       1.0000 0.72860  0.44950  0.63984  Biso   1.000  N
  N7       1.0000 0.27140  0.94950  0.86016  Biso   1.000  N
  N8       1.0000 0.22860  0.05050  0.36016  Biso   1.000  N
  N9       1.0000 0.54440  0.52200  0.07341  Biso   1.000  N
  N10      1.0000 0.95560  0.47800  0.57341  Biso   1.000  N
  N11      1.0000 0.04440  0.97800  0.92659  Biso   1.000  N
  N12      1.0000 0.45560  0.02200  0.42659  Biso   1.000  N
  N13      1.0000 0.11910  0.31010  0.16606  Biso   1.000  N
  N14      1.0000 0.38090  0.68990  0.66606  Biso   1.000  N
  N15      1.0000 0.61910  0.18990  0.83394  Biso   1.000  N
  N16      1.0000 0.88090  0.81010  0.33394  Biso   1.000  N
  N17      1.0000 0.23050  0.42070  0.06609  Biso   1.000  N
  N18      1.0000 0.26950  0.57930  0.56609  Biso   1.000  N
  N19      1.0000 0.73050  0.07930  0.93391  Biso   1.000  N
  N20      1.0000 0.76950  0.92070  0.43391  Biso   1.000  N
  C5       1.0000 0.17440  0.42710  0.14216  Biso   1.000  C
  C6       1.0000 0.32560  0.57290  0.64216  Biso   1.000  C
  C7       1.0000 0.67440  0.07290  0.85784  Biso   1.000  C
  C8       1.0000 0.82560  0.92710  0.35784  Biso   1.000  C
  H5       1.0000 0.17340  0.50230  0.17470  Biso   1.000  H
  H6       1.0000 0.32660  0.49770  0.67470  Biso   1.000  H
  H7       1.0000 0.67340  0.99770  0.82530  Biso   1.000  H
  H8       1.0000 0.82660  0.00230  0.32530  Biso   1.000  H
  C9       1.0000 0.21050  0.29260  0.04123  Biso   1.000  C
  C10      1.0000 0.28950  0.70740  0.54123  Biso   1.000  C
  C11      1.0000 0.71050  0.20740  0.95877  Biso   1.000  C
  C12      1.0000 0.78950  0.79260  0.45877  Biso   1.000  C
  H9       1.0000 0.23950  0.25870  0.98990  Biso   1.000  H
  H10      1.0000 0.26050  0.74130  0.48990  Biso   1.000  H
  H11      1.0000 0.73950  0.24130  0.01010  Biso   1.000  H
  H12      1.0000 0.76050  0.75870  0.51010  Biso   1.000  H
  N21      1.0000 0.19210  0.53790  0.91352  Biso   1.000  N
  N22      1.0000 0.30790  0.46210  0.41352  Biso   1.000  N
  N23      1.0000 0.69210  0.96210  0.08648  Biso   1.000  N
  N24      1.0000 0.80790  0.03790  0.58648  Biso   1.000  N
  C13      1.0000 0.14200  0.22440  0.10360  Biso   1.000  C
  C14      1.0000 0.35800  0.77560  0.60360  Biso   1.000  C
  C15      1.0000 0.64200  0.27560  0.89640  Biso   1.000  C
  C16      1.0000 0.85800  0.72440  0.39640  Biso   1.000  C
  H13      1.0000 0.11580  0.13580  0.10350  Biso   1.000  H
  H14      1.0000 0.38420  0.86420  0.60350  Biso   1.000  H
  H15      1.0000 0.61580  0.36420  0.89650  Biso   1.000  H
  H16      1.0000 0.88420  0.63580  0.39650  Biso   1.000  H
  C17      1.0000 0.06610  0.45300  0.80451  Biso   1.000  C
  C18      1.0000 0.43390  0.54700  0.30451  Biso   1.000  C
  C19      1.0000 0.56610  0.04700  0.19549  Biso   1.000  C
  C20      1.0000 0.93390  0.95300  0.69549  Biso   1.000  C
  H17      1.0000 0.04470  0.40910  0.75520  Biso   1.000  H
  H18      1.0000 0.45530  0.59090  0.25520  Biso   1.000  H
  H19      1.0000 0.54470  0.09090  0.24480  Biso   1.000  H
  H20      1.0000 0.95530  0.90910  0.74480  Biso   1.000  H
  C21      1.0000 0.03680  0.56530  0.91799  Biso   1.000  C
  C22      1.0000 0.46320  0.43470  0.41799  Biso   1.000  C
  C23      1.0000 0.53680  0.93470  0.08201  Biso   1.000  C
  C24      1.0000 0.96320  0.06530  0.58201  Biso   1.000  C
  H21      1.0000 0.98870  0.61210  0.96090  Biso   1.000  H
  H22      1.0000 0.51130  0.38790  0.46090  Biso   1.000  H
  H23      1.0000 0.48870  0.88790  0.03910  Biso   1.000  H
  H24      1.0000 0.01130  0.11210  0.53910  Biso   1.000  H
  C25      1.0000 0.71810  0.42770  0.16028  Biso   1.000  C
  C26      1.0000 0.78190  0.57230  0.66028  Biso   1.000  C
  C27      1.0000 0.21810  0.07230  0.83972  Biso   1.000  C
  C28      1.0000 0.28190  0.92770  0.33972  Biso   1.000  C
  H25      1.0000 0.76840  0.36800  0.19530  Biso   1.000  H
  H26      1.0000 0.73160  0.63200  0.69530  Biso   1.000  H
  H27      1.0000 0.26840  0.13200  0.80470  Biso   1.000  H
  H28      1.0000 0.23160  0.86800  0.30470  Biso   1.000  H
  C29      1.0000 0.66580  0.60280  0.08781  Biso   1.000  C
  C30      1.0000 0.83420  0.39720  0.58781  Biso   1.000  C
  C31      1.0000 0.16580  0.89720  0.91219  Biso   1.000  C
  C32      1.0000 0.33420  0.10280  0.41219  Biso   1.000  C
  H29      1.0000 0.67580  0.68570  0.06440  Biso   1.000  H
  H30      1.0000 0.82420  0.31430  0.56440  Biso   1.000  H
  H31      1.0000 0.17580  0.81430  0.93560  Biso   1.000  H
  H32      1.0000 0.32420  0.18570  0.43560  Biso   1.000  H
  C33      1.0000 0.21150  0.46560  0.84230  Biso   1.000  C
  C34      1.0000 0.28850  0.53440  0.34230  Biso   1.000  C
  C35      1.0000 0.71150  0.03440  0.15770  Biso   1.000  C
  C36      1.0000 0.78850  0.96560  0.65770  Biso   1.000  C
  H33      1.0000 0.30820  0.43100  0.82320  Biso   1.000  H
  H34      1.0000 0.19180  0.56900  0.32320  Biso   1.000  H
  H35      1.0000 0.80820  0.06900  0.17680  Biso   1.000  H
  H36      1.0000 0.69180  0.93100  0.67680  Biso   1.000  H
  H37      1.0000 0.85600  0.59400  0.15500  Biso   1.000  H
  H38      1.0000 0.64400  0.40600  0.65500  Biso   1.000  H
  H39      1.0000 0.35600  0.90600  0.84500  Biso   1.000  H
  H40      1.0000 0.14400  0.09400  0.34500  Biso   1.000  H
  H41      1.0000 0.85500  0.52600  0.85300  Biso   1.000  H
  H42      1.0000 0.64500  0.47400  0.35300  Biso   1.000  H
  H43      1.0000 0.35500  0.97400  0.14700  Biso   1.000  H
  H44      1.0000 0.14500  0.02600  0.64700  Biso   1.000  H
  H45      1.0000 0.07800  0.29700  0.21600  Biso   1.000  H
  H46      1.0000 0.42200  0.70300  0.71600  Biso   1.000  H
  H47      1.0000 0.57800  0.20300  0.78400  Biso   1.000  H
  H48      1.0000 0.92200  0.79700  0.28400  Biso   1.000  H
