data_image0
_cell_length_a       8.325
_cell_length_b       10.165
_cell_length_c       22.437
_cell_angle_alpha    89.999
_cell_angle_beta     91.06
_cell_angle_gamma    90.037

_symmetry_space_group_name_H-M    "P 1"
_symmetry_int_tables_number       1

loop_
  _symmetry_equiv_pos_as_xyz
  'x, y, z'

loop_
  _atom_site_label
  _atom_site_occupancy
  _atom_site_fract_x
  _atom_site_fract_y
  _atom_site_fract_z
  _atom_site_thermal_displace_type
  _atom_site_B_iso_or_equiv
  _atom_site_type_symbol
  Cu1      1.0000 0.00008  0.99996  0.75002  Biso   1.000  Cu
  Cu2      1.0000 0.99992  0.00004  0.24998  Biso   1.000  Cu
  Cu3      1.0000 0.50000  0.50000  0.00000  Biso   1.000  Cu
  N1       1.0000 0.02890  0.21520  0.59337  Biso   1.000  N
  N2       1.0000 0.97110  0.78480  0.40663  Biso   1.000  N
  H1       1.0000 0.00320  0.24590  0.55880  Biso   1.000  H
  H2       1.0000 0.99680  0.75410  0.44120  Biso   1.000  H
  N3       1.0000 0.01080  0.11150  0.67864  Biso   1.000  N
  N4       1.0000 0.98920  0.88850  0.32136  Biso   1.000  N
  N5       1.0000 0.97170  0.78610  0.90620  Biso   1.000  N
  N6       1.0000 0.02830  0.21390  0.09380  Biso   1.000  N
  H3       1.0000 0.99630  0.75660  0.94110  Biso   1.000  H
  H4       1.0000 0.00370  0.24340  0.05890  Biso   1.000  H
  N7       1.0000 0.99000  0.88760  0.82138  Biso   1.000  N
  N8       1.0000 0.01000  0.11240  0.17862  Biso   1.000  N
  N9       1.0000 0.52960  0.28510  0.84340  Biso   1.000  N
  N10      1.0000 0.47040  0.71490  0.15660  Biso   1.000  N
  H5       1.0000 0.50430  0.25480  0.80870  Biso   1.000  H
  H6       1.0000 0.49570  0.74520  0.19130  Biso   1.000  H
  N11      1.0000 0.51100  0.38810  0.92888  Biso   1.000  N
  N12      1.0000 0.48900  0.61190  0.07112  Biso   1.000  N
  O1       1.0000 0.30090  0.34630  0.54536  Biso   1.000  O
  O2       1.0000 0.69910  0.65370  0.45464  Biso   1.000  O
  O3       1.0000 0.43670  0.32190  0.62970  Biso   1.000  O
  O4       1.0000 0.56330  0.67810  0.37030  Biso   1.000  O
  H7       1.0000 0.42690  0.28030  0.66070  Biso   1.000  H
  H8       1.0000 0.57310  0.71970  0.33930  Biso   1.000  H
  O5       1.0000 0.40020  0.20970  0.73062  Biso   1.000  O
  O6       1.0000 0.59980  0.79030  0.26938  Biso   1.000  O
  O7       1.0000 0.20540  0.09110  0.77192  Biso   1.000  O
  O8       1.0000 0.79460  0.90890  0.22808  Biso   1.000  O
  O9       1.0000 0.79390  0.90760  0.72820  Biso   1.000  O
  O10      1.0000 0.20610  0.09240  0.27180  Biso   1.000  O
  O11      1.0000 0.59940  0.79010  0.76924  Biso   1.000  O
  O12      1.0000 0.40060  0.20990  0.23076  Biso   1.000  O
  O13      1.0000 0.56210  0.67930  0.87034  Biso   1.000  O
  O14      1.0000 0.43790  0.32070  0.12966  Biso   1.000  O
  H9       1.0000 0.56590  0.72850  0.84150  Biso   1.000  H
  H10      1.0000 0.43410  0.27150  0.15850  Biso   1.000  H
  O15      1.0000 0.69990  0.65390  0.95442  Biso   1.000  O
  O16      1.0000 0.30010  0.34610  0.04558  Biso   1.000  O
  O17      1.0000 0.70570  0.40840  0.02178  Biso   1.000  O
  O18      1.0000 0.29430  0.59160  0.97822  Biso   1.000  O
  O19      1.0000 0.90000  0.29010  0.98064  Biso   1.000  O
  O20      1.0000 0.10000  0.70990  0.01936  Biso   1.000  O
  O21      1.0000 0.93760  0.17860  0.87947  Biso   1.000  O
  O22      1.0000 0.06240  0.82140  0.12053  Biso   1.000  O
  H11      1.0000 0.92600  0.21770  0.91110  Biso   1.000  H
  H12      1.0000 0.07400  0.78230  0.08890  Biso   1.000  H
  O23      1.0000 0.80090  0.15400  0.79508  Biso   1.000  O
  O24      1.0000 0.19910  0.84600  0.20492  Biso   1.000  O
  C1       1.0000 0.93420  0.14410  0.62840  Biso   1.000  C
  C2       1.0000 0.06580  0.85590  0.37160  Biso   1.000  C
  C3       1.0000 0.16170  0.16690  0.67540  Biso   1.000  C
  C4       1.0000 0.83830  0.83310  0.32460  Biso   1.000  C
  C5       1.0000 0.17550  0.23040  0.62250  Biso   1.000  C
  C6       1.0000 0.82450  0.76960  0.37750  Biso   1.000  C
  C7       1.0000 0.26450  0.15460  0.72930  Biso   1.000  C
  C8       1.0000 0.73550  0.84540  0.27070  Biso   1.000  C
  C9       1.0000 0.31060  0.30430  0.59590  Biso   1.000  C
  C10      1.0000 0.68940  0.69570  0.40410  Biso   1.000  C
  C11      1.0000 0.76250  0.11040  0.61370  Biso   1.000  C
  C12      1.0000 0.23750  0.88960  0.38630  Biso   1.000  C
  H13      1.0000 0.70140  0.12230  0.64970  Biso   1.000  H
  H14      1.0000 0.29860  0.87770  0.35030  Biso   1.000  H
  H15      1.0000 0.72330  0.17500  0.58510  Biso   1.000  H
  H16      1.0000 0.27670  0.82500  0.41490  Biso   1.000  H
  C13      1.0000 0.72160  0.97650  0.58910  Biso   1.000  C
  C14      1.0000 0.27840  0.02350  0.41090  Biso   1.000  C
  H17      1.0000 0.60590  0.96570  0.58610  Biso   1.000  H
  H18      1.0000 0.39410  0.03430  0.41390  Biso   1.000  H
  H19      1.0000 0.76450  0.90850  0.61520  Biso   1.000  H
  H20      1.0000 0.23550  0.09150  0.38480  Biso   1.000  H
  C15      1.0000 0.79610  0.96580  0.52710  Biso   1.000  C
  C16      1.0000 0.20390  0.03420  0.47290  Biso   1.000  C
  H21      1.0000 0.75770  0.03660  0.50240  Biso   1.000  H
  H22      1.0000 0.24230  0.96340  0.49760  Biso   1.000  H
  H23      1.0000 0.76620  0.88330  0.50930  Biso   1.000  H
  H24      1.0000 0.23380  0.11670  0.49070  Biso   1.000  H
  H25      1.0000 0.91100  0.97090  0.53100  Biso   1.000  H
  H26      1.0000 0.08900  0.02910  0.46900  Biso   1.000  H
  C17      1.0000 0.06990  0.85620  0.87160  Biso   1.000  C
  C18      1.0000 0.93010  0.14380  0.12840  Biso   1.000  C
  C19      1.0000 0.83970  0.83270  0.82430  Biso   1.000  C
  C20      1.0000 0.16030  0.16730  0.17570  Biso   1.000  C
  C21      1.0000 0.82540  0.76860  0.87750  Biso   1.000  C
  C22      1.0000 0.17460  0.23140  0.12250  Biso   1.000  C
  C23      1.0000 0.73410  0.84610  0.77050  Biso   1.000  C
  C24      1.0000 0.26590  0.15390  0.22950  Biso   1.000  C
  C25      1.0000 0.69020  0.69680  0.90420  Biso   1.000  C
  C26      1.0000 0.30980  0.30320  0.09580  Biso   1.000  C
  C27      1.0000 0.24190  0.88330  0.88540  Biso   1.000  C
  C28      1.0000 0.75810  0.11670  0.11460  Biso   1.000  C
  C29      1.0000 0.26820  0.00600  0.91580  Biso   1.000  C
  C30      1.0000 0.73180  0.99400  0.08420  Biso   1.000  C
  H27      1.0000 0.38080  0.01920  0.92070  Biso   1.000  H
  H28      1.0000 0.61920  0.98080  0.07930  Biso   1.000  H
  H29      1.0000 0.22690  0.07600  0.88990  Biso   1.000  H
  H30      1.0000 0.77310  0.92400  0.11010  Biso   1.000  H
  C31      1.0000 0.20300  0.02590  0.97240  Biso   1.000  C
  C32      1.0000 0.79700  0.97410  0.02760  Biso   1.000  C
  H31      1.0000 0.09710  0.98850  0.97330  Biso   1.000  H
  H32      1.0000 0.90290  0.01150  0.02670  Biso   1.000  H
  H33      1.0000 0.19720  0.11850  0.98040  Biso   1.000  H
  H34      1.0000 0.80280  0.88150  0.01960  Biso   1.000  H
  H35      1.0000 0.27020  0.98420  0.00200  Biso   1.000  H
  H36      1.0000 0.72980  0.01580  0.99800  Biso   1.000  H
  C33      1.0000 0.43440  0.35640  0.87820  Biso   1.000  C
  C34      1.0000 0.56560  0.64360  0.12180  Biso   1.000  C
  C35      1.0000 0.66160  0.33270  0.92550  Biso   1.000  C
  C36      1.0000 0.33840  0.66730  0.07450  Biso   1.000  C
  C37      1.0000 0.67420  0.26850  0.87240  Biso   1.000  C
  C38      1.0000 0.32580  0.73150  0.12760  Biso   1.000  C
  C39      1.0000 0.80940  0.19510  0.84550  Biso   1.000  C
  C40      1.0000 0.19060  0.80490  0.15450  Biso   1.000  C
  C41      1.0000 0.76620  0.34470  0.97960  Biso   1.000  C
  C42      1.0000 0.23380  0.65530  0.02040  Biso   1.000  C
  C43      1.0000 0.26310  0.39140  0.86330  Biso   1.000  C
  C44      1.0000 0.73690  0.60860  0.13670  Biso   1.000  C
  H37      1.0000 0.22330  0.32680  0.83490  Biso   1.000  H
  H38      1.0000 0.77670  0.67320  0.16510  Biso   1.000  H
  H39      1.0000 0.20200  0.38010  0.89940  Biso   1.000  H
  H40      1.0000 0.79800  0.61990  0.10060  Biso   1.000  H
  C45      1.0000 0.22290  0.52430  0.83870  Biso   1.000  C
  C46      1.0000 0.77710  0.47570  0.16130  Biso   1.000  C
  H41      1.0000 0.26330  0.59220  0.86540  Biso   1.000  H
  H42      1.0000 0.73670  0.40780  0.13460  Biso   1.000  H
  H43      1.0000 0.10730  0.53410  0.83480  Biso   1.000  H
  H44      1.0000 0.89270  0.46590  0.16520  Biso   1.000  H
  C47      1.0000 0.30080  0.53800  0.77720  Biso   1.000  C
  C48      1.0000 0.69920  0.46200  0.22280  Biso   1.000  C
  H45      1.0000 0.41480  0.52600  0.78130  Biso   1.000  H
  H46      1.0000 0.58520  0.47400  0.21870  Biso   1.000  H
  H47      1.0000 0.27870  0.62400  0.76130  Biso   1.000  H
  H48      1.0000 0.72130  0.37600  0.23870  Biso   1.000  H
  H49      1.0000 0.25720  0.47250  0.75060  Biso   1.000  H
  H50      1.0000 0.74280  0.52750  0.24940  Biso   1.000  H
  Cu4      1.0000 0.50000  0.50000  0.50000  Biso   1.000  Cu
  N13      1.0000 0.48970  0.61200  0.57146  Biso   1.000  N
  N14      1.0000 0.51030  0.38800  0.42854  Biso   1.000  N
  N15      1.0000 0.47170  0.71460  0.65610  Biso   1.000  N
  N16      1.0000 0.52830  0.28540  0.34390  Biso   1.000  N
  H51      1.0000 0.49640  0.74540  0.69080  Biso   1.000  H
  H52      1.0000 0.50360  0.25460  0.30920  Biso   1.000  H
  O25      1.0000 0.19960  0.84550  0.70441  Biso   1.000  O
  O26      1.0000 0.80040  0.15450  0.29559  Biso   1.000  O
  O27      1.0000 0.06220  0.82120  0.62009  Biso   1.000  O
  O28      1.0000 0.93780  0.17880  0.37991  Biso   1.000  O
  H53      1.0000 0.05810  0.76370  0.59450  Biso   1.000  H
  H54      1.0000 0.94190  0.23630  0.40550  Biso   1.000  H
  O29      1.0000 0.09950  0.70990  0.51944  Biso   1.000  O
  O30      1.0000 0.90050  0.29010  0.48056  Biso   1.000  O
  O31      1.0000 0.29400  0.59150  0.47803  Biso   1.000  O
  O32      1.0000 0.70600  0.40850  0.52197  Biso   1.000  O
  C49      1.0000 0.57020  0.64320  0.62170  Biso   1.000  C
  C50      1.0000 0.42980  0.35680  0.37830  Biso   1.000  C
  C51      1.0000 0.32550  0.73070  0.62730  Biso   1.000  C
  C52      1.0000 0.67450  0.26930  0.37270  Biso   1.000  C
  C53      1.0000 0.33920  0.66700  0.57440  Biso   1.000  C
  C54      1.0000 0.66080  0.33300  0.42560  Biso   1.000  C
  C55      1.0000 0.19090  0.80360  0.65430  Biso   1.000  C
  C56      1.0000 0.80910  0.19640  0.34570  Biso   1.000  C
  C57      1.0000 0.23490  0.65410  0.52050  Biso   1.000  C
  C58      1.0000 0.76510  0.34590  0.47950  Biso   1.000  C
  C59      1.0000 0.74190  0.61700  0.63530  Biso   1.000  C
  C60      1.0000 0.25810  0.38300  0.36470  Biso   1.000  C
  C61      1.0000 0.76720  0.49400  0.66630  Biso   1.000  C
  C62      1.0000 0.23280  0.50600  0.33370  Biso   1.000  C
  H55      1.0000 0.72400  0.42460  0.64110  Biso   1.000  H
  H56      1.0000 0.27600  0.57540  0.35890  Biso   1.000  H
  H57      1.0000 0.88230  0.48000  0.66960  Biso   1.000  H
  H58      1.0000 0.11770  0.52000  0.33040  Biso   1.000  H
  C63      1.0000 0.70380  0.47680  0.72340  Biso   1.000  C
  C64      1.0000 0.29620  0.52320  0.27660  Biso   1.000  C
  H59      1.0000 0.71190  0.55790  0.74520  Biso   1.000  H
  H60      1.0000 0.28810  0.44210  0.25480  Biso   1.000  H
  H61      1.0000 0.76310  0.40950  0.74420  Biso   1.000  H
  H62      1.0000 0.23690  0.59050  0.25580  Biso   1.000  H
  H63      1.0000 0.59300  0.45120  0.71980  Biso   1.000  H
  H64      1.0000 0.40700  0.54880  0.28020  Biso   1.000  H
  H65      1.0000 0.70810  0.18920  0.59850  Biso   1.000  H
  H66      1.0000 0.29190  0.81080  0.40150  Biso   1.000  H
  H67      1.0000 0.70890  0.08240  0.64900  Biso   1.000  H
  H68      1.0000 0.29110  0.91760  0.35100  Biso   1.000  H
  C65      1.0000 0.75050  0.00090  0.56700  Biso   1.000  C
  C66      1.0000 0.24950  0.99910  0.43300  Biso   1.000  C
  H69      1.0000 0.81380  0.02480  0.53280  Biso   1.000  H
  H70      1.0000 0.18620  0.97520  0.46720  Biso   1.000  H
  H71      1.0000 0.79500  0.92050  0.58370  Biso   1.000  H
  H72      1.0000 0.20500  0.07950  0.41630  Biso   1.000  H
  C67      1.0000 0.57610  0.97620  0.54670  Biso   1.000  C
  C68      1.0000 0.42390  0.02380  0.45330  Biso   1.000  C
  H73      1.0000 0.50910  0.97010  0.58090  Biso   1.000  H
  H74      1.0000 0.49090  0.02990  0.41910  Biso   1.000  H
  H75      1.0000 0.57010  0.89540  0.52460  Biso   1.000  H
  H76      1.0000 0.42990  0.10460  0.47540  Biso   1.000  H
  H77      1.0000 0.54010  0.04760  0.52180  Biso   1.000  H
  H78      1.0000 0.45990  0.95240  0.47820  Biso   1.000  H
  H79      1.0000 0.17790  0.02090  0.94160  Biso   1.000  H
  H80      1.0000 0.82210  0.97910  0.05840  Biso   1.000  H
  H81      1.0000 0.26670  0.07540  0.88610  Biso   1.000  H
  H82      1.0000 0.73330  0.92460  0.11390  Biso   1.000  H
  C69      1.0000 0.41950  0.02070  0.95270  Biso   1.000  C
  C70      1.0000 0.58050  0.97930  0.04730  Biso   1.000  C
  H83      1.0000 0.41380  0.09970  0.97600  Biso   1.000  H
  H84      1.0000 0.58620  0.90030  0.02400  Biso   1.000  H
  H85      1.0000 0.51020  0.02550  0.92700  Biso   1.000  H
  H86      1.0000 0.48980  0.97450  0.07300  Biso   1.000  H
  H87      1.0000 0.43130  0.94630  0.97880  Biso   1.000  H
  H88      1.0000 0.56870  0.05370  0.02120  Biso   1.000  H
  H89      1.0000 0.20970  0.41870  0.89850  Biso   1.000  H
  H90      1.0000 0.79030  0.58130  0.10150  Biso   1.000  H
  H91      1.0000 0.20880  0.31300  0.84750  Biso   1.000  H
  H92      1.0000 0.79120  0.68700  0.15250  Biso   1.000  H
  C71      1.0000 0.25060  0.49760  0.81560  Biso   1.000  C
  C72      1.0000 0.74940  0.50240  0.18440  Biso   1.000  C
  H93      1.0000 0.31280  0.47140  0.78150  Biso   1.000  H
  H94      1.0000 0.68720  0.52860  0.21850  Biso   1.000  H
  H95      1.0000 0.29630  0.57870  0.83120  Biso   1.000  H
  H96      1.0000 0.70370  0.42130  0.16880  Biso   1.000  H
  C73      1.0000 0.07580  0.52260  0.79540  Biso   1.000  C
  C74      1.0000 0.92420  0.47740  0.20460  Biso   1.000  C
  H97      1.0000 0.02990  0.44240  0.78020  Biso   1.000  H
  H98      1.0000 0.97010  0.55760  0.21980  Biso   1.000  H
  H99      1.0000 0.07340  0.58840  0.76470  Biso   1.000  H
  H100     1.0000 0.92660  0.41160  0.23530  Biso   1.000  H
  H101     1.0000 0.01490  0.55240  0.82870  Biso   1.000  H
  H102     1.0000 0.98510  0.44760  0.17130  Biso   1.000  H
  H103     1.0000 0.76600  0.42110  0.63800  Biso   1.000  H
  H104     1.0000 0.23400  0.57890  0.36200  Biso   1.000  H
  H105     1.0000 0.68110  0.48160  0.69300  Biso   1.000  H
  H106     1.0000 0.31890  0.51840  0.30700  Biso   1.000  H
  C75      1.0000 0.92380  0.48280  0.69970  Biso   1.000  C
  C76      1.0000 0.07620  0.51720  0.30030  Biso   1.000  C
  H107     1.0000 0.96010  0.56880  0.71140  Biso   1.000  H
  H108     1.0000 0.03990  0.43120  0.28860  Biso   1.000  H
  H109     1.0000 0.00210  0.44280  0.67460  Biso   1.000  H
  H110     1.0000 0.99790  0.55720  0.32540  Biso   1.000  H
  H111     1.0000 0.90980  0.42950  0.73460  Biso   1.000  H
  H112     1.0000 0.09020  0.57050  0.26540  Biso   1.000  H
