data_image0
_cell_length_a       8.3116
_cell_length_b       10.1536
_cell_length_c       11.212
_cell_angle_alpha    90
_cell_angle_beta     91.092
_cell_angle_gamma    90

_symmetry_space_group_name_H-M    "P 1"
_symmetry_int_tables_number       1

loop_
  _symmetry_equiv_pos_as_xyz
  'x, y, z'

loop_
  _atom_site_label
  _atom_site_occupancy
  _atom_site_fract_x
  _atom_site_fract_y
  _atom_site_fract_z
  _atom_site_thermal_displace_type
  _atom_site_B_iso_or_equiv
  _atom_site_type_symbol
  Cu1      1.0000 0.00000  0.50000  0.50000  Biso   1.000  Cu
  Cu2      1.0000 0.50000  0.00000  0.00000  Biso   1.000  Cu
  N1       1.0000 0.98900  0.38730  0.64270  Biso   1.000  N
  N2       1.0000 0.51100  0.88730  0.85730  Biso   1.000  N
  N3       1.0000 0.01100  0.61270  0.35730  Biso   1.000  N
  N4       1.0000 0.48900  0.11270  0.14270  Biso   1.000  N
  C1       1.0000 0.06840  0.35580  0.74290  Biso   1.000  C
  C2       1.0000 0.43160  0.85580  0.75710  Biso   1.000  C
  C3       1.0000 0.93160  0.64420  0.25710  Biso   1.000  C
  C4       1.0000 0.56840  0.14420  0.24290  Biso   1.000  C
  C5       1.0000 0.83990  0.33280  0.64910  Biso   1.000  C
  C6       1.0000 0.66010  0.83280  0.85090  Biso   1.000  C
  C7       1.0000 0.16010  0.66720  0.35090  Biso   1.000  C
  C8       1.0000 0.33990  0.16720  0.14910  Biso   1.000  C
  C9       1.0000 0.23890  0.38710  0.77190  Biso   1.000  C
  C10      1.0000 0.26110  0.88710  0.72810  Biso   1.000  C
  C11      1.0000 0.76110  0.61290  0.22810  Biso   1.000  C
  C12      1.0000 0.73890  0.11290  0.27190  Biso   1.000  C
  H1       1.0000 0.28350  0.31500  0.81870  Biso   1.000  H
  H2       1.0000 0.21650  0.81500  0.68130  Biso   1.000  H
  H3       1.0000 0.71650  0.68500  0.18130  Biso   1.000  H
  H4       1.0000 0.78350  0.18500  0.31870  Biso   1.000  H
  H5       1.0000 0.29720  0.39040  0.69790  Biso   1.000  H
  H6       1.0000 0.20280  0.89040  0.80210  Biso   1.000  H
  H7       1.0000 0.70280  0.60960  0.30210  Biso   1.000  H
  H8       1.0000 0.79720  0.10960  0.19790  Biso   1.000  H
  C13      1.0000 0.27040  0.51120  0.83770  Biso   1.000  C
  C14      1.0000 0.22960  0.01120  0.66230  Biso   1.000  C
  C15      1.0000 0.72960  0.48880  0.16230  Biso   1.000  C
  C16      1.0000 0.77040  0.98880  0.33770  Biso   1.000  C
  H9       1.0000 0.38580  0.51970  0.84950  Biso   1.000  H
  H10      1.0000 0.11420  0.01970  0.65050  Biso   1.000  H
  H11      1.0000 0.61420  0.48030  0.15050  Biso   1.000  H
  H12      1.0000 0.88580  0.98030  0.34950  Biso   1.000  H
  H13      1.0000 0.23530  0.58380  0.78740  Biso   1.000  H
  H14      1.0000 0.26470  0.08380  0.71260  Biso   1.000  H
  H15      1.0000 0.76470  0.41620  0.21260  Biso   1.000  H
  H16      1.0000 0.73530  0.91620  0.28740  Biso   1.000  H
  C17      1.0000 0.20180  0.52490  0.94340  Biso   1.000  C
  C18      1.0000 0.29820  0.02490  0.55660  Biso   1.000  C
  C19      1.0000 0.79820  0.47510  0.05660  Biso   1.000  C
  C20      1.0000 0.70180  0.97510  0.44340  Biso   1.000  C
  H17      1.0000 0.08840  0.53950  0.93200  Biso   1.000  H
  H18      1.0000 0.41160  0.03950  0.56800  Biso   1.000  H
  H19      1.0000 0.91160  0.46050  0.06800  Biso   1.000  H
  H20      1.0000 0.58840  0.96050  0.43200  Biso   1.000  H
  H21      1.0000 0.24880  0.59870  0.98470  Biso   1.000  H
  H22      1.0000 0.25120  0.09870  0.51530  Biso   1.000  H
  H23      1.0000 0.75120  0.40130  0.01530  Biso   1.000  H
  H24      1.0000 0.74880  0.90130  0.48470  Biso   1.000  H
  H25      1.0000 0.21870  0.44640  0.98970  Biso   1.000  H
  H26      1.0000 0.28130  0.94640  0.51030  Biso   1.000  H
  H27      1.0000 0.78130  0.55360  0.01030  Biso   1.000  H
  H28      1.0000 0.71870  0.05360  0.48970  Biso   1.000  H
  N5       1.0000 0.97120  0.28540  0.81300  Biso   1.000  N
  N6       1.0000 0.52880  0.78540  0.68700  Biso   1.000  N
  N7       1.0000 0.02880  0.71460  0.18700  Biso   1.000  N
  N8       1.0000 0.47120  0.21460  0.31300  Biso   1.000  N
  H29      1.0000 0.99630  0.25550  0.88270  Biso   1.000  H
  H30      1.0000 0.50370  0.75550  0.61730  Biso   1.000  H
  H31      1.0000 0.00370  0.74450  0.11730  Biso   1.000  H
  H32      1.0000 0.49630  0.24450  0.38270  Biso   1.000  H
  C21      1.0000 0.82520  0.26900  0.75530  Biso   1.000  C
  C22      1.0000 0.67480  0.76900  0.74470  Biso   1.000  C
  C23      1.0000 0.17480  0.73100  0.24470  Biso   1.000  C
  C24      1.0000 0.32520  0.23100  0.25530  Biso   1.000  C
  C25      1.0000 0.69060  0.19620  0.80790  Biso   1.000  C
  C26      1.0000 0.80940  0.69620  0.69210  Biso   1.000  C
  C27      1.0000 0.30940  0.80380  0.19210  Biso   1.000  C
  C28      1.0000 0.19060  0.30380  0.30790  Biso   1.000  C
  O1       1.0000 0.69960  0.15420  0.90950  Biso   1.000  O
  O2       1.0000 0.80040  0.65420  0.59050  Biso   1.000  O
  O3       1.0000 0.30040  0.84580  0.09050  Biso   1.000  O
  O4       1.0000 0.19960  0.34580  0.40950  Biso   1.000  O
  O5       1.0000 0.56280  0.17960  0.73970  Biso   1.000  O
  O6       1.0000 0.93720  0.67960  0.76030  Biso   1.000  O
  O7       1.0000 0.43720  0.82040  0.26030  Biso   1.000  O
  O8       1.0000 0.06280  0.32040  0.23970  Biso   1.000  O
  C29      1.0000 0.73420  0.34510  0.54090  Biso   1.000  C
  C30      1.0000 0.76580  0.84510  0.95910  Biso   1.000  C
  C31      1.0000 0.26580  0.65490  0.45910  Biso   1.000  C
  C32      1.0000 0.23420  0.15490  0.04090  Biso   1.000  C
  O9       1.0000 0.79400  0.40810  0.45610  Biso   1.000  O
  O10      1.0000 0.70600  0.90810  0.04390  Biso   1.000  O
  O11      1.0000 0.20600  0.59190  0.54390  Biso   1.000  O
  O12      1.0000 0.29400  0.09190  0.95610  Biso   1.000  O
  O13      1.0000 0.59950  0.29070  0.53900  Biso   1.000  O
  O14      1.0000 0.90050  0.79070  0.96100  Biso   1.000  O
  O15      1.0000 0.40050  0.70930  0.46100  Biso   1.000  O
  O16      1.0000 0.09950  0.20930  0.03900  Biso   1.000  O
