data_image0
_cell_length_a       22.097
_cell_length_b       13.146
_cell_length_c       23.607
_cell_angle_alpha    90
_cell_angle_beta     117.122
_cell_angle_gamma    90

_symmetry_space_group_name_H-M    "P 1"
_symmetry_int_tables_number       1

loop_
  _symmetry_equiv_pos_as_xyz
  'x, y, z'

loop_
  _atom_site_label
  _atom_site_occupancy
  _atom_site_fract_x
  _atom_site_fract_y
  _atom_site_fract_z
  _atom_site_thermal_displace_type
  _atom_site_B_iso_or_equiv
  _atom_site_type_symbol
  Cu1      1.0000 0.11018  0.34481  0.34274  Biso   1.000  Cu
  Cu2      1.0000 0.88982  0.34481  0.15726  Biso   1.000  Cu
  Cu3      1.0000 0.61018  0.84481  0.34274  Biso   1.000  Cu
  Cu4      1.0000 0.38982  0.84481  0.15726  Biso   1.000  Cu
  Cu5      1.0000 0.88982  0.65519  0.65726  Biso   1.000  Cu
  Cu6      1.0000 0.11018  0.65519  0.84274  Biso   1.000  Cu
  Cu7      1.0000 0.38982  0.15519  0.65726  Biso   1.000  Cu
  Cu8      1.0000 0.61018  0.15519  0.84274  Biso   1.000  Cu
  Cu9      1.0000 0.22901  0.32446  0.44052  Biso   1.000  Cu
  Cu10     1.0000 0.77099  0.32446  0.05948  Biso   1.000  Cu
  Cu11     1.0000 0.72901  0.82446  0.44052  Biso   1.000  Cu
  Cu12     1.0000 0.27099  0.82446  0.05948  Biso   1.000  Cu
  Cu13     1.0000 0.77099  0.67554  0.55948  Biso   1.000  Cu
  Cu14     1.0000 0.22901  0.67554  0.94052  Biso   1.000  Cu
  Cu15     1.0000 0.27099  0.17554  0.55948  Biso   1.000  Cu
  Cu16     1.0000 0.72901  0.17554  0.94052  Biso   1.000  Cu
  Cl1      1.0000 0.00000  0.36569  0.25000  Biso   1.000  Cl
  Cl2      1.0000 0.50000  0.86569  0.25000  Biso   1.000  Cl
  Cl3      1.0000 0.00000  0.63431  0.75000  Biso   1.000  Cl
  Cl4      1.0000 0.50000  0.13431  0.75000  Biso   1.000  Cl
  O1       1.0000 0.15907  0.45167  0.32111  Biso   1.000  O
  O2       1.0000 0.84093  0.45167  0.17889  Biso   1.000  O
  O3       1.0000 0.65907  0.95167  0.32111  Biso   1.000  O
  O4       1.0000 0.34093  0.95167  0.17889  Biso   1.000  O
  O5       1.0000 0.84093  0.54833  0.67889  Biso   1.000  O
  O6       1.0000 0.15907  0.54833  0.82111  Biso   1.000  O
  O7       1.0000 0.34093  0.04833  0.67889  Biso   1.000  O
  O8       1.0000 0.65907  0.04833  0.82111  Biso   1.000  O
  O9       1.0000 0.26294  0.41970  0.39901  Biso   1.000  O
  O10      1.0000 0.73706  0.41970  0.10099  Biso   1.000  O
  O11      1.0000 0.76294  0.91970  0.39901  Biso   1.000  O
  O12      1.0000 0.23706  0.91970  0.10099  Biso   1.000  O
  O13      1.0000 0.73706  0.58030  0.60099  Biso   1.000  O
  O14      1.0000 0.26294  0.58030  0.89901  Biso   1.000  O
  O15      1.0000 0.23706  0.08030  0.60099  Biso   1.000  O
  O16      1.0000 0.76294  0.08030  0.89901  Biso   1.000  O
  O17      1.0000 0.09345  0.43830  0.39834  Biso   1.000  O
  O18      1.0000 0.90655  0.43830  0.10166  Biso   1.000  O
  O19      1.0000 0.59345  0.93830  0.39834  Biso   1.000  O
  O20      1.0000 0.40655  0.93830  0.10166  Biso   1.000  O
  O21      1.0000 0.90655  0.56170  0.60166  Biso   1.000  O
  O22      1.0000 0.09345  0.56170  0.89834  Biso   1.000  O
  O23      1.0000 0.40655  0.06170  0.60166  Biso   1.000  O
  O24      1.0000 0.59345  0.06170  0.89834  Biso   1.000  O
  O25      1.0000 0.19967  0.43484  0.47704  Biso   1.000  O
  O26      1.0000 0.80033  0.43484  0.02296  Biso   1.000  O
  O27      1.0000 0.69967  0.93484  0.47704  Biso   1.000  O
  O28      1.0000 0.30033  0.93484  0.02296  Biso   1.000  O
  O29      1.0000 0.80033  0.56516  0.52296  Biso   1.000  O
  O30      1.0000 0.19967  0.56516  0.97704  Biso   1.000  O
  O31      1.0000 0.30033  0.06516  0.52296  Biso   1.000  O
  O32      1.0000 0.69967  0.06516  0.97704  Biso   1.000  O
  O33      1.0000 0.08495  0.23045  0.38354  Biso   1.000  O
  O34      1.0000 0.91505  0.23045  0.11646  Biso   1.000  O
  O35      1.0000 0.58495  0.73045  0.38354  Biso   1.000  O
  O36      1.0000 0.41505  0.73045  0.11646  Biso   1.000  O
  O37      1.0000 0.91505  0.76955  0.61646  Biso   1.000  O
  O38      1.0000 0.08495  0.76955  0.88354  Biso   1.000  O
  O39      1.0000 0.41505  0.26955  0.61646  Biso   1.000  O
  O40      1.0000 0.58495  0.26955  0.88354  Biso   1.000  O
  O41      1.0000 0.18267  0.22502  0.47165  Biso   1.000  O
  O42      1.0000 0.81733  0.22502  0.02835  Biso   1.000  O
  O43      1.0000 0.68267  0.72502  0.47165  Biso   1.000  O
  O44      1.0000 0.31733  0.72502  0.02835  Biso   1.000  O
  O45      1.0000 0.81733  0.77498  0.52835  Biso   1.000  O
  O46      1.0000 0.18267  0.77498  0.97165  Biso   1.000  O
  O47      1.0000 0.31733  0.27498  0.52835  Biso   1.000  O
  O48      1.0000 0.68267  0.27498  0.97165  Biso   1.000  O
  O49      1.0000 0.14402  0.24162  0.30413  Biso   1.000  O
  O50      1.0000 0.85598  0.24162  0.19587  Biso   1.000  O
  O51      1.0000 0.64402  0.74162  0.30413  Biso   1.000  O
  O52      1.0000 0.35598  0.74162  0.19587  Biso   1.000  O
  O53      1.0000 0.85598  0.75838  0.69587  Biso   1.000  O
  O54      1.0000 0.14402  0.75838  0.80413  Biso   1.000  O
  O55      1.0000 0.35598  0.25838  0.69587  Biso   1.000  O
  O56      1.0000 0.64402  0.25838  0.80413  Biso   1.000  O
  O57      1.0000 0.24153  0.21360  0.39190  Biso   1.000  O
  O58      1.0000 0.75847  0.21360  0.10810  Biso   1.000  O
  O59      1.0000 0.74153  0.71360  0.39190  Biso   1.000  O
  O60      1.0000 0.25847  0.71360  0.10810  Biso   1.000  O
  O61      1.0000 0.75847  0.78640  0.60810  Biso   1.000  O
  O62      1.0000 0.24153  0.78640  0.89190  Biso   1.000  O
  O63      1.0000 0.25847  0.28640  0.60810  Biso   1.000  O
  O64      1.0000 0.74153  0.28640  0.89190  Biso   1.000  O
  C1       1.0000 0.22230  0.46550  0.34956  Biso   1.000  C
  C2       1.0000 0.77770  0.46550  0.15044  Biso   1.000  C
  C3       1.0000 0.72230  0.96550  0.34956  Biso   1.000  C
  C4       1.0000 0.27770  0.96550  0.15044  Biso   1.000  C
  C5       1.0000 0.77770  0.53450  0.65044  Biso   1.000  C
  C6       1.0000 0.22230  0.53450  0.84956  Biso   1.000  C
  C7       1.0000 0.27770  0.03450  0.65044  Biso   1.000  C
  C8       1.0000 0.72230  0.03450  0.84956  Biso   1.000  C
  C9       1.0000 0.25260  0.54140  0.32215  Biso   1.000  C
  C10      1.0000 0.74740  0.54140  0.17785  Biso   1.000  C
  C11      1.0000 0.75260  0.04140  0.32215  Biso   1.000  C
  C12      1.0000 0.24740  0.04140  0.17785  Biso   1.000  C
  C13      1.0000 0.74740  0.45860  0.67785  Biso   1.000  C
  C14      1.0000 0.25260  0.45860  0.82215  Biso   1.000  C
  C15      1.0000 0.24740  0.95860  0.67785  Biso   1.000  C
  C16      1.0000 0.75260  0.95860  0.82215  Biso   1.000  C
  H1       1.0000 0.21610  0.57730  0.28660  Biso   1.000  H
  H2       1.0000 0.78390  0.57730  0.21340  Biso   1.000  H
  H3       1.0000 0.71610  0.07730  0.28660  Biso   1.000  H
  H4       1.0000 0.28390  0.07730  0.21340  Biso   1.000  H
  H5       1.0000 0.78390  0.42270  0.71340  Biso   1.000  H
  H6       1.0000 0.21610  0.42270  0.78660  Biso   1.000  H
  H7       1.0000 0.28390  0.92270  0.71340  Biso   1.000  H
  H8       1.0000 0.71610  0.92270  0.78660  Biso   1.000  H
  H9       1.0000 0.28130  0.50590  0.30680  Biso   1.000  H
  H10      1.0000 0.71870  0.50590  0.19320  Biso   1.000  H
  H11      1.0000 0.78130  0.00590  0.30680  Biso   1.000  H
  H12      1.0000 0.21870  0.00590  0.19320  Biso   1.000  H
  H13      1.0000 0.71870  0.49410  0.69320  Biso   1.000  H
  H14      1.0000 0.28130  0.49410  0.80680  Biso   1.000  H
  H15      1.0000 0.21870  0.99410  0.69320  Biso   1.000  H
  H16      1.0000 0.78130  0.99410  0.80680  Biso   1.000  H
  H17      1.0000 0.28020  0.59050  0.35510  Biso   1.000  H
  H18      1.0000 0.71980  0.59050  0.14490  Biso   1.000  H
  H19      1.0000 0.78020  0.09050  0.35510  Biso   1.000  H
  H20      1.0000 0.21980  0.09050  0.14490  Biso   1.000  H
  H21      1.0000 0.71980  0.40950  0.64490  Biso   1.000  H
  H22      1.0000 0.28020  0.40950  0.85510  Biso   1.000  H
  H23      1.0000 0.21980  0.90950  0.64490  Biso   1.000  H
  H24      1.0000 0.78020  0.90950  0.85510  Biso   1.000  H
  C17      1.0000 0.13900  0.46470  0.45198  Biso   1.000  C
  C18      1.0000 0.86100  0.46470  0.04802  Biso   1.000  C
  C19      1.0000 0.63900  0.96470  0.45198  Biso   1.000  C
  C20      1.0000 0.36100  0.96470  0.04802  Biso   1.000  C
  C21      1.0000 0.86100  0.53530  0.54802  Biso   1.000  C
  C22      1.0000 0.13900  0.53530  0.95198  Biso   1.000  C
  C23      1.0000 0.36100  0.03530  0.54802  Biso   1.000  C
  C24      1.0000 0.63900  0.03530  0.95198  Biso   1.000  C
  C25      1.0000 0.11810  0.53750  0.48930  Biso   1.000  C
  C26      1.0000 0.88190  0.53750  0.01070  Biso   1.000  C
  C27      1.0000 0.61810  0.03750  0.48930  Biso   1.000  C
  C28      1.0000 0.38190  0.03750  0.01070  Biso   1.000  C
  C29      1.0000 0.88190  0.46250  0.51070  Biso   1.000  C
  C30      1.0000 0.11810  0.46250  0.98930  Biso   1.000  C
  C31      1.0000 0.38190  0.96250  0.51070  Biso   1.000  C
  C32      1.0000 0.61810  0.96250  0.98930  Biso   1.000  C
  H25      1.0000 0.09650  0.59740  0.46320  Biso   1.000  H
  H26      1.0000 0.90350  0.59740  0.03680  Biso   1.000  H
  H27      1.0000 0.59650  0.09740  0.46320  Biso   1.000  H
  H28      1.0000 0.40350  0.09740  0.03680  Biso   1.000  H
  H29      1.0000 0.90350  0.40260  0.53680  Biso   1.000  H
  H30      1.0000 0.09650  0.40260  0.96320  Biso   1.000  H
  H31      1.0000 0.40350  0.90260  0.53680  Biso   1.000  H
  H32      1.0000 0.59650  0.90260  0.96320  Biso   1.000  H
  H33      1.0000 0.15830  0.55860  0.52800  Biso   1.000  H
  H34      1.0000 0.84170  0.55860  0.97200  Biso   1.000  H
  H35      1.0000 0.65830  0.05860  0.52800  Biso   1.000  H
  H36      1.0000 0.34170  0.05860  0.97200  Biso   1.000  H
  H37      1.0000 0.84170  0.44140  0.47200  Biso   1.000  H
  H38      1.0000 0.15830  0.44140  0.02800  Biso   1.000  H
  H39      1.0000 0.34170  0.94140  0.47200  Biso   1.000  H
  H40      1.0000 0.65830  0.94140  0.02800  Biso   1.000  H
  H41      1.0000 0.08590  0.50370  0.50110  Biso   1.000  H
  H42      1.0000 0.91410  0.50370  0.99890  Biso   1.000  H
  H43      1.0000 0.58590  0.00370  0.50110  Biso   1.000  H
  H44      1.0000 0.41410  0.00370  0.99890  Biso   1.000  H
  H45      1.0000 0.91410  0.49630  0.49890  Biso   1.000  H
  H46      1.0000 0.08590  0.49630  0.00110  Biso   1.000  H
  H47      1.0000 0.41410  0.99630  0.49890  Biso   1.000  H
  H48      1.0000 0.58590  0.99630  0.00110  Biso   1.000  H
  C33      1.0000 0.12274  0.19460  0.43727  Biso   1.000  C
  C34      1.0000 0.87726  0.19460  0.06273  Biso   1.000  C
  C35      1.0000 0.62274  0.69460  0.43727  Biso   1.000  C
  C36      1.0000 0.37726  0.69460  0.06273  Biso   1.000  C
  C37      1.0000 0.87726  0.80540  0.56273  Biso   1.000  C
  C38      1.0000 0.12274  0.80540  0.93727  Biso   1.000  C
  C39      1.0000 0.37726  0.30540  0.56273  Biso   1.000  C
  C40      1.0000 0.62274  0.30540  0.93727  Biso   1.000  C
  C41      1.0000 0.09553  0.11060  0.46205  Biso   1.000  C
  C42      1.0000 0.90447  0.11060  0.03795  Biso   1.000  C
  C43      1.0000 0.59553  0.61060  0.46205  Biso   1.000  C
  C44      1.0000 0.40447  0.61060  0.03795  Biso   1.000  C
  C45      1.0000 0.90447  0.88940  0.53795  Biso   1.000  C
  C46      1.0000 0.09553  0.88940  0.96205  Biso   1.000  C
  C47      1.0000 0.40447  0.38940  0.53795  Biso   1.000  C
  C48      1.0000 0.59553  0.38940  0.96205  Biso   1.000  C
  H49      1.0000 0.05570  0.13510  0.46600  Biso   1.000  H
  H50      1.0000 0.94430  0.13510  0.03400  Biso   1.000  H
  H51      1.0000 0.55570  0.63510  0.46600  Biso   1.000  H
  H52      1.0000 0.44430  0.63510  0.03400  Biso   1.000  H
  H53      1.0000 0.94430  0.86490  0.53400  Biso   1.000  H
  H54      1.0000 0.05570  0.86490  0.96600  Biso   1.000  H
  H55      1.0000 0.44430  0.36490  0.53400  Biso   1.000  H
  H56      1.0000 0.55570  0.36490  0.96600  Biso   1.000  H
  H57      1.0000 0.13070  0.08890  0.50390  Biso   1.000  H
  H58      1.0000 0.86930  0.08890  0.99610  Biso   1.000  H
  H59      1.0000 0.63070  0.58890  0.50390  Biso   1.000  H
  H60      1.0000 0.36930  0.58890  0.99610  Biso   1.000  H
  H61      1.0000 0.86930  0.91110  0.49610  Biso   1.000  H
  H62      1.0000 0.13070  0.91110  0.00390  Biso   1.000  H
  H63      1.0000 0.36930  0.41110  0.49610  Biso   1.000  H
  H64      1.0000 0.63070  0.41110  0.00390  Biso   1.000  H
  H65      1.0000 0.08230  0.05300  0.43250  Biso   1.000  H
  H66      1.0000 0.91770  0.05300  0.06750  Biso   1.000  H
  H67      1.0000 0.58230  0.55300  0.43250  Biso   1.000  H
  H68      1.0000 0.41770  0.55300  0.06750  Biso   1.000  H
  H69      1.0000 0.91770  0.94700  0.56750  Biso   1.000  H
  H70      1.0000 0.08230  0.94700  0.93250  Biso   1.000  H
  H71      1.0000 0.41770  0.44700  0.56750  Biso   1.000  H
  H72      1.0000 0.58230  0.44700  0.93250  Biso   1.000  H
  C49      1.0000 0.19844  0.19340  0.33588  Biso   1.000  C
  C50      1.0000 0.80156  0.19340  0.16412  Biso   1.000  C
  C51      1.0000 0.69844  0.69340  0.33588  Biso   1.000  C
  C52      1.0000 0.30156  0.69340  0.16412  Biso   1.000  C
  C53      1.0000 0.80156  0.80660  0.66412  Biso   1.000  C
  C54      1.0000 0.19844  0.80660  0.83588  Biso   1.000  C
  C55      1.0000 0.30156  0.30660  0.66412  Biso   1.000  C
  C56      1.0000 0.69844  0.30660  0.83588  Biso   1.000  C
  C57      1.0000 0.21200  0.10340  0.30460  Biso   1.000  C
  C58      1.0000 0.78800  0.10340  0.19540  Biso   1.000  C
  C59      1.0000 0.71200  0.60340  0.30460  Biso   1.000  C
  C60      1.0000 0.28800  0.60340  0.19540  Biso   1.000  C
  C61      1.0000 0.78800  0.89660  0.69540  Biso   1.000  C
  C62      1.0000 0.21200  0.89660  0.80460  Biso   1.000  C
  C63      1.0000 0.28800  0.39660  0.69540  Biso   1.000  C
  C64      1.0000 0.71200  0.39660  0.80460  Biso   1.000  C
  H73      1.0000 0.26080  0.08840  0.32540  Biso   1.000  H
  H74      1.0000 0.73920  0.08840  0.17460  Biso   1.000  H
  H75      1.0000 0.76080  0.58840  0.32540  Biso   1.000  H
  H76      1.0000 0.23920  0.58840  0.17460  Biso   1.000  H
  H77      1.0000 0.73920  0.91160  0.67460  Biso   1.000  H
  H78      1.0000 0.26080  0.91160  0.82540  Biso   1.000  H
  H79      1.0000 0.23920  0.41160  0.67460  Biso   1.000  H
  H80      1.0000 0.76080  0.41160  0.82540  Biso   1.000  H
  H81      1.0000 0.19710  0.11830  0.25950  Biso   1.000  H
  H82      1.0000 0.80290  0.11830  0.24050  Biso   1.000  H
  H83      1.0000 0.69710  0.61830  0.25950  Biso   1.000  H
  H84      1.0000 0.30290  0.61830  0.24050  Biso   1.000  H
  H85      1.0000 0.80290  0.88170  0.74050  Biso   1.000  H
  H86      1.0000 0.19710  0.88170  0.75950  Biso   1.000  H
  H87      1.0000 0.30290  0.38170  0.74050  Biso   1.000  H
  H88      1.0000 0.69710  0.38170  0.75950  Biso   1.000  H
  H89      1.0000 0.18690  0.04440  0.30840  Biso   1.000  H
  H90      1.0000 0.81310  0.04440  0.19160  Biso   1.000  H
  H91      1.0000 0.68690  0.54440  0.30840  Biso   1.000  H
  H92      1.0000 0.31310  0.54440  0.19160  Biso   1.000  H
  H93      1.0000 0.81310  0.95560  0.69160  Biso   1.000  H
  H94      1.0000 0.18690  0.95560  0.80840  Biso   1.000  H
  H95      1.0000 0.31310  0.45560  0.69160  Biso   1.000  H
  H96      1.0000 0.68690  0.45560  0.80840  Biso   1.000  H
  N1       1.0000 0.45188  0.21520  0.25127  Biso   1.000  N
  N2       1.0000 0.54812  0.21520  0.24873  Biso   1.000  N
  N3       1.0000 0.95188  0.71520  0.25127  Biso   1.000  N
  N4       1.0000 0.04812  0.71520  0.24873  Biso   1.000  N
  N5       1.0000 0.54812  0.78480  0.74873  Biso   1.000  N
  N6       1.0000 0.45188  0.78480  0.75127  Biso   1.000  N
  N7       1.0000 0.04812  0.28480  0.74873  Biso   1.000  N
  N8       1.0000 0.95188  0.28480  0.75127  Biso   1.000  N
  C65      1.0000 0.38905  0.25300  0.24934  Biso   1.000  C
  C66      1.0000 0.61095  0.25300  0.25066  Biso   1.000  C
  C67      1.0000 0.88905  0.75300  0.24934  Biso   1.000  C
  C68      1.0000 0.11095  0.75300  0.25066  Biso   1.000  C
  C69      1.0000 0.61095  0.74700  0.75066  Biso   1.000  C
  C70      1.0000 0.38905  0.74700  0.74934  Biso   1.000  C
  C71      1.0000 0.11095  0.24700  0.75066  Biso   1.000  C
  C72      1.0000 0.88905  0.24700  0.74934  Biso   1.000  C
  C73      1.0000 0.33835  0.28390  0.19043  Biso   1.000  C
  C74      1.0000 0.66165  0.28390  0.30957  Biso   1.000  C
  C75      1.0000 0.83835  0.78390  0.19043  Biso   1.000  C
  C76      1.0000 0.16165  0.78390  0.30957  Biso   1.000  C
  C77      1.0000 0.66165  0.71610  0.80957  Biso   1.000  C
  C78      1.0000 0.33835  0.71610  0.69043  Biso   1.000  C
  C79      1.0000 0.16165  0.21610  0.80957  Biso   1.000  C
  C80      1.0000 0.83835  0.21610  0.69043  Biso   1.000  C
  C81      1.0000 0.27799  0.31820  0.18894  Biso   1.000  C
  C82      1.0000 0.72201  0.31820  0.31106  Biso   1.000  C
  C83      1.0000 0.77799  0.81820  0.18894  Biso   1.000  C
  C84      1.0000 0.22201  0.81820  0.31106  Biso   1.000  C
  C85      1.0000 0.72201  0.68180  0.81106  Biso   1.000  C
  C86      1.0000 0.27799  0.68180  0.68894  Biso   1.000  C
  C87      1.0000 0.22201  0.18180  0.81106  Biso   1.000  C
  C88      1.0000 0.77799  0.18180  0.68894  Biso   1.000  C
  H97      1.0000 0.24170  0.33960  0.14970  Biso   1.000  H
  H98      1.0000 0.75830  0.33960  0.35030  Biso   1.000  H
  H99      1.0000 0.74170  0.83960  0.14970  Biso   1.000  H
  H100     1.0000 0.25830  0.83960  0.35030  Biso   1.000  H
  H101     1.0000 0.75830  0.66040  0.85030  Biso   1.000  H
  H102     1.0000 0.24170  0.66040  0.64970  Biso   1.000  H
  H103     1.0000 0.25830  0.16040  0.85030  Biso   1.000  H
  H104     1.0000 0.74170  0.16040  0.64970  Biso   1.000  H
  C89      1.0000 0.27022  0.32170  0.24336  Biso   1.000  C
  C90      1.0000 0.72978  0.32170  0.25664  Biso   1.000  C
  C91      1.0000 0.77022  0.82170  0.24336  Biso   1.000  C
  C92      1.0000 0.22978  0.82170  0.25664  Biso   1.000  C
  C93      1.0000 0.72978  0.67830  0.75664  Biso   1.000  C
  C94      1.0000 0.27022  0.67830  0.74336  Biso   1.000  C
  C95      1.0000 0.22978  0.17830  0.75664  Biso   1.000  C
  C96      1.0000 0.77022  0.17830  0.74336  Biso   1.000  C
  H105     1.0000 0.22840  0.34470  0.24120  Biso   1.000  H
  H106     1.0000 0.77160  0.34470  0.25880  Biso   1.000  H
  H107     1.0000 0.72840  0.84470  0.24120  Biso   1.000  H
  H108     1.0000 0.27160  0.84470  0.25880  Biso   1.000  H
  H109     1.0000 0.77160  0.65530  0.75880  Biso   1.000  H
  H110     1.0000 0.22840  0.65530  0.74120  Biso   1.000  H
  H111     1.0000 0.27160  0.15530  0.75880  Biso   1.000  H
  H112     1.0000 0.72840  0.15530  0.74120  Biso   1.000  H
  C97      1.0000 0.32230  0.29220  0.30130  Biso   1.000  C
  C98      1.0000 0.67770  0.29220  0.19870  Biso   1.000  C
  C99      1.0000 0.82230  0.79220  0.30130  Biso   1.000  C
  C100     1.0000 0.17770  0.79220  0.19870  Biso   1.000  C
  C101     1.0000 0.67770  0.70780  0.69870  Biso   1.000  C
  C102     1.0000 0.32230  0.70780  0.80130  Biso   1.000  C
  C103     1.0000 0.17770  0.20780  0.69870  Biso   1.000  C
  C104     1.0000 0.82230  0.20780  0.80130  Biso   1.000  C
  H113     1.0000 0.31620  0.29660  0.33850  Biso   1.000  H
  H114     1.0000 0.68380  0.29660  0.16150  Biso   1.000  H
  H115     1.0000 0.81620  0.79660  0.33850  Biso   1.000  H
  H116     1.0000 0.18380  0.79660  0.16150  Biso   1.000  H
  H117     1.0000 0.68380  0.70340  0.66150  Biso   1.000  H
  H118     1.0000 0.31620  0.70340  0.83850  Biso   1.000  H
  H119     1.0000 0.18380  0.20340  0.66150  Biso   1.000  H
  H120     1.0000 0.81620  0.20340  0.83850  Biso   1.000  H
  C105     1.0000 0.38368  0.25600  0.30584  Biso   1.000  C
  C106     1.0000 0.61632  0.25600  0.19416  Biso   1.000  C
  C107     1.0000 0.88368  0.75600  0.30584  Biso   1.000  C
  C108     1.0000 0.11632  0.75600  0.19416  Biso   1.000  C
  C109     1.0000 0.61632  0.74400  0.69416  Biso   1.000  C
  C110     1.0000 0.38368  0.74400  0.80584  Biso   1.000  C
  C111     1.0000 0.11632  0.24400  0.69416  Biso   1.000  C
  C112     1.0000 0.88368  0.24400  0.80584  Biso   1.000  C
  C113     1.0000 0.34523  0.27990  0.12880  Biso   1.000  C
  C114     1.0000 0.65477  0.27990  0.37120  Biso   1.000  C
  C115     1.0000 0.84523  0.77990  0.12880  Biso   1.000  C
  C116     1.0000 0.15477  0.77990  0.37120  Biso   1.000  C
  C117     1.0000 0.65477  0.72010  0.87120  Biso   1.000  C
  C118     1.0000 0.34523  0.72010  0.62880  Biso   1.000  C
  C119     1.0000 0.15477  0.22010  0.87120  Biso   1.000  C
  C120     1.0000 0.84523  0.22010  0.62880  Biso   1.000  C
  H121     1.0000 0.39230  0.25590  0.14000  Biso   1.000  H
  H122     1.0000 0.60770  0.25590  0.36000  Biso   1.000  H
  H123     1.0000 0.89230  0.75590  0.14000  Biso   1.000  H
  H124     1.0000 0.10770  0.75590  0.36000  Biso   1.000  H
  H125     1.0000 0.60770  0.74410  0.86000  Biso   1.000  H
  H126     1.0000 0.39230  0.74410  0.64000  Biso   1.000  H
  H127     1.0000 0.10770  0.24410  0.86000  Biso   1.000  H
  H128     1.0000 0.89230  0.24410  0.64000  Biso   1.000  H
  C121     1.0000 0.33690  0.38360  0.09913  Biso   1.000  C
  C122     1.0000 0.66310  0.38360  0.40087  Biso   1.000  C
  C123     1.0000 0.83690  0.88360  0.09913  Biso   1.000  C
  C124     1.0000 0.16310  0.88360  0.40087  Biso   1.000  C
  C125     1.0000 0.66310  0.61640  0.90087  Biso   1.000  C
  C126     1.0000 0.33690  0.61640  0.59913  Biso   1.000  C
  C127     1.0000 0.16310  0.11640  0.90087  Biso   1.000  C
  C128     1.0000 0.83690  0.11640  0.59913  Biso   1.000  C
  H129     1.0000 0.29010  0.40730  0.08490  Biso   1.000  H
  H130     1.0000 0.70990  0.40730  0.41510  Biso   1.000  H
  H131     1.0000 0.79010  0.90730  0.08490  Biso   1.000  H
  H132     1.0000 0.20990  0.90730  0.41510  Biso   1.000  H
  H133     1.0000 0.70990  0.59270  0.91510  Biso   1.000  H
  H134     1.0000 0.29010  0.59270  0.58490  Biso   1.000  H
  H135     1.0000 0.20990  0.09270  0.91510  Biso   1.000  H
  H136     1.0000 0.79010  0.09270  0.58490  Biso   1.000  H
  H137     1.0000 0.34660  0.37980  0.06260  Biso   1.000  H
  H138     1.0000 0.65340  0.37980  0.43740  Biso   1.000  H
  H139     1.0000 0.84660  0.87980  0.06260  Biso   1.000  H
  H140     1.0000 0.15340  0.87980  0.43740  Biso   1.000  H
  H141     1.0000 0.65340  0.62020  0.93740  Biso   1.000  H
  H142     1.0000 0.34660  0.62020  0.56260  Biso   1.000  H
  H143     1.0000 0.15340  0.12020  0.93740  Biso   1.000  H
  H144     1.0000 0.84660  0.12020  0.56260  Biso   1.000  H
  H145     1.0000 0.36850  0.43130  0.13060  Biso   1.000  H
  H146     1.0000 0.63150  0.43130  0.36940  Biso   1.000  H
  H147     1.0000 0.86850  0.93130  0.13060  Biso   1.000  H
  H148     1.0000 0.13150  0.93130  0.36940  Biso   1.000  H
  H149     1.0000 0.63150  0.56870  0.86940  Biso   1.000  H
  H150     1.0000 0.36850  0.56870  0.63060  Biso   1.000  H
  H151     1.0000 0.13150  0.06870  0.86940  Biso   1.000  H
  H152     1.0000 0.86850  0.06870  0.63060  Biso   1.000  H
  C129     1.0000 0.29570  0.20340  0.08230  Biso   1.000  C
  C130     1.0000 0.70430  0.20340  0.41770  Biso   1.000  C
  C131     1.0000 0.79570  0.70340  0.08230  Biso   1.000  C
  C132     1.0000 0.20430  0.70340  0.41770  Biso   1.000  C
  C133     1.0000 0.70430  0.79660  0.91770  Biso   1.000  C
  C134     1.0000 0.29570  0.79660  0.58230  Biso   1.000  C
  C135     1.0000 0.20430  0.29660  0.91770  Biso   1.000  C
  C136     1.0000 0.79570  0.29660  0.58230  Biso   1.000  C
  H153     1.0000 0.30100  0.20230  0.04330  Biso   1.000  H
  H154     1.0000 0.69900  0.20230  0.45670  Biso   1.000  H
  H155     1.0000 0.80100  0.70230  0.04330  Biso   1.000  H
  H156     1.0000 0.19900  0.70230  0.45670  Biso   1.000  H
  H157     1.0000 0.69900  0.79770  0.95670  Biso   1.000  H
  H158     1.0000 0.30100  0.79770  0.54330  Biso   1.000  H
  H159     1.0000 0.19900  0.29770  0.95670  Biso   1.000  H
  H160     1.0000 0.80100  0.29770  0.54330  Biso   1.000  H
  H161     1.0000 0.24910  0.22300  0.07200  Biso   1.000  H
  H162     1.0000 0.75090  0.22300  0.42800  Biso   1.000  H
  H163     1.0000 0.74910  0.72300  0.07200  Biso   1.000  H
  H164     1.0000 0.25090  0.72300  0.42800  Biso   1.000  H
  H165     1.0000 0.75090  0.77700  0.92800  Biso   1.000  H
  H166     1.0000 0.24910  0.77700  0.57200  Biso   1.000  H
  H167     1.0000 0.25090  0.27700  0.92800  Biso   1.000  H
  H168     1.0000 0.74910  0.27700  0.57200  Biso   1.000  H
  H169     1.0000 0.30520  0.13560  0.10170  Biso   1.000  H
  H170     1.0000 0.69480  0.13560  0.39830  Biso   1.000  H
  H171     1.0000 0.80520  0.63560  0.10170  Biso   1.000  H
  H172     1.0000 0.19480  0.63560  0.39830  Biso   1.000  H
  H173     1.0000 0.69480  0.86440  0.89830  Biso   1.000  H
  H174     1.0000 0.30520  0.86440  0.60170  Biso   1.000  H
  H175     1.0000 0.19480  0.36440  0.89830  Biso   1.000  H
  H176     1.0000 0.80520  0.36440  0.60170  Biso   1.000  H
  C137     1.0000 0.44195  0.22670  0.36975  Biso   1.000  C
  C138     1.0000 0.55805  0.22670  0.13025  Biso   1.000  C
  C139     1.0000 0.94195  0.72670  0.36975  Biso   1.000  C
  C140     1.0000 0.05805  0.72670  0.13025  Biso   1.000  C
  C141     1.0000 0.55805  0.77330  0.63025  Biso   1.000  C
  C142     1.0000 0.44195  0.77330  0.86975  Biso   1.000  C
  C143     1.0000 0.05805  0.27330  0.63025  Biso   1.000  C
  C144     1.0000 0.94195  0.27330  0.86975  Biso   1.000  C
  H177     1.0000 0.46910  0.17250  0.36210  Biso   1.000  H
  H178     1.0000 0.53090  0.17250  0.13790  Biso   1.000  H
  H179     1.0000 0.96910  0.67250  0.36210  Biso   1.000  H
  H180     1.0000 0.03090  0.67250  0.13790  Biso   1.000  H
  H181     1.0000 0.53090  0.82750  0.63790  Biso   1.000  H
  H182     1.0000 0.46910  0.82750  0.86210  Biso   1.000  H
  H183     1.0000 0.03090  0.32750  0.63790  Biso   1.000  H
  H184     1.0000 0.96910  0.32750  0.86210  Biso   1.000  H
  C145     1.0000 0.48900  0.31800  0.40020  Biso   1.000  C
  C146     1.0000 0.51100  0.31800  0.09980  Biso   1.000  C
  C147     1.0000 0.98900  0.81800  0.40020  Biso   1.000  C
  C148     1.0000 0.01100  0.81800  0.09980  Biso   1.000  C
  C149     1.0000 0.51100  0.68200  0.59980  Biso   1.000  C
  C150     1.0000 0.48900  0.68200  0.90020  Biso   1.000  C
  C151     1.0000 0.01100  0.18200  0.59980  Biso   1.000  C
  C152     1.0000 0.98900  0.18200  0.90020  Biso   1.000  C
  H185     1.0000 0.46290  0.37370  0.40600  Biso   1.000  H
  H186     1.0000 0.53710  0.37370  0.09400  Biso   1.000  H
  H187     1.0000 0.96290  0.87370  0.40600  Biso   1.000  H
  H188     1.0000 0.03710  0.87370  0.09400  Biso   1.000  H
  H189     1.0000 0.53710  0.62630  0.59400  Biso   1.000  H
  H190     1.0000 0.46290  0.62630  0.90600  Biso   1.000  H
  H191     1.0000 0.03710  0.12630  0.59400  Biso   1.000  H
  H192     1.0000 0.96290  0.12630  0.90600  Biso   1.000  H
  H193     1.0000 0.50840  0.34060  0.37240  Biso   1.000  H
  H194     1.0000 0.49160  0.34060  0.12760  Biso   1.000  H
  H195     1.0000 0.00840  0.84060  0.37240  Biso   1.000  H
  H196     1.0000 0.99160  0.84060  0.12760  Biso   1.000  H
  H197     1.0000 0.49160  0.65940  0.62760  Biso   1.000  H
  H198     1.0000 0.50840  0.65940  0.87240  Biso   1.000  H
  H199     1.0000 0.99160  0.15940  0.62760  Biso   1.000  H
  H200     1.0000 0.00840  0.15940  0.87240  Biso   1.000  H
  H201     1.0000 0.52570  0.29800  0.44160  Biso   1.000  H
  H202     1.0000 0.47430  0.29800  0.05840  Biso   1.000  H
  H203     1.0000 0.02570  0.79800  0.44160  Biso   1.000  H
  H204     1.0000 0.97430  0.79800  0.05840  Biso   1.000  H
  H205     1.0000 0.47430  0.70200  0.55840  Biso   1.000  H
  H206     1.0000 0.52570  0.70200  0.94160  Biso   1.000  H
  H207     1.0000 0.97430  0.20200  0.55840  Biso   1.000  H
  H208     1.0000 0.02570  0.20200  0.94160  Biso   1.000  H
  C153     1.0000 0.41800  0.18480  0.41638  Biso   1.000  C
  C154     1.0000 0.58200  0.18480  0.08362  Biso   1.000  C
  C155     1.0000 0.91800  0.68480  0.41638  Biso   1.000  C
  C156     1.0000 0.08200  0.68480  0.08362  Biso   1.000  C
  C157     1.0000 0.58200  0.81520  0.58362  Biso   1.000  C
  C158     1.0000 0.41800  0.81520  0.91638  Biso   1.000  C
  C159     1.0000 0.08200  0.31520  0.58362  Biso   1.000  C
  C160     1.0000 0.91800  0.31520  0.91638  Biso   1.000  C
  H209     1.0000 0.38660  0.12810  0.39650  Biso   1.000  H
  H210     1.0000 0.61340  0.12810  0.10350  Biso   1.000  H
  H211     1.0000 0.88660  0.62810  0.39650  Biso   1.000  H
  H212     1.0000 0.11340  0.62810  0.10350  Biso   1.000  H
  H213     1.0000 0.61340  0.87190  0.60350  Biso   1.000  H
  H214     1.0000 0.38660  0.87190  0.89650  Biso   1.000  H
  H215     1.0000 0.11340  0.37190  0.60350  Biso   1.000  H
  H216     1.0000 0.88660  0.37190  0.89650  Biso   1.000  H
  H217     1.0000 0.39470  0.23860  0.42770  Biso   1.000  H
  H218     1.0000 0.60530  0.23860  0.07230  Biso   1.000  H
  H219     1.0000 0.89470  0.73860  0.42770  Biso   1.000  H
  H220     1.0000 0.10530  0.73860  0.07230  Biso   1.000  H
  H221     1.0000 0.60530  0.76140  0.57230  Biso   1.000  H
  H222     1.0000 0.39470  0.76140  0.92770  Biso   1.000  H
  H223     1.0000 0.10530  0.26140  0.57230  Biso   1.000  H
  H224     1.0000 0.89470  0.26140  0.92770  Biso   1.000  H
  H225     1.0000 0.45730  0.16080  0.45490  Biso   1.000  H
  H226     1.0000 0.54270  0.16080  0.04510  Biso   1.000  H
  H227     1.0000 0.95730  0.66080  0.45490  Biso   1.000  H
  H228     1.0000 0.04270  0.66080  0.04510  Biso   1.000  H
  H229     1.0000 0.54270  0.83920  0.54510  Biso   1.000  H
  H230     1.0000 0.45730  0.83920  0.95490  Biso   1.000  H
  H231     1.0000 0.04270  0.33920  0.54510  Biso   1.000  H
  H232     1.0000 0.95730  0.33920  0.95490  Biso   1.000  H
  C161     1.0000 0.46971  0.11510  0.25048  Biso   1.000  C
  C162     1.0000 0.53029  0.11510  0.24952  Biso   1.000  C
  C163     1.0000 0.96971  0.61510  0.25048  Biso   1.000  C
  C164     1.0000 0.03029  0.61510  0.24952  Biso   1.000  C
  C165     1.0000 0.53029  0.88490  0.74952  Biso   1.000  C
  C166     1.0000 0.46971  0.88490  0.75048  Biso   1.000  C
  C167     1.0000 0.03029  0.38490  0.74952  Biso   1.000  C
  C168     1.0000 0.96971  0.38490  0.75048  Biso   1.000  C
  H233     1.0000 0.44420  0.05700  0.25060  Biso   1.000  H
  H234     1.0000 0.55580  0.05700  0.24940  Biso   1.000  H
  H235     1.0000 0.94420  0.55700  0.25060  Biso   1.000  H
  H236     1.0000 0.05580  0.55700  0.24940  Biso   1.000  H
  H237     1.0000 0.55580  0.94300  0.74940  Biso   1.000  H
  H238     1.0000 0.44420  0.94300  0.75060  Biso   1.000  H
  H239     1.0000 0.05580  0.44300  0.74940  Biso   1.000  H
  H240     1.0000 0.94420  0.44300  0.75060  Biso   1.000  H
  C169     1.0000 0.50000  0.27380  0.25000  Biso   1.000  C
  C170     1.0000 0.00000  0.77380  0.25000  Biso   1.000  C
  C171     1.0000 0.50000  0.72620  0.75000  Biso   1.000  C
  C172     1.0000 0.00000  0.22620  0.75000  Biso   1.000  C
  H241     1.0000 0.50000  0.34600  0.25000  Biso   1.000  H
  H242     1.0000 0.00000  0.84600  0.25000  Biso   1.000  H
  H243     1.0000 0.50000  0.65400  0.75000  Biso   1.000  H
  H244     1.0000 0.00000  0.15400  0.75000  Biso   1.000  H
  Cl5      1.0000 0.08838  0.23037  0.10086  Biso   1.000  Cl
  Cl6      1.0000 0.91162  0.23037  0.39914  Biso   1.000  Cl
  Cl7      1.0000 0.58838  0.73037  0.10086  Biso   1.000  Cl
  Cl8      1.0000 0.41162  0.73037  0.39914  Biso   1.000  Cl
  Cl9      1.0000 0.91162  0.76963  0.89914  Biso   1.000  Cl
  Cl10     1.0000 0.08838  0.76963  0.60086  Biso   1.000  Cl
  Cl11     1.0000 0.41162  0.26963  0.89914  Biso   1.000  Cl
  Cl12     1.0000 0.58838  0.26963  0.60086  Biso   1.000  Cl
  Cl13     1.0000 0.09648  0.43818  0.14520  Biso   1.000  Cl
  Cl14     1.0000 0.90352  0.43818  0.35480  Biso   1.000  Cl
  Cl15     1.0000 0.59648  0.93818  0.14520  Biso   1.000  Cl
  Cl16     1.0000 0.40352  0.93818  0.35480  Biso   1.000  Cl
  Cl17     1.0000 0.90352  0.56182  0.85480  Biso   1.000  Cl
  Cl18     1.0000 0.09648  0.56182  0.64520  Biso   1.000  Cl
  Cl19     1.0000 0.40352  0.06182  0.85480  Biso   1.000  Cl
  Cl20     1.0000 0.59648  0.06182  0.64520  Biso   1.000  Cl
  C173     1.0000 0.06880  0.31450  0.14820  Biso   1.000  C
  C174     1.0000 0.93120  0.31450  0.35180  Biso   1.000  C
  C175     1.0000 0.56880  0.81450  0.14820  Biso   1.000  C
  C176     1.0000 0.43120  0.81450  0.35180  Biso   1.000  C
  C177     1.0000 0.93120  0.68550  0.85180  Biso   1.000  C
  C178     1.0000 0.06880  0.68550  0.64820  Biso   1.000  C
  C179     1.0000 0.43120  0.18550  0.85180  Biso   1.000  C
  C180     1.0000 0.56880  0.18550  0.64820  Biso   1.000  C
  H245     1.0000 0.01900  0.31500  0.13320  Biso   1.000  H
  H246     1.0000 0.98100  0.31500  0.36680  Biso   1.000  H
  H247     1.0000 0.51900  0.81500  0.13320  Biso   1.000  H
  H248     1.0000 0.48100  0.81500  0.36680  Biso   1.000  H
  H249     1.0000 0.98100  0.68500  0.86680  Biso   1.000  H
  H250     1.0000 0.01900  0.68500  0.63320  Biso   1.000  H
  H251     1.0000 0.48100  0.18500  0.86680  Biso   1.000  H
  H252     1.0000 0.51900  0.18500  0.63320  Biso   1.000  H
  H253     1.0000 0.09070  0.29030  0.19290  Biso   1.000  H
  H254     1.0000 0.90930  0.29030  0.30710  Biso   1.000  H
  H255     1.0000 0.59070  0.79030  0.19290  Biso   1.000  H
  H256     1.0000 0.40930  0.79030  0.30710  Biso   1.000  H
  H257     1.0000 0.90930  0.70970  0.80710  Biso   1.000  H
  H258     1.0000 0.09070  0.70970  0.69290  Biso   1.000  H
  H259     1.0000 0.40930  0.20970  0.80710  Biso   1.000  H
  H260     1.0000 0.59070  0.20970  0.69290  Biso   1.000  H
  Cl21     1.0000 0.03361  0.02638  0.20944  Biso   1.000  Cl
  Cl22     1.0000 0.96639  0.02638  0.29056  Biso   1.000  Cl
  Cl23     1.0000 0.53361  0.52638  0.20944  Biso   1.000  Cl
  Cl24     1.0000 0.46639  0.52638  0.29056  Biso   1.000  Cl
  Cl25     1.0000 0.96639  0.97362  0.79056  Biso   1.000  Cl
  Cl26     1.0000 0.03361  0.97362  0.70944  Biso   1.000  Cl
  Cl27     1.0000 0.46639  0.47362  0.79056  Biso   1.000  Cl
  Cl28     1.0000 0.53361  0.47362  0.70944  Biso   1.000  Cl
  C181     1.0000 0.00000  0.10220  0.25000  Biso   1.000  C
  C182     1.0000 0.50000  0.60220  0.25000  Biso   1.000  C
  C183     1.0000 0.00000  0.89780  0.75000  Biso   1.000  C
  C184     1.0000 0.50000  0.39780  0.75000  Biso   1.000  C
  H261     1.0000 0.96370  0.14650  0.21910  Biso   1.000  H
  H262     1.0000 0.03630  0.14650  0.28090  Biso   1.000  H
  H263     1.0000 0.46370  0.64650  0.21910  Biso   1.000  H
  H264     1.0000 0.53630  0.64650  0.28090  Biso   1.000  H
  H265     1.0000 0.03630  0.85350  0.78090  Biso   1.000  H
  H266     1.0000 0.96370  0.85350  0.71910  Biso   1.000  H
  H267     1.0000 0.53630  0.35350  0.78090  Biso   1.000  H
  H268     1.0000 0.46370  0.35350  0.71910  Biso   1.000  H
