data_image0
_cell_length_a       5.9567
_cell_length_b       20.497
_cell_length_c       10.18
_cell_angle_alpha    90
_cell_angle_beta     98.4
_cell_angle_gamma    90

_symmetry_space_group_name_H-M    "P 1"
_symmetry_int_tables_number       1

loop_
  _symmetry_equiv_pos_as_xyz
  'x, y, z'

loop_
  _atom_site_label
  _atom_site_occupancy
  _atom_site_fract_x
  _atom_site_fract_y
  _atom_site_fract_z
  _atom_site_thermal_displace_type
  _atom_site_B_iso_or_equiv
  _atom_site_type_symbol
  Cu1      1.0000 0.50000  0.00000  0.50000  Biso   1.000  Cu
  Cu2      1.0000 0.50000  0.50000  0.00000  Biso   1.000  Cu
  C1       1.0000 0.32330  0.08618  0.06960  Biso   1.000  C
  C2       1.0000 0.67670  0.58618  0.43040  Biso   1.000  C
  C3       1.0000 0.67670  0.91382  0.93040  Biso   1.000  C
  C4       1.0000 0.32330  0.41382  0.56960  Biso   1.000  C
  C5       1.0000 0.37040  0.06747  0.93330  Biso   1.000  C
  C6       1.0000 0.62960  0.56747  0.56670  Biso   1.000  C
  C7       1.0000 0.62960  0.93253  0.06670  Biso   1.000  C
  C8       1.0000 0.37040  0.43253  0.43330  Biso   1.000  C
  C9       1.0000 0.57700  0.08093  0.88860  Biso   1.000  C
  C10      1.0000 0.42300  0.58093  0.61140  Biso   1.000  C
  C11      1.0000 0.42300  0.91907  0.11140  Biso   1.000  C
  C12      1.0000 0.57700  0.41907  0.38860  Biso   1.000  C
  H1       1.0000 0.69210  0.10310  0.94220  Biso   1.000  H
  H2       1.0000 0.30790  0.60310  0.55780  Biso   1.000  H
  H3       1.0000 0.30790  0.89690  0.05780  Biso   1.000  H
  H4       1.0000 0.69210  0.39690  0.44220  Biso   1.000  H
  C13      1.0000 0.60550  0.06058  0.76330  Biso   1.000  C
  C14      1.0000 0.39450  0.56058  0.73670  Biso   1.000  C
  C15      1.0000 0.39450  0.93942  0.23670  Biso   1.000  C
  C16      1.0000 0.60550  0.43942  0.26330  Biso   1.000  C
  H5       1.0000 0.74280  0.06950  0.73360  Biso   1.000  H
  H6       1.0000 0.25720  0.56950  0.76640  Biso   1.000  H
  H7       1.0000 0.25720  0.93050  0.26640  Biso   1.000  H
  H8       1.0000 0.74280  0.43050  0.23360  Biso   1.000  H
  C17      1.0000 0.20610  0.03380  0.84970  Biso   1.000  C
  C18      1.0000 0.79390  0.53380  0.65030  Biso   1.000  C
  C19      1.0000 0.79390  0.96620  0.15030  Biso   1.000  C
  C20      1.0000 0.20610  0.46620  0.34970  Biso   1.000  C
  H9       1.0000 0.06810  0.02370  0.87730  Biso   1.000  H
  H10      1.0000 0.93190  0.52370  0.62270  Biso   1.000  H
  H11      1.0000 0.93190  0.97630  0.12270  Biso   1.000  H
  H12      1.0000 0.06810  0.47630  0.37730  Biso   1.000  H
  C21      1.0000 0.24750  0.01528  0.72570  Biso   1.000  C
  C22      1.0000 0.75250  0.51528  0.77430  Biso   1.000  C
  C23      1.0000 0.75250  0.98472  0.27430  Biso   1.000  C
  C24      1.0000 0.24750  0.48472  0.22570  Biso   1.000  C
  H13      1.0000 0.13540  0.99290  0.67030  Biso   1.000  H
  H14      1.0000 0.86460  0.49290  0.82970  Biso   1.000  H
  H15      1.0000 0.86460  0.00710  0.32970  Biso   1.000  H
  H16      1.0000 0.13540  0.50710  0.17030  Biso   1.000  H
  C25      1.0000 0.22450  0.26337  0.23540  Biso   1.000  C
  C26      1.0000 0.77550  0.76337  0.26460  Biso   1.000  C
  C27      1.0000 0.77550  0.73663  0.76460  Biso   1.000  C
  C28      1.0000 0.22450  0.23663  0.73540  Biso   1.000  C
  H17      1.0000 0.37040  0.27300  0.27680  Biso   1.000  H
  H18      1.0000 0.62960  0.77300  0.22320  Biso   1.000  H
  H19      1.0000 0.62960  0.72700  0.72320  Biso   1.000  H
  H20      1.0000 0.37040  0.22700  0.77680  Biso   1.000  H
  C29      1.0000 0.92360  0.19193  0.19930  Biso   1.000  C
  C30      1.0000 0.07640  0.69193  0.30070  Biso   1.000  C
  C31      1.0000 0.07640  0.80807  0.80070  Biso   1.000  C
  C32      1.0000 0.92360  0.30807  0.69930  Biso   1.000  C
  H21      1.0000 0.85900  0.15200  0.21570  Biso   1.000  H
  H22      1.0000 0.14100  0.65200  0.28430  Biso   1.000  H
  H23      1.0000 0.14100  0.84800  0.78430  Biso   1.000  H
  H24      1.0000 0.85900  0.34800  0.71570  Biso   1.000  H
  C33      1.0000 0.79550  0.23645  0.11910  Biso   1.000  C
  C34      1.0000 0.20450  0.73645  0.38090  Biso   1.000  C
  C35      1.0000 0.20450  0.76355  0.88090  Biso   1.000  C
  C36      1.0000 0.79550  0.26355  0.61910  Biso   1.000  C
  H25      1.0000 0.64770  0.22640  0.08170  Biso   1.000  H
  H26      1.0000 0.35230  0.72640  0.41830  Biso   1.000  H
  H27      1.0000 0.35230  0.77360  0.91830  Biso   1.000  H
  H28      1.0000 0.64770  0.27360  0.58170  Biso   1.000  H
  C37      1.0000 0.88920  0.29644  0.09460  Biso   1.000  C
  C38      1.0000 0.11080  0.79644  0.40540  Biso   1.000  C
  C39      1.0000 0.11080  0.70356  0.90540  Biso   1.000  C
  C40      1.0000 0.88920  0.20356  0.59460  Biso   1.000  C
  C41      1.0000 0.10720  0.31044  0.15750  Biso   1.000  C
  C42      1.0000 0.89280  0.81044  0.34250  Biso   1.000  C
  C43      1.0000 0.89280  0.68956  0.84250  Biso   1.000  C
  C44      1.0000 0.10720  0.18956  0.65750  Biso   1.000  C
  H29      1.0000 0.17240  0.35100  0.14700  Biso   1.000  H
  H30      1.0000 0.82760  0.85100  0.35300  Biso   1.000  H
  H31      1.0000 0.82760  0.64900  0.85300  Biso   1.000  H
  H32      1.0000 0.17240  0.14900  0.64700  Biso   1.000  H
  C45      1.0000 0.75420  0.34495  0.00150  Biso   1.000  C
  C46      1.0000 0.24580  0.84495  0.49850  Biso   1.000  C
  C47      1.0000 0.24580  0.65505  0.99850  Biso   1.000  C
  C48      1.0000 0.75420  0.15505  0.50150  Biso   1.000  C
  Cu3      1.0000 0.35184  0.12752  0.31445  Biso   1.000  Cu
  Cu4      1.0000 0.64816  0.62752  0.18555  Biso   1.000  Cu
  Cu5      1.0000 0.64816  0.87248  0.68555  Biso   1.000  Cu
  Cu6      1.0000 0.35184  0.37248  0.81445  Biso   1.000  Cu
  H33      1.0000 0.19700  0.06300  0.45100  Biso   1.000  H
  H34      1.0000 0.80300  0.56300  0.04900  Biso   1.000  H
  H35      1.0000 0.80300  0.93700  0.54900  Biso   1.000  H
  H36      1.0000 0.19700  0.43700  0.95100  Biso   1.000  H
  N1       1.0000 0.13850  0.20402  0.25470  Biso   1.000  N
  N2       1.0000 0.86150  0.70402  0.24530  Biso   1.000  N
  N3       1.0000 0.86150  0.79598  0.74530  Biso   1.000  N
  N4       1.0000 0.13850  0.29598  0.75470  Biso   1.000  N
  N5       1.0000 0.44580  0.02859  0.68180  Biso   1.000  N
  N6       1.0000 0.55420  0.52859  0.81820  Biso   1.000  N
  N7       1.0000 0.55420  0.97141  0.31820  Biso   1.000  N
  N8       1.0000 0.44580  0.47141  0.18180  Biso   1.000  N
  O1       1.0000 0.26100  0.05622  0.41540  Biso   1.000  O
  O2       1.0000 0.73900  0.55622  0.08460  Biso   1.000  O
  O3       1.0000 0.73900  0.94378  0.58460  Biso   1.000  O
  O4       1.0000 0.26100  0.44378  0.91540  Biso   1.000  O
  O5       1.0000 0.48610  0.10982  0.15030  Biso   1.000  O
  O6       1.0000 0.51390  0.60982  0.34970  Biso   1.000  O
  O7       1.0000 0.51390  0.89018  0.84970  Biso   1.000  O
  O8       1.0000 0.48610  0.39018  0.65030  Biso   1.000  O
  O9       1.0000 0.12770  0.07772  0.09650  Biso   1.000  O
  O10      1.0000 0.87230  0.57772  0.40350  Biso   1.000  O
  O11      1.0000 0.87230  0.92228  0.90350  Biso   1.000  O
  O12      1.0000 0.12770  0.42228  0.59650  Biso   1.000  O
  O13      1.0000 0.82210  0.40207  0.99770  Biso   1.000  O
  O14      1.0000 0.17790  0.90207  0.50230  Biso   1.000  O
  O15      1.0000 0.17790  0.59793  0.00230  Biso   1.000  O
  O16      1.0000 0.82210  0.09793  0.49770  Biso   1.000  O
  O17      1.0000 0.57800  0.32093  0.93360  Biso   1.000  O
  O18      1.0000 0.42200  0.82093  0.56640  Biso   1.000  O
  O19      1.0000 0.42200  0.67907  0.06640  Biso   1.000  O
  O20      1.0000 0.57800  0.17907  0.43360  Biso   1.000  O
