data_image0
_cell_length_a       28.03
_cell_length_b       16.91
_cell_length_c       11.125
_cell_angle_alpha    90
_cell_angle_beta     95.03
_cell_angle_gamma    90

_symmetry_space_group_name_H-M    "P 1"
_symmetry_int_tables_number       1

loop_
  _symmetry_equiv_pos_as_xyz
  'x, y, z'

loop_
  _atom_site_label
  _atom_site_occupancy
  _atom_site_fract_x
  _atom_site_fract_y
  _atom_site_fract_z
  _atom_site_thermal_displace_type
  _atom_site_B_iso_or_equiv
  _atom_site_type_symbol
  Cu1      1.0000 0.20070  0.01127  0.62677  Biso   1.000  Cu
  Cu2      1.0000 0.79930  0.01127  0.87323  Biso   1.000  Cu
  Cu3      1.0000 0.70070  0.51127  0.62677  Biso   1.000  Cu
  Cu4      1.0000 0.29930  0.51127  0.87323  Biso   1.000  Cu
  Cu5      1.0000 0.79930  0.98873  0.37323  Biso   1.000  Cu
  Cu6      1.0000 0.20070  0.98873  0.12677  Biso   1.000  Cu
  Cu7      1.0000 0.29930  0.48873  0.37323  Biso   1.000  Cu
  Cu8      1.0000 0.70070  0.48873  0.12677  Biso   1.000  Cu
  Cu9      1.0000 0.16149  0.34753  0.52353  Biso   1.000  Cu
  Cu10     1.0000 0.83851  0.34753  0.97647  Biso   1.000  Cu
  Cu11     1.0000 0.66149  0.84753  0.52353  Biso   1.000  Cu
  Cu12     1.0000 0.33851  0.84753  0.97647  Biso   1.000  Cu
  Cu13     1.0000 0.83851  0.65247  0.47647  Biso   1.000  Cu
  Cu14     1.0000 0.16149  0.65247  0.02353  Biso   1.000  Cu
  Cu15     1.0000 0.33851  0.15247  0.47647  Biso   1.000  Cu
  Cu16     1.0000 0.66149  0.15247  0.02353  Biso   1.000  Cu
  O1       1.0000 0.19911  0.89737  0.60780  Biso   1.000  O
  O2       1.0000 0.80089  0.89737  0.89220  Biso   1.000  O
  O3       1.0000 0.69911  0.39737  0.60780  Biso   1.000  O
  O4       1.0000 0.30089  0.39737  0.89220  Biso   1.000  O
  O5       1.0000 0.80089  0.10263  0.39220  Biso   1.000  O
  O6       1.0000 0.19911  0.10263  0.10780  Biso   1.000  O
  O7       1.0000 0.30089  0.60263  0.39220  Biso   1.000  O
  O8       1.0000 0.69911  0.60263  0.10780  Biso   1.000  O
  O9       1.0000 0.14564  0.02330  0.51050  Biso   1.000  O
  O10      1.0000 0.85436  0.02330  0.98950  Biso   1.000  O
  O11      1.0000 0.64564  0.52330  0.51050  Biso   1.000  O
  O12      1.0000 0.35436  0.52330  0.98950  Biso   1.000  O
  O13      1.0000 0.85436  0.97670  0.48950  Biso   1.000  O
  O14      1.0000 0.14564  0.97670  0.01050  Biso   1.000  O
  O15      1.0000 0.35436  0.47670  0.48950  Biso   1.000  O
  O16      1.0000 0.64564  0.47670  0.01050  Biso   1.000  O
  O17      1.0000 0.09926  0.29520  0.50810  Biso   1.000  O
  O18      1.0000 0.90074  0.29520  0.99190  Biso   1.000  O
  O19      1.0000 0.59926  0.79520  0.50810  Biso   1.000  O
  O20      1.0000 0.40074  0.79520  0.99190  Biso   1.000  O
  O21      1.0000 0.90074  0.70480  0.49190  Biso   1.000  O
  O22      1.0000 0.09926  0.70480  0.00810  Biso   1.000  O
  O23      1.0000 0.40074  0.20480  0.49190  Biso   1.000  O
  O24      1.0000 0.59926  0.20480  0.00810  Biso   1.000  O
  O25      1.0000 0.14429  0.41550  0.38770  Biso   1.000  O
  O26      1.0000 0.85571  0.41550  0.11230  Biso   1.000  O
  O27      1.0000 0.64429  0.91550  0.38770  Biso   1.000  O
  O28      1.0000 0.35571  0.91550  0.11230  Biso   1.000  O
  O29      1.0000 0.85571  0.58450  0.61230  Biso   1.000  O
  O30      1.0000 0.14429  0.58450  0.88770  Biso   1.000  O
  O31      1.0000 0.35571  0.08450  0.61230  Biso   1.000  O
  O32      1.0000 0.64429  0.08450  0.88770  Biso   1.000  O
  N1       1.0000 0.20770  0.12640  0.63090  Biso   1.000  N
  N2       1.0000 0.79230  0.12640  0.86910  Biso   1.000  N
  N3       1.0000 0.70770  0.62640  0.63090  Biso   1.000  N
  N4       1.0000 0.29230  0.62640  0.86910  Biso   1.000  N
  N5       1.0000 0.79230  0.87360  0.36910  Biso   1.000  N
  N6       1.0000 0.20770  0.87360  0.13090  Biso   1.000  N
  N7       1.0000 0.29230  0.37360  0.36910  Biso   1.000  N
  N8       1.0000 0.70770  0.37360  0.13090  Biso   1.000  N
  N9       1.0000 0.19312  0.25580  0.59890  Biso   1.000  N
  N10      1.0000 0.80688  0.25580  0.90110  Biso   1.000  N
  N11      1.0000 0.69312  0.75580  0.59890  Biso   1.000  N
  N12      1.0000 0.30688  0.75580  0.90110  Biso   1.000  N
  N13      1.0000 0.80688  0.74420  0.40110  Biso   1.000  N
  N14      1.0000 0.19312  0.74420  0.09890  Biso   1.000  N
  N15      1.0000 0.30688  0.24420  0.40110  Biso   1.000  N
  N16      1.0000 0.69312  0.24420  0.09890  Biso   1.000  N
  N17      1.0000 0.20429  0.42930  0.59530  Biso   1.000  N
  N18      1.0000 0.79571  0.42930  0.90470  Biso   1.000  N
  N19      1.0000 0.70429  0.92930  0.59530  Biso   1.000  N
  N20      1.0000 0.29571  0.92930  0.90470  Biso   1.000  N
  N21      1.0000 0.79571  0.57070  0.40470  Biso   1.000  N
  N22      1.0000 0.20429  0.57070  0.09530  Biso   1.000  N
  N23      1.0000 0.29571  0.07070  0.40470  Biso   1.000  N
  N24      1.0000 0.70429  0.07070  0.09530  Biso   1.000  N
  N25      1.0000 0.25360  0.49450  0.72990  Biso   1.000  N
  N26      1.0000 0.74640  0.49450  0.77010  Biso   1.000  N
  N27      1.0000 0.75360  0.99450  0.72990  Biso   1.000  N
  N28      1.0000 0.24640  0.99450  0.77010  Biso   1.000  N
  N29      1.0000 0.74640  0.50550  0.27010  Biso   1.000  N
  N30      1.0000 0.25360  0.50550  0.22990  Biso   1.000  N
  N31      1.0000 0.24640  0.00550  0.27010  Biso   1.000  N
  N32      1.0000 0.75360  0.00550  0.22990  Biso   1.000  N
  C1       1.0000 0.17542  0.18120  0.59490  Biso   1.000  C
  C2       1.0000 0.82458  0.18120  0.90510  Biso   1.000  C
  C3       1.0000 0.67542  0.68120  0.59490  Biso   1.000  C
  C4       1.0000 0.32458  0.68120  0.90510  Biso   1.000  C
  C5       1.0000 0.82458  0.81880  0.40510  Biso   1.000  C
  C6       1.0000 0.17542  0.81880  0.09490  Biso   1.000  C
  C7       1.0000 0.32458  0.31880  0.40510  Biso   1.000  C
  C8       1.0000 0.67542  0.31880  0.09490  Biso   1.000  C
  C9       1.0000 0.24096  0.24620  0.64060  Biso   1.000  C
  C10      1.0000 0.75904  0.24620  0.85940  Biso   1.000  C
  C11      1.0000 0.74096  0.74620  0.64060  Biso   1.000  C
  C12      1.0000 0.25904  0.74620  0.85940  Biso   1.000  C
  C13      1.0000 0.75904  0.75380  0.35940  Biso   1.000  C
  C14      1.0000 0.24096  0.75380  0.14060  Biso   1.000  C
  C15      1.0000 0.25904  0.25380  0.35940  Biso   1.000  C
  C16      1.0000 0.74096  0.25380  0.14060  Biso   1.000  C
  C17      1.0000 0.25002  0.16800  0.66050  Biso   1.000  C
  C18      1.0000 0.74998  0.16800  0.83950  Biso   1.000  C
  C19      1.0000 0.75002  0.66800  0.66050  Biso   1.000  C
  C20      1.0000 0.24998  0.66800  0.83950  Biso   1.000  C
  C21      1.0000 0.74998  0.83200  0.33950  Biso   1.000  C
  C22      1.0000 0.25002  0.83200  0.16050  Biso   1.000  C
  C23      1.0000 0.24998  0.33200  0.33950  Biso   1.000  C
  C24      1.0000 0.75002  0.33200  0.16050  Biso   1.000  C
  C25      1.0000 0.14470  0.73420  0.63200  Biso   1.000  C
  C26      1.0000 0.85530  0.73420  0.86800  Biso   1.000  C
  C27      1.0000 0.64470  0.23420  0.63200  Biso   1.000  C
  C28      1.0000 0.35530  0.23420  0.86800  Biso   1.000  C
  C29      1.0000 0.85530  0.26580  0.36800  Biso   1.000  C
  C30      1.0000 0.14470  0.26580  0.13200  Biso   1.000  C
  C31      1.0000 0.35530  0.76580  0.36800  Biso   1.000  C
  C32      1.0000 0.64470  0.76580  0.13200  Biso   1.000  C
  C33      1.0000 0.17290  0.72470  0.42180  Biso   1.000  C
  C34      1.0000 0.82710  0.72470  0.07820  Biso   1.000  C
  C35      1.0000 0.67290  0.22470  0.42180  Biso   1.000  C
  C36      1.0000 0.32710  0.22470  0.07820  Biso   1.000  C
  C37      1.0000 0.82710  0.27530  0.57820  Biso   1.000  C
  C38      1.0000 0.17290  0.27530  0.92180  Biso   1.000  C
  C39      1.0000 0.32710  0.77530  0.57820  Biso   1.000  C
  C40      1.0000 0.67290  0.77530  0.92180  Biso   1.000  C
  C41      1.0000 0.17873  0.76780  0.54420  Biso   1.000  C
  C42      1.0000 0.82127  0.76780  0.95580  Biso   1.000  C
  C43      1.0000 0.67873  0.26780  0.54420  Biso   1.000  C
  C44      1.0000 0.32127  0.26780  0.95580  Biso   1.000  C
  C45      1.0000 0.82127  0.23220  0.45580  Biso   1.000  C
  C46      1.0000 0.17873  0.23220  0.04420  Biso   1.000  C
  C47      1.0000 0.32127  0.73220  0.45580  Biso   1.000  C
  C48      1.0000 0.67873  0.73220  0.04420  Biso   1.000  C
  C49      1.0000 0.17123  0.85650  0.53350  Biso   1.000  C
  C50      1.0000 0.82877  0.85650  0.96650  Biso   1.000  C
  C51      1.0000 0.67123  0.35650  0.53350  Biso   1.000  C
  C52      1.0000 0.32877  0.35650  0.96650  Biso   1.000  C
  C53      1.0000 0.82877  0.14350  0.46650  Biso   1.000  C
  C54      1.0000 0.17123  0.14350  0.03350  Biso   1.000  C
  C55      1.0000 0.32877  0.64350  0.46650  Biso   1.000  C
  C56      1.0000 0.67123  0.64350  0.03350  Biso   1.000  C
  C57      1.0000 0.13561  0.88920  0.45060  Biso   1.000  C
  C58      1.0000 0.86439  0.88920  0.04940  Biso   1.000  C
  C59      1.0000 0.63561  0.38920  0.45060  Biso   1.000  C
  C60      1.0000 0.36439  0.38920  0.04940  Biso   1.000  C
  C61      1.0000 0.86439  0.11080  0.54940  Biso   1.000  C
  C62      1.0000 0.13561  0.11080  0.95060  Biso   1.000  C
  C63      1.0000 0.36439  0.61080  0.54940  Biso   1.000  C
  C64      1.0000 0.63561  0.61080  0.95060  Biso   1.000  C
  C65      1.0000 0.12483  0.96980  0.44290  Biso   1.000  C
  C66      1.0000 0.87517  0.96980  0.05710  Biso   1.000  C
  C67      1.0000 0.62483  0.46980  0.44290  Biso   1.000  C
  C68      1.0000 0.37517  0.46980  0.05710  Biso   1.000  C
  C69      1.0000 0.87517  0.03020  0.55710  Biso   1.000  C
  C70      1.0000 0.12483  0.03020  0.94290  Biso   1.000  C
  C71      1.0000 0.37517  0.53020  0.55710  Biso   1.000  C
  C72      1.0000 0.62483  0.53020  0.94290  Biso   1.000  C
  C73      1.0000 0.06640  0.93980  0.25550  Biso   1.000  C
  C74      1.0000 0.93360  0.93980  0.24450  Biso   1.000  C
  C75      1.0000 0.56640  0.43980  0.25550  Biso   1.000  C
  C76      1.0000 0.43360  0.43980  0.24450  Biso   1.000  C
  C77      1.0000 0.93360  0.06020  0.74450  Biso   1.000  C
  C78      1.0000 0.06640  0.06020  0.75550  Biso   1.000  C
  C79      1.0000 0.43360  0.56020  0.74450  Biso   1.000  C
  C80      1.0000 0.56640  0.56020  0.75550  Biso   1.000  C
  C81      1.0000 0.10350  0.07460  0.28730  Biso   1.000  C
  C82      1.0000 0.89650  0.07460  0.21270  Biso   1.000  C
  C83      1.0000 0.60350  0.57460  0.28730  Biso   1.000  C
  C84      1.0000 0.39650  0.57460  0.21270  Biso   1.000  C
  C85      1.0000 0.89650  0.92540  0.71270  Biso   1.000  C
  C86      1.0000 0.10350  0.92540  0.78730  Biso   1.000  C
  C87      1.0000 0.39650  0.42540  0.71270  Biso   1.000  C
  C88      1.0000 0.60350  0.42540  0.78730  Biso   1.000  C
  C89      1.0000 0.08517  0.00030  0.35140  Biso   1.000  C
  C90      1.0000 0.91483  0.00030  0.14860  Biso   1.000  C
  C91      1.0000 0.58517  0.50030  0.35140  Biso   1.000  C
  C92      1.0000 0.41483  0.50030  0.14860  Biso   1.000  C
  C93      1.0000 0.91483  0.99970  0.64860  Biso   1.000  C
  C94      1.0000 0.08517  0.99970  0.85140  Biso   1.000  C
  C95      1.0000 0.41483  0.49970  0.64860  Biso   1.000  C
  C96      1.0000 0.58517  0.49970  0.85140  Biso   1.000  C
  C97      1.0000 0.22713  0.42920  0.70650  Biso   1.000  C
  C98      1.0000 0.77287  0.42920  0.79350  Biso   1.000  C
  C99      1.0000 0.72713  0.92920  0.70650  Biso   1.000  C
  C100     1.0000 0.27287  0.92920  0.79350  Biso   1.000  C
  C101     1.0000 0.77287  0.57080  0.29350  Biso   1.000  C
  C102     1.0000 0.22713  0.57080  0.20650  Biso   1.000  C
  C103     1.0000 0.27287  0.07080  0.29350  Biso   1.000  C
  C104     1.0000 0.72713  0.07080  0.20650  Biso   1.000  C
  C105     1.0000 0.24749  0.53930  0.62590  Biso   1.000  C
  C106     1.0000 0.75251  0.53930  0.87410  Biso   1.000  C
  C107     1.0000 0.74749  0.03930  0.62590  Biso   1.000  C
  C108     1.0000 0.25251  0.03930  0.87410  Biso   1.000  C
  C109     1.0000 0.75251  0.46070  0.37410  Biso   1.000  C
  C110     1.0000 0.24749  0.46070  0.12590  Biso   1.000  C
  C111     1.0000 0.25251  0.96070  0.37410  Biso   1.000  C
  C112     1.0000 0.74749  0.96070  0.12590  Biso   1.000  C
  C113     1.0000 0.21717  0.49950  0.54340  Biso   1.000  C
  C114     1.0000 0.78283  0.49950  0.95660  Biso   1.000  C
  C115     1.0000 0.71717  0.99950  0.54340  Biso   1.000  C
  C116     1.0000 0.28283  0.99950  0.95660  Biso   1.000  C
  C117     1.0000 0.78283  0.50050  0.45660  Biso   1.000  C
  C118     1.0000 0.21717  0.50050  0.04340  Biso   1.000  C
  C119     1.0000 0.28283  0.00050  0.45660  Biso   1.000  C
  C120     1.0000 0.71717  0.00050  0.04340  Biso   1.000  C
  C121     1.0000 0.00220  0.29860  0.58260  Biso   1.000  C
  C122     1.0000 0.99780  0.29860  0.91740  Biso   1.000  C
  C123     1.0000 0.50220  0.79860  0.58260  Biso   1.000  C
  C124     1.0000 0.49780  0.79860  0.91740  Biso   1.000  C
  C125     1.0000 0.99780  0.70140  0.41740  Biso   1.000  C
  C126     1.0000 0.00220  0.70140  0.08260  Biso   1.000  C
  C127     1.0000 0.49780  0.20140  0.41740  Biso   1.000  C
  C128     1.0000 0.50220  0.20140  0.08260  Biso   1.000  C
  C129     1.0000 0.01920  0.18540  0.44700  Biso   1.000  C
  C130     1.0000 0.98080  0.18540  0.05300  Biso   1.000  C
  C131     1.0000 0.51920  0.68540  0.44700  Biso   1.000  C
  C132     1.0000 0.48080  0.68540  0.05300  Biso   1.000  C
  C133     1.0000 0.98080  0.81460  0.55300  Biso   1.000  C
  C134     1.0000 0.01920  0.81460  0.94700  Biso   1.000  C
  C135     1.0000 0.48080  0.31460  0.55300  Biso   1.000  C
  C136     1.0000 0.51920  0.31460  0.94700  Biso   1.000  C
  C137     1.0000 0.01593  0.27520  0.45820  Biso   1.000  C
  C138     1.0000 0.98407  0.27520  0.04180  Biso   1.000  C
  C139     1.0000 0.51593  0.77520  0.45820  Biso   1.000  C
  C140     1.0000 0.48407  0.77520  0.04180  Biso   1.000  C
  C141     1.0000 0.98407  0.72480  0.54180  Biso   1.000  C
  C142     1.0000 0.01593  0.72480  0.95820  Biso   1.000  C
  C143     1.0000 0.48407  0.22480  0.54180  Biso   1.000  C
  C144     1.0000 0.51593  0.22480  0.95820  Biso   1.000  C
  C145     1.0000 0.06342  0.31530  0.43510  Biso   1.000  C
  C146     1.0000 0.93658  0.31530  0.06490  Biso   1.000  C
  C147     1.0000 0.56342  0.81530  0.43510  Biso   1.000  C
  C148     1.0000 0.43658  0.81530  0.06490  Biso   1.000  C
  C149     1.0000 0.93658  0.68470  0.56490  Biso   1.000  C
  C150     1.0000 0.06342  0.68470  0.93510  Biso   1.000  C
  C151     1.0000 0.43658  0.18470  0.56490  Biso   1.000  C
  C152     1.0000 0.56342  0.18470  0.93510  Biso   1.000  C
  C153     1.0000 0.06465  0.37100  0.34300  Biso   1.000  C
  C154     1.0000 0.93535  0.37100  0.15700  Biso   1.000  C
  C155     1.0000 0.56465  0.87100  0.34300  Biso   1.000  C
  C156     1.0000 0.43535  0.87100  0.15700  Biso   1.000  C
  C157     1.0000 0.93535  0.62900  0.65700  Biso   1.000  C
  C158     1.0000 0.06465  0.62900  0.84300  Biso   1.000  C
  C159     1.0000 0.43535  0.12900  0.65700  Biso   1.000  C
  C160     1.0000 0.56465  0.12900  0.84300  Biso   1.000  C
  C161     1.0000 0.10430  0.41730  0.32170  Biso   1.000  C
  C162     1.0000 0.89570  0.41730  0.17830  Biso   1.000  C
  C163     1.0000 0.60430  0.91730  0.32170  Biso   1.000  C
  C164     1.0000 0.39570  0.91730  0.17830  Biso   1.000  C
  C165     1.0000 0.89570  0.58270  0.67830  Biso   1.000  C
  C166     1.0000 0.10430  0.58270  0.82170  Biso   1.000  C
  C167     1.0000 0.39570  0.08270  0.67830  Biso   1.000  C
  C168     1.0000 0.60430  0.08270  0.82170  Biso   1.000  C
  C169     1.0000 0.09540  0.56030  0.27850  Biso   1.000  C
  C170     1.0000 0.90460  0.56030  0.22150  Biso   1.000  C
  C171     1.0000 0.59540  0.06030  0.27850  Biso   1.000  C
  C172     1.0000 0.40460  0.06030  0.22150  Biso   1.000  C
  C173     1.0000 0.90460  0.43970  0.72150  Biso   1.000  C
  C174     1.0000 0.09540  0.43970  0.77850  Biso   1.000  C
  C175     1.0000 0.40460  0.93970  0.72150  Biso   1.000  C
  C176     1.0000 0.59540  0.93970  0.77850  Biso   1.000  C
  C177     1.0000 0.06590  0.46410  0.11440  Biso   1.000  C
  C178     1.0000 0.93410  0.46410  0.38560  Biso   1.000  C
  C179     1.0000 0.56590  0.96410  0.11440  Biso   1.000  C
  C180     1.0000 0.43410  0.96410  0.38560  Biso   1.000  C
  C181     1.0000 0.93410  0.53590  0.88560  Biso   1.000  C
  C182     1.0000 0.06590  0.53590  0.61440  Biso   1.000  C
  C183     1.0000 0.43410  0.03590  0.88560  Biso   1.000  C
  C184     1.0000 0.56590  0.03590  0.61440  Biso   1.000  C
  C185     1.0000 0.10283  0.47910  0.22070  Biso   1.000  C
  C186     1.0000 0.89717  0.47910  0.27930  Biso   1.000  C
  C187     1.0000 0.60283  0.97910  0.22070  Biso   1.000  C
  C188     1.0000 0.39717  0.97910  0.27930  Biso   1.000  C
  C189     1.0000 0.89717  0.52090  0.77930  Biso   1.000  C
  C190     1.0000 0.10283  0.52090  0.72070  Biso   1.000  C
  C191     1.0000 0.39717  0.02090  0.77930  Biso   1.000  C
  C192     1.0000 0.60283  0.02090  0.72070  Biso   1.000  C
  H1       1.0000 0.14310  0.16910  0.56890  Biso   1.000  H
  H2       1.0000 0.85690  0.16910  0.93110  Biso   1.000  H
  H3       1.0000 0.64310  0.66910  0.56890  Biso   1.000  H
  H4       1.0000 0.35690  0.66910  0.93110  Biso   1.000  H
  H5       1.0000 0.85690  0.83090  0.43110  Biso   1.000  H
  H6       1.0000 0.14310  0.83090  0.06890  Biso   1.000  H
  H7       1.0000 0.35690  0.33090  0.43110  Biso   1.000  H
  H8       1.0000 0.64310  0.33090  0.06890  Biso   1.000  H
  H9       1.0000 0.26370  0.28760  0.65330  Biso   1.000  H
  H10      1.0000 0.73630  0.28760  0.84670  Biso   1.000  H
  H11      1.0000 0.76370  0.78760  0.65330  Biso   1.000  H
  H12      1.0000 0.23630  0.78760  0.84670  Biso   1.000  H
  H13      1.0000 0.73630  0.71240  0.34670  Biso   1.000  H
  H14      1.0000 0.26370  0.71240  0.15330  Biso   1.000  H
  H15      1.0000 0.23630  0.21240  0.34670  Biso   1.000  H
  H16      1.0000 0.76370  0.21240  0.15330  Biso   1.000  H
  H17      1.0000 0.27990  0.14570  0.68940  Biso   1.000  H
  H18      1.0000 0.72010  0.14570  0.81060  Biso   1.000  H
  H19      1.0000 0.77990  0.64570  0.68940  Biso   1.000  H
  H20      1.0000 0.22010  0.64570  0.81060  Biso   1.000  H
  H21      1.0000 0.72010  0.85430  0.31060  Biso   1.000  H
  H22      1.0000 0.27990  0.85430  0.18940  Biso   1.000  H
  H23      1.0000 0.22010  0.35430  0.31060  Biso   1.000  H
  H24      1.0000 0.77990  0.35430  0.18940  Biso   1.000  H
  H25      1.0000 0.16010  0.69230  0.67720  Biso   1.000  H
  H26      1.0000 0.83990  0.69230  0.82280  Biso   1.000  H
  H27      1.0000 0.66010  0.19230  0.67720  Biso   1.000  H
  H28      1.0000 0.33990  0.19230  0.82280  Biso   1.000  H
  H29      1.0000 0.83990  0.30770  0.32280  Biso   1.000  H
  H30      1.0000 0.16010  0.30770  0.17720  Biso   1.000  H
  H31      1.0000 0.33990  0.80770  0.32280  Biso   1.000  H
  H32      1.0000 0.66010  0.80770  0.17720  Biso   1.000  H
  H33      1.0000 0.13620  0.77470  0.68530  Biso   1.000  H
  H34      1.0000 0.86380  0.77470  0.81470  Biso   1.000  H
  H35      1.0000 0.63620  0.27470  0.68530  Biso   1.000  H
  H36      1.0000 0.36380  0.27470  0.81470  Biso   1.000  H
  H37      1.0000 0.86380  0.22530  0.31470  Biso   1.000  H
  H38      1.0000 0.13620  0.22530  0.18530  Biso   1.000  H
  H39      1.0000 0.36380  0.72530  0.31470  Biso   1.000  H
  H40      1.0000 0.63620  0.72530  0.18530  Biso   1.000  H
  H41      1.0000 0.11660  0.71460  0.58780  Biso   1.000  H
  H42      1.0000 0.88340  0.71460  0.91220  Biso   1.000  H
  H43      1.0000 0.61660  0.21460  0.58780  Biso   1.000  H
  H44      1.0000 0.38340  0.21460  0.91220  Biso   1.000  H
  H45      1.0000 0.88340  0.28540  0.41220  Biso   1.000  H
  H46      1.0000 0.11660  0.28540  0.08780  Biso   1.000  H
  H47      1.0000 0.38340  0.78540  0.41220  Biso   1.000  H
  H48      1.0000 0.61660  0.78540  0.08780  Biso   1.000  H
  H49      1.0000 0.14920  0.75070  0.36980  Biso   1.000  H
  H50      1.0000 0.85080  0.75070  0.13020  Biso   1.000  H
  H51      1.0000 0.64920  0.25070  0.36980  Biso   1.000  H
  H52      1.0000 0.35080  0.25070  0.13020  Biso   1.000  H
  H53      1.0000 0.85080  0.24930  0.63020  Biso   1.000  H
  H54      1.0000 0.14920  0.24930  0.86980  Biso   1.000  H
  H55      1.0000 0.35080  0.74930  0.63020  Biso   1.000  H
  H56      1.0000 0.64920  0.74930  0.86980  Biso   1.000  H
  H57      1.0000 0.20260  0.72530  0.38650  Biso   1.000  H
  H58      1.0000 0.79740  0.72530  0.11350  Biso   1.000  H
  H59      1.0000 0.70260  0.22530  0.38650  Biso   1.000  H
  H60      1.0000 0.29740  0.22530  0.11350  Biso   1.000  H
  H61      1.0000 0.79740  0.27470  0.61350  Biso   1.000  H
  H62      1.0000 0.20260  0.27470  0.88650  Biso   1.000  H
  H63      1.0000 0.29740  0.77470  0.61350  Biso   1.000  H
  H64      1.0000 0.70260  0.77470  0.88650  Biso   1.000  H
  H65      1.0000 0.16340  0.67160  0.43380  Biso   1.000  H
  H66      1.0000 0.83660  0.67160  0.06620  Biso   1.000  H
  H67      1.0000 0.66340  0.17160  0.43380  Biso   1.000  H
  H68      1.0000 0.33660  0.17160  0.06620  Biso   1.000  H
  H69      1.0000 0.83660  0.32840  0.56620  Biso   1.000  H
  H70      1.0000 0.16340  0.32840  0.93380  Biso   1.000  H
  H71      1.0000 0.33660  0.82840  0.56620  Biso   1.000  H
  H72      1.0000 0.66340  0.82840  0.93380  Biso   1.000  H
  H73      1.0000 0.21060  0.75910  0.57840  Biso   1.000  H
  H74      1.0000 0.78940  0.75910  0.92160  Biso   1.000  H
  H75      1.0000 0.71060  0.25910  0.57840  Biso   1.000  H
  H76      1.0000 0.28940  0.25910  0.92160  Biso   1.000  H
  H77      1.0000 0.78940  0.24090  0.42160  Biso   1.000  H
  H78      1.0000 0.21060  0.24090  0.07840  Biso   1.000  H
  H79      1.0000 0.28940  0.74090  0.42160  Biso   1.000  H
  H80      1.0000 0.71060  0.74090  0.07840  Biso   1.000  H
  H81      1.0000 0.11790  0.85430  0.39680  Biso   1.000  H
  H82      1.0000 0.88210  0.85430  0.10320  Biso   1.000  H
  H83      1.0000 0.61790  0.35430  0.39680  Biso   1.000  H
  H84      1.0000 0.38210  0.35430  0.10320  Biso   1.000  H
  H85      1.0000 0.88210  0.14570  0.60320  Biso   1.000  H
  H86      1.0000 0.11790  0.14570  0.89680  Biso   1.000  H
  H87      1.0000 0.38210  0.64570  0.60320  Biso   1.000  H
  H88      1.0000 0.61790  0.64570  0.89680  Biso   1.000  H
  H89      1.0000 0.04030  0.91150  0.28360  Biso   1.000  H
  H90      1.0000 0.95970  0.91150  0.21640  Biso   1.000  H
  H91      1.0000 0.54030  0.41150  0.28360  Biso   1.000  H
  H92      1.0000 0.45970  0.41150  0.21640  Biso   1.000  H
  H93      1.0000 0.95970  0.08850  0.71640  Biso   1.000  H
  H94      1.0000 0.04030  0.08850  0.78360  Biso   1.000  H
  H95      1.0000 0.45970  0.58850  0.71640  Biso   1.000  H
  H96      1.0000 0.54030  0.58850  0.78360  Biso   1.000  H
  H97      1.0000 0.05600  0.96670  0.18290  Biso   1.000  H
  H98      1.0000 0.94400  0.96670  0.31710  Biso   1.000  H
  H99      1.0000 0.55600  0.46670  0.18290  Biso   1.000  H
  H100     1.0000 0.44400  0.46670  0.31710  Biso   1.000  H
  H101     1.0000 0.94400  0.03330  0.81710  Biso   1.000  H
  H102     1.0000 0.05600  0.03330  0.68290  Biso   1.000  H
  H103     1.0000 0.44400  0.53330  0.81710  Biso   1.000  H
  H104     1.0000 0.55600  0.53330  0.68290  Biso   1.000  H
  H105     1.0000 0.09130  0.90400  0.24070  Biso   1.000  H
  H106     1.0000 0.90870  0.90400  0.25930  Biso   1.000  H
  H107     1.0000 0.59130  0.40400  0.24070  Biso   1.000  H
  H108     1.0000 0.40870  0.40400  0.25930  Biso   1.000  H
  H109     1.0000 0.90870  0.09600  0.75930  Biso   1.000  H
  H110     1.0000 0.09130  0.09600  0.74070  Biso   1.000  H
  H111     1.0000 0.40870  0.59600  0.75930  Biso   1.000  H
  H112     1.0000 0.59130  0.59600  0.74070  Biso   1.000  H
  H113     1.0000 0.11810  0.05890  0.21730  Biso   1.000  H
  H114     1.0000 0.88190  0.05890  0.28270  Biso   1.000  H
  H115     1.0000 0.61810  0.55890  0.21730  Biso   1.000  H
  H116     1.0000 0.38190  0.55890  0.28270  Biso   1.000  H
  H117     1.0000 0.88190  0.94110  0.78270  Biso   1.000  H
  H118     1.0000 0.11810  0.94110  0.71730  Biso   1.000  H
  H119     1.0000 0.38190  0.44110  0.78270  Biso   1.000  H
  H120     1.0000 0.61810  0.44110  0.71730  Biso   1.000  H
  H121     1.0000 0.07730  0.10870  0.26470  Biso   1.000  H
  H122     1.0000 0.92270  0.10870  0.23530  Biso   1.000  H
  H123     1.0000 0.57730  0.60870  0.26470  Biso   1.000  H
  H124     1.0000 0.42270  0.60870  0.23530  Biso   1.000  H
  H125     1.0000 0.92270  0.89130  0.73530  Biso   1.000  H
  H126     1.0000 0.07730  0.89130  0.76470  Biso   1.000  H
  H127     1.0000 0.42270  0.39130  0.73530  Biso   1.000  H
  H128     1.0000 0.57730  0.39130  0.76470  Biso   1.000  H
  H129     1.0000 0.12620  0.10170  0.34070  Biso   1.000  H
  H130     1.0000 0.87380  0.10170  0.15930  Biso   1.000  H
  H131     1.0000 0.62620  0.60170  0.34070  Biso   1.000  H
  H132     1.0000 0.37380  0.60170  0.15930  Biso   1.000  H
  H133     1.0000 0.87380  0.89830  0.65930  Biso   1.000  H
  H134     1.0000 0.12620  0.89830  0.84070  Biso   1.000  H
  H135     1.0000 0.37380  0.39830  0.65930  Biso   1.000  H
  H136     1.0000 0.62620  0.39830  0.84070  Biso   1.000  H
  H137     1.0000 0.05900  0.01600  0.39460  Biso   1.000  H
  H138     1.0000 0.94100  0.01600  0.10540  Biso   1.000  H
  H139     1.0000 0.55900  0.51600  0.39460  Biso   1.000  H
  H140     1.0000 0.44100  0.51600  0.10540  Biso   1.000  H
  H141     1.0000 0.94100  0.98400  0.60540  Biso   1.000  H
  H142     1.0000 0.05900  0.98400  0.89460  Biso   1.000  H
  H143     1.0000 0.44100  0.48400  0.60540  Biso   1.000  H
  H144     1.0000 0.55900  0.48400  0.89460  Biso   1.000  H
  H145     1.0000 0.22480  0.38740  0.76270  Biso   1.000  H
  H146     1.0000 0.77520  0.38740  0.73730  Biso   1.000  H
  H147     1.0000 0.72480  0.88740  0.76270  Biso   1.000  H
  H148     1.0000 0.27520  0.88740  0.73730  Biso   1.000  H
  H149     1.0000 0.77520  0.61260  0.23730  Biso   1.000  H
  H150     1.0000 0.22480  0.61260  0.26270  Biso   1.000  H
  H151     1.0000 0.27520  0.11260  0.23730  Biso   1.000  H
  H152     1.0000 0.72480  0.11260  0.26270  Biso   1.000  H
  H153     1.0000 0.26180  0.58920  0.61360  Biso   1.000  H
  H154     1.0000 0.73820  0.58920  0.88640  Biso   1.000  H
  H155     1.0000 0.76180  0.08920  0.61360  Biso   1.000  H
  H156     1.0000 0.23820  0.08920  0.88640  Biso   1.000  H
  H157     1.0000 0.73820  0.41080  0.38640  Biso   1.000  H
  H158     1.0000 0.26180  0.41080  0.11360  Biso   1.000  H
  H159     1.0000 0.23820  0.91080  0.38640  Biso   1.000  H
  H160     1.0000 0.76180  0.91080  0.11360  Biso   1.000  H
  H161     1.0000 0.20680  0.51720  0.46430  Biso   1.000  H
  H162     1.0000 0.79320  0.51720  0.03570  Biso   1.000  H
  H163     1.0000 0.70680  0.01720  0.46430  Biso   1.000  H
  H164     1.0000 0.29320  0.01720  0.03570  Biso   1.000  H
  H165     1.0000 0.79320  0.48280  0.53570  Biso   1.000  H
  H166     1.0000 0.20680  0.48280  0.96430  Biso   1.000  H
  H167     1.0000 0.29320  0.98280  0.53570  Biso   1.000  H
  H168     1.0000 0.70680  0.98280  0.96430  Biso   1.000  H
  H169     1.0000 0.03030  0.30530  0.63570  Biso   1.000  H
  H170     1.0000 0.96970  0.30530  0.86430  Biso   1.000  H
  H171     1.0000 0.53030  0.80530  0.63570  Biso   1.000  H
  H172     1.0000 0.46970  0.80530  0.86430  Biso   1.000  H
  H173     1.0000 0.96970  0.69470  0.36430  Biso   1.000  H
  H174     1.0000 0.03030  0.69470  0.13570  Biso   1.000  H
  H175     1.0000 0.46970  0.19470  0.36430  Biso   1.000  H
  H176     1.0000 0.53030  0.19470  0.13570  Biso   1.000  H
  H177     1.0000 0.98470  0.34680  0.57700  Biso   1.000  H
  H178     1.0000 0.01530  0.34680  0.92300  Biso   1.000  H
  H179     1.0000 0.48470  0.84680  0.57700  Biso   1.000  H
  H180     1.0000 0.51530  0.84680  0.92300  Biso   1.000  H
  H181     1.0000 0.01530  0.65320  0.42300  Biso   1.000  H
  H182     1.0000 0.98470  0.65320  0.07700  Biso   1.000  H
  H183     1.0000 0.51530  0.15320  0.42300  Biso   1.000  H
  H184     1.0000 0.48470  0.15320  0.07700  Biso   1.000  H
  H185     1.0000 0.98290  0.25830  0.61280  Biso   1.000  H
  H186     1.0000 0.01710  0.25830  0.88720  Biso   1.000  H
  H187     1.0000 0.48290  0.75830  0.61280  Biso   1.000  H
  H188     1.0000 0.51710  0.75830  0.88720  Biso   1.000  H
  H189     1.0000 0.01710  0.74170  0.38720  Biso   1.000  H
  H190     1.0000 0.98290  0.74170  0.11280  Biso   1.000  H
  H191     1.0000 0.51710  0.24170  0.38720  Biso   1.000  H
  H192     1.0000 0.48290  0.24170  0.11280  Biso   1.000  H
  H193     1.0000 0.98890  0.16480  0.41730  Biso   1.000  H
  H194     1.0000 0.01110  0.16480  0.08270  Biso   1.000  H
  H195     1.0000 0.48890  0.66480  0.41730  Biso   1.000  H
  H196     1.0000 0.51110  0.66480  0.08270  Biso   1.000  H
  H197     1.0000 0.01110  0.83520  0.58270  Biso   1.000  H
  H198     1.0000 0.98890  0.83520  0.91730  Biso   1.000  H
  H199     1.0000 0.51110  0.33520  0.58270  Biso   1.000  H
  H200     1.0000 0.48890  0.33520  0.91730  Biso   1.000  H
  H201     1.0000 0.04230  0.17230  0.39260  Biso   1.000  H
  H202     1.0000 0.95770  0.17230  0.10740  Biso   1.000  H
  H203     1.0000 0.54230  0.67230  0.39260  Biso   1.000  H
  H204     1.0000 0.45770  0.67230  0.10740  Biso   1.000  H
  H205     1.0000 0.95770  0.82770  0.60740  Biso   1.000  H
  H206     1.0000 0.04230  0.82770  0.89260  Biso   1.000  H
  H207     1.0000 0.45770  0.32770  0.60740  Biso   1.000  H
  H208     1.0000 0.54230  0.32770  0.89260  Biso   1.000  H
  H209     1.0000 0.02850  0.16320  0.52390  Biso   1.000  H
  H210     1.0000 0.97150  0.16320  0.97610  Biso   1.000  H
  H211     1.0000 0.52850  0.66320  0.52390  Biso   1.000  H
  H212     1.0000 0.47150  0.66320  0.97610  Biso   1.000  H
  H213     1.0000 0.97150  0.83680  0.47610  Biso   1.000  H
  H214     1.0000 0.02850  0.83680  0.02390  Biso   1.000  H
  H215     1.0000 0.47150  0.33680  0.47610  Biso   1.000  H
  H216     1.0000 0.52850  0.33680  0.02390  Biso   1.000  H
  H217     1.0000 0.99180  0.29370  0.39970  Biso   1.000  H
  H218     1.0000 0.00820  0.29370  0.10030  Biso   1.000  H
  H219     1.0000 0.49180  0.79370  0.39970  Biso   1.000  H
  H220     1.0000 0.50820  0.79370  0.10030  Biso   1.000  H
  H221     1.0000 0.00820  0.70630  0.60030  Biso   1.000  H
  H222     1.0000 0.99180  0.70630  0.89970  Biso   1.000  H
  H223     1.0000 0.50820  0.20630  0.60030  Biso   1.000  H
  H224     1.0000 0.49180  0.20630  0.89970  Biso   1.000  H
  H225     1.0000 0.03630  0.37800  0.29070  Biso   1.000  H
  H226     1.0000 0.96370  0.37800  0.20930  Biso   1.000  H
  H227     1.0000 0.53630  0.87800  0.29070  Biso   1.000  H
  H228     1.0000 0.46370  0.87800  0.20930  Biso   1.000  H
  H229     1.0000 0.96370  0.62200  0.70930  Biso   1.000  H
  H230     1.0000 0.03630  0.62200  0.79070  Biso   1.000  H
  H231     1.0000 0.46370  0.12200  0.70930  Biso   1.000  H
  H232     1.0000 0.53630  0.12200  0.79070  Biso   1.000  H
  H233     1.0000 0.12570  0.58320  0.30280  Biso   1.000  H
  H234     1.0000 0.87430  0.58320  0.19720  Biso   1.000  H
  H235     1.0000 0.62570  0.08320  0.30280  Biso   1.000  H
  H236     1.0000 0.37430  0.08320  0.19720  Biso   1.000  H
  H237     1.0000 0.87430  0.41680  0.69720  Biso   1.000  H
  H238     1.0000 0.12570  0.41680  0.80280  Biso   1.000  H
  H239     1.0000 0.37430  0.91680  0.69720  Biso   1.000  H
  H240     1.0000 0.62570  0.91680  0.80280  Biso   1.000  H
  H241     1.0000 0.07820  0.59380  0.22150  Biso   1.000  H
  H242     1.0000 0.92180  0.59380  0.27850  Biso   1.000  H
  H243     1.0000 0.57820  0.09380  0.22150  Biso   1.000  H
  H244     1.0000 0.42180  0.09380  0.27850  Biso   1.000  H
  H245     1.0000 0.92180  0.40620  0.77850  Biso   1.000  H
  H246     1.0000 0.07820  0.40620  0.72150  Biso   1.000  H
  H247     1.0000 0.42180  0.90620  0.77850  Biso   1.000  H
  H248     1.0000 0.57820  0.90620  0.72150  Biso   1.000  H
  H249     1.0000 0.07780  0.55390  0.34700  Biso   1.000  H
  H250     1.0000 0.92220  0.55390  0.15300  Biso   1.000  H
  H251     1.0000 0.57780  0.05390  0.34700  Biso   1.000  H
  H252     1.0000 0.42220  0.05390  0.15300  Biso   1.000  H
  H253     1.0000 0.92220  0.44610  0.65300  Biso   1.000  H
  H254     1.0000 0.07780  0.44610  0.84700  Biso   1.000  H
  H255     1.0000 0.42220  0.94610  0.65300  Biso   1.000  H
  H256     1.0000 0.57780  0.94610  0.84700  Biso   1.000  H
  H257     1.0000 0.03660  0.48890  0.12910  Biso   1.000  H
  H258     1.0000 0.96340  0.48890  0.37090  Biso   1.000  H
  H259     1.0000 0.53660  0.98890  0.12910  Biso   1.000  H
  H260     1.0000 0.46340  0.98890  0.37090  Biso   1.000  H
  H261     1.0000 0.96340  0.51110  0.87090  Biso   1.000  H
  H262     1.0000 0.03660  0.51110  0.62910  Biso   1.000  H
  H263     1.0000 0.46340  0.01110  0.87090  Biso   1.000  H
  H264     1.0000 0.53660  0.01110  0.62910  Biso   1.000  H
  H265     1.0000 0.07720  0.48530  0.04300  Biso   1.000  H
  H266     1.0000 0.92280  0.48530  0.45700  Biso   1.000  H
  H267     1.0000 0.57720  0.98530  0.04300  Biso   1.000  H
  H268     1.0000 0.42280  0.98530  0.45700  Biso   1.000  H
  H269     1.0000 0.92280  0.51470  0.95700  Biso   1.000  H
  H270     1.0000 0.07720  0.51470  0.54300  Biso   1.000  H
  H271     1.0000 0.42280  0.01470  0.95700  Biso   1.000  H
  H272     1.0000 0.57720  0.01470  0.54300  Biso   1.000  H
  H273     1.0000 0.06100  0.40880  0.10490  Biso   1.000  H
  H274     1.0000 0.93900  0.40880  0.39510  Biso   1.000  H
  H275     1.0000 0.56100  0.90880  0.10490  Biso   1.000  H
  H276     1.0000 0.43900  0.90880  0.39510  Biso   1.000  H
  H277     1.0000 0.93900  0.59120  0.89510  Biso   1.000  H
  H278     1.0000 0.06100  0.59120  0.60490  Biso   1.000  H
  H279     1.0000 0.43900  0.09120  0.89510  Biso   1.000  H
  H280     1.0000 0.56100  0.09120  0.60490  Biso   1.000  H
  H281     1.0000 0.13350  0.47960  0.19030  Biso   1.000  H
  H282     1.0000 0.86650  0.47960  0.30970  Biso   1.000  H
  H283     1.0000 0.63350  0.97960  0.19030  Biso   1.000  H
  H284     1.0000 0.36650  0.97960  0.30970  Biso   1.000  H
  H285     1.0000 0.86650  0.52040  0.80970  Biso   1.000  H
  H286     1.0000 0.13350  0.52040  0.69030  Biso   1.000  H
  H287     1.0000 0.36650  0.02040  0.80970  Biso   1.000  H
  H288     1.0000 0.63350  0.02040  0.69030  Biso   1.000  H
