data_image0
_cell_length_a       22.3773
_cell_length_b       6.7633
_cell_length_c       4.3529
_cell_angle_alpha    90
_cell_angle_beta     90
_cell_angle_gamma    90

_symmetry_space_group_name_H-M    "P 1"
_symmetry_int_tables_number       1

loop_
  _symmetry_equiv_pos_as_xyz
  'x, y, z'

loop_
  _atom_site_label
  _atom_site_occupancy
  _atom_site_fract_x
  _atom_site_fract_y
  _atom_site_fract_z
  _atom_site_thermal_displace_type
  _atom_site_B_iso_or_equiv
  _atom_site_type_symbol
  Cu1      1.0000 0.00000  0.50000  0.00000  Biso   1.000  Cu
  Cu2      1.0000 0.50000  0.00000  0.00000  Biso   1.000  Cu
  Cu3      1.0000 0.50000  0.50000  0.00000  Biso   1.000  Cu
  Cu4      1.0000 0.00000  0.00000  0.00000  Biso   1.000  Cu
  P1       1.0000 0.06660  0.75000  0.49990  Biso   1.000  P
  P2       1.0000 0.43340  0.75000  0.49990  Biso   1.000  P
  P3       1.0000 0.56660  0.25000  0.50010  Biso   1.000  P
  P4       1.0000 0.93340  0.25000  0.50010  Biso   1.000  P
  O1       1.0000 0.01860  0.75000  0.23680  Biso   1.000  O
  O2       1.0000 0.48140  0.75000  0.23680  Biso   1.000  O
  O3       1.0000 0.51860  0.25000  0.76320  Biso   1.000  O
  O4       1.0000 0.98140  0.25000  0.76320  Biso   1.000  O
  O5       1.0000 0.05960  0.93630  0.69050  Biso   1.000  O
  O6       1.0000 0.44040  0.56370  0.69050  Biso   1.000  O
  O7       1.0000 0.55960  0.06370  0.30950  Biso   1.000  O
  O8       1.0000 0.94040  0.43630  0.30950  Biso   1.000  O
  O9       1.0000 0.94040  0.06370  0.30950  Biso   1.000  O
  O10      1.0000 0.55960  0.43630  0.30950  Biso   1.000  O
  O11      1.0000 0.44040  0.93630  0.69050  Biso   1.000  O
  O12      1.0000 0.05960  0.56370  0.69050  Biso   1.000  O
  C1       1.0000 0.13880  0.75000  0.30800  Biso   1.000  C
  C2       1.0000 0.36120  0.75000  0.30800  Biso   1.000  C
  C3       1.0000 0.63880  0.25000  0.69200  Biso   1.000  C
  C4       1.0000 0.86120  0.25000  0.69200  Biso   1.000  C
  C5       1.0000 0.19320  0.75000  0.54400  Biso   1.000  C
  C6       1.0000 0.30680  0.75000  0.54400  Biso   1.000  C
  C7       1.0000 0.69320  0.25000  0.45600  Biso   1.000  C
  C8       1.0000 0.80680  0.25000  0.45600  Biso   1.000  C
  C9       1.0000 0.25000  0.75000  0.36600  Biso   1.000  C
  C10      1.0000 0.75000  0.25000  0.63400  Biso   1.000  C
  O13      1.0000 0.93130  0.75000  0.71500  Biso   1.000  O
  O14      1.0000 0.56870  0.75000  0.71500  Biso   1.000  O
  O15      1.0000 0.43130  0.25000  0.28500  Biso   1.000  O
  O16      1.0000 0.06870  0.25000  0.28500  Biso   1.000  O
  O17      1.0000 0.18550  0.25000  0.93400  Biso   1.000  O
  O18      1.0000 0.31450  0.25000  0.93400  Biso   1.000  O
  O19      1.0000 0.68550  0.75000  0.06600  Biso   1.000  O
  O20      1.0000 0.81450  0.75000  0.06600  Biso   1.000  O
  O21      1.0000 0.20180  0.29400  0.24100  Biso   1.000  O
  O22      1.0000 0.29820  0.20600  0.24100  Biso   1.000  O
  O23      1.0000 0.70180  0.70600  0.75900  Biso   1.000  O
  O24      1.0000 0.79820  0.79400  0.75900  Biso   1.000  O
  O25      1.0000 0.79820  0.70600  0.75900  Biso   1.000  O
  O26      1.0000 0.70180  0.79400  0.75900  Biso   1.000  O
  O27      1.0000 0.29820  0.29400  0.24100  Biso   1.000  O
  O28      1.0000 0.20180  0.20600  0.24100  Biso   1.000  O
  O29      1.0000 0.13540  0.29500  0.65400  Biso   1.000  O
  O30      1.0000 0.36460  0.20500  0.65400  Biso   1.000  O
  O31      1.0000 0.63540  0.70500  0.34600  Biso   1.000  O
  O32      1.0000 0.86460  0.79500  0.34600  Biso   1.000  O
  O33      1.0000 0.86460  0.70500  0.34600  Biso   1.000  O
  O34      1.0000 0.63540  0.79500  0.34600  Biso   1.000  O
  O35      1.0000 0.36460  0.29500  0.65400  Biso   1.000  O
  O36      1.0000 0.13540  0.20500  0.65400  Biso   1.000  O
  O37      1.0000 0.25000  0.25000  0.82400  Biso   1.000  O
  O38      1.0000 0.75000  0.75000  0.17600  Biso   1.000  O
