data_image0
_cell_length_a       20.036
_cell_length_b       6.6708
_cell_length_c       4.3999
_cell_angle_alpha    90
_cell_angle_beta     91.251
_cell_angle_gamma    90

_symmetry_space_group_name_H-M    "P 1"
_symmetry_int_tables_number       1

loop_
  _symmetry_equiv_pos_as_xyz
  'x, y, z'

loop_
  _atom_site_label
  _atom_site_occupancy
  _atom_site_fract_x
  _atom_site_fract_y
  _atom_site_fract_z
  _atom_site_thermal_displace_type
  _atom_site_B_iso_or_equiv
  _atom_site_type_symbol
  Cu1      1.0000 0.25000  0.25000  0.50000  Biso   1.000  Cu
  Cu2      1.0000 0.75000  0.75000  0.50000  Biso   1.000  Cu
  Cu3      1.0000 0.25000  0.75000  0.50000  Biso   1.000  Cu
  Cu4      1.0000 0.75000  0.25000  0.50000  Biso   1.000  Cu
  P1       1.0000 0.32578  0.50000  0.01940  Biso   1.000  P
  P2       1.0000 0.82578  0.00000  0.01940  Biso   1.000  P
  P3       1.0000 0.67422  0.50000  0.98060  Biso   1.000  P
  P4       1.0000 0.17422  0.00000  0.98060  Biso   1.000  P
  O1       1.0000 0.31850  0.30960  0.20790  Biso   1.000  O
  O2       1.0000 0.81850  0.80960  0.20790  Biso   1.000  O
  O3       1.0000 0.31850  0.69040  0.20790  Biso   1.000  O
  O4       1.0000 0.81850  0.19040  0.20790  Biso   1.000  O
  O5       1.0000 0.68150  0.69040  0.79210  Biso   1.000  O
  O6       1.0000 0.18150  0.19040  0.79210  Biso   1.000  O
  O7       1.0000 0.68150  0.30960  0.79210  Biso   1.000  O
  O8       1.0000 0.18150  0.80960  0.79210  Biso   1.000  O
  O9       1.0000 0.27550  0.50000  0.74500  Biso   1.000  O
  O10      1.0000 0.77550  0.00000  0.74500  Biso   1.000  O
  O11      1.0000 0.72450  0.50000  0.25500  Biso   1.000  O
  O12      1.0000 0.22450  0.00000  0.25500  Biso   1.000  O
  O13      1.0000 0.32230  0.00000  0.72800  Biso   1.000  O
  O14      1.0000 0.82230  0.50000  0.72800  Biso   1.000  O
  O15      1.0000 0.67770  0.00000  0.27200  Biso   1.000  O
  O16      1.0000 0.17770  0.50000  0.27200  Biso   1.000  O
  O17      1.0000 0.42700  0.00000  0.35100  Biso   1.000  O
  O18      1.0000 0.92700  0.50000  0.35100  Biso   1.000  O
  O19      1.0000 0.57300  0.00000  0.64900  Biso   1.000  O
  O20      1.0000 0.07300  0.50000  0.64900  Biso   1.000  O
  C1       1.0000 0.40870  0.50000  0.86400  Biso   1.000  C
  C2       1.0000 0.90870  0.00000  0.86400  Biso   1.000  C
  C3       1.0000 0.59130  0.50000  0.13600  Biso   1.000  C
  C4       1.0000 0.09130  0.00000  0.13600  Biso   1.000  C
  H1       1.0000 0.40800  0.40500  0.77000  Biso   1.000  H
  H2       1.0000 0.90800  0.90500  0.77000  Biso   1.000  H
  H3       1.0000 0.40800  0.59500  0.77000  Biso   1.000  H
  H4       1.0000 0.90800  0.09500  0.77000  Biso   1.000  H
  H5       1.0000 0.59200  0.59500  0.23000  Biso   1.000  H
  H6       1.0000 0.09200  0.09500  0.23000  Biso   1.000  H
  H7       1.0000 0.59200  0.40500  0.23000  Biso   1.000  H
  H8       1.0000 0.09200  0.90500  0.23000  Biso   1.000  H
  C5       1.0000 0.46670  0.50000  0.07600  Biso   1.000  C
  C6       1.0000 0.96670  0.00000  0.07600  Biso   1.000  C
  C7       1.0000 0.53330  0.50000  0.92400  Biso   1.000  C
  C8       1.0000 0.03330  0.00000  0.92400  Biso   1.000  C
  H9       1.0000 0.46800  0.42900  0.19700  Biso   1.000  H
  H10      1.0000 0.96800  0.92900  0.19700  Biso   1.000  H
  H11      1.0000 0.46800  0.57100  0.19700  Biso   1.000  H
  H12      1.0000 0.96800  0.07100  0.19700  Biso   1.000  H
  H13      1.0000 0.53200  0.57100  0.80300  Biso   1.000  H
  H14      1.0000 0.03200  0.07100  0.80300  Biso   1.000  H
  H15      1.0000 0.53200  0.42900  0.80300  Biso   1.000  H
  H16      1.0000 0.03200  0.92900  0.80300  Biso   1.000  H
