data_image0
_cell_length_a       27.59
_cell_length_b       27.59
_cell_length_c       5.9277
_cell_angle_alpha    90
_cell_angle_beta     90
_cell_angle_gamma    120

_symmetry_space_group_name_H-M    "P 1"
_symmetry_int_tables_number       1

loop_
  _symmetry_equiv_pos_as_xyz
  'x, y, z'

loop_
  _atom_site_label
  _atom_site_occupancy
  _atom_site_fract_x
  _atom_site_fract_y
  _atom_site_fract_z
  _atom_site_thermal_displace_type
  _atom_site_B_iso_or_equiv
  _atom_site_type_symbol
  Cu1      1.0000 0.44168  0.16477  0.02814  Biso   1.000  Cu
  Cu2      1.0000 0.83523  0.27691  0.69481  Biso   1.000  Cu
  Cu3      1.0000 0.72309  0.55832  0.36147  Biso   1.000  Cu
  Cu4      1.0000 0.55832  0.83523  0.52814  Biso   1.000  Cu
  Cu5      1.0000 0.16477  0.72309  0.19481  Biso   1.000  Cu
  Cu6      1.0000 0.27691  0.44168  0.86147  Biso   1.000  Cu
  Cu7      1.0000 0.36409  0.04220  0.75375  Biso   1.000  Cu
  Cu8      1.0000 0.95780  0.32189  0.42042  Biso   1.000  Cu
  Cu9      1.0000 0.67811  0.63591  0.08708  Biso   1.000  Cu
  Cu10     1.0000 0.63591  0.95780  0.25375  Biso   1.000  Cu
  Cu11     1.0000 0.04220  0.67811  0.92042  Biso   1.000  Cu
  Cu12     1.0000 0.32189  0.36409  0.58708  Biso   1.000  Cu
  O1       1.0000 0.36450  0.10614  0.99590  Biso   1.000  O
  O2       1.0000 0.89386  0.25836  0.66257  Biso   1.000  O
  O3       1.0000 0.74164  0.63550  0.32923  Biso   1.000  O
  O4       1.0000 0.63550  0.89386  0.49590  Biso   1.000  O
  O5       1.0000 0.10614  0.74164  0.16257  Biso   1.000  O
  O6       1.0000 0.25836  0.36450  0.82923  Biso   1.000  O
  O7       1.0000 0.32943  0.15513  0.15410  Biso   1.000  O
  O8       1.0000 0.84487  0.17430  0.82077  Biso   1.000  O
  O9       1.0000 0.82570  0.67057  0.48743  Biso   1.000  O
  O10      1.0000 0.67057  0.84487  0.65410  Biso   1.000  O
  O11      1.0000 0.15513  0.82570  0.32077  Biso   1.000  O
  O12      1.0000 0.17430  0.32943  0.98743  Biso   1.000  O
  O13      1.0000 0.34578  0.07407  0.48330  Biso   1.000  O
  O14      1.0000 0.92593  0.27171  0.14997  Biso   1.000  O
  O15      1.0000 0.72829  0.65422  0.81663  Biso   1.000  O
  O16      1.0000 0.65422  0.92593  0.98330  Biso   1.000  O
  O17      1.0000 0.07407  0.72829  0.64997  Biso   1.000  O
  O18      1.0000 0.27171  0.34578  0.31663  Biso   1.000  O
  O19      1.0000 0.28970  0.99149  0.61740  Biso   1.000  O
  O20      1.0000 0.00851  0.29821  0.28407  Biso   1.000  O
  O21      1.0000 0.70179  0.71030  0.95073  Biso   1.000  O
  O22      1.0000 0.71030  0.00851  0.11740  Biso   1.000  O
  O23      1.0000 0.99149  0.70179  0.78407  Biso   1.000  O
  O24      1.0000 0.29821  0.28970  0.45073  Biso   1.000  O
  O25      1.0000 0.51422  0.21917  0.17880  Biso   1.000  O
  O26      1.0000 0.78083  0.29505  0.84547  Biso   1.000  O
  O27      1.0000 0.70495  0.48578  0.51213  Biso   1.000  O
  O28      1.0000 0.48578  0.78083  0.67880  Biso   1.000  O
  O29      1.0000 0.21917  0.70495  0.34547  Biso   1.000  O
  O30      1.0000 0.29505  0.51422  0.01213  Biso   1.000  O
  O31      1.0000 0.46444  0.13320  0.29370  Biso   1.000  O
  O32      1.0000 0.86680  0.33124  0.96037  Biso   1.000  O
  O33      1.0000 0.66876  0.53556  0.62703  Biso   1.000  O
  O34      1.0000 0.53556  0.86680  0.79370  Biso   1.000  O
  O35      1.0000 0.13320  0.66876  0.46037  Biso   1.000  O
  O36      1.0000 0.33124  0.46444  0.12703  Biso   1.000  O
  O37      1.0000 0.44333  0.09984  0.78030  Biso   1.000  O
  O38      1.0000 0.90016  0.34349  0.44697  Biso   1.000  O
  O39      1.0000 0.65651  0.55667  0.11363  Biso   1.000  O
  O40      1.0000 0.55667  0.90016  0.28030  Biso   1.000  O
  O41      1.0000 0.09984  0.65651  0.94697  Biso   1.000  O
  O42      1.0000 0.34349  0.44333  0.61363  Biso   1.000  O
  O43      1.0000 0.48595  0.05580  0.63700  Biso   1.000  O
  O44      1.0000 0.94420  0.43015  0.30367  Biso   1.000  O
  O45      1.0000 0.56985  0.51405  0.97033  Biso   1.000  O
  O46      1.0000 0.51405  0.94420  0.13700  Biso   1.000  O
  O47      1.0000 0.05580  0.56985  0.80367  Biso   1.000  O
  O48      1.0000 0.43015  0.48595  0.47033  Biso   1.000  O
  N1       1.0000 0.36775  0.35819  0.82410  Biso   1.000  N
  N2       1.0000 0.64181  0.00956  0.49077  Biso   1.000  N
  N3       1.0000 0.99044  0.63225  0.15743  Biso   1.000  N
  N4       1.0000 0.63225  0.64181  0.32410  Biso   1.000  N
  N5       1.0000 0.35819  0.99044  0.99077  Biso   1.000  N
  N6       1.0000 0.00956  0.36775  0.65743  Biso   1.000  N
  N7       1.0000 0.45249  0.34327  0.38180  Biso   1.000  N
  N8       1.0000 0.65673  0.10922  0.04847  Biso   1.000  N
  N9       1.0000 0.89078  0.54751  0.71513  Biso   1.000  N
  N10      1.0000 0.54751  0.65673  0.88180  Biso   1.000  N
  N11      1.0000 0.34327  0.89078  0.54847  Biso   1.000  N
  N12      1.0000 0.10922  0.45249  0.21513  Biso   1.000  N
  H1       1.0000 0.47210  0.37400  0.45700  Biso   1.000  H
  H2       1.0000 0.62600  0.09810  0.12367  Biso   1.000  H
  H3       1.0000 0.90190  0.52790  0.79033  Biso   1.000  H
  H4       1.0000 0.52790  0.62600  0.95700  Biso   1.000  H
  H5       1.0000 0.37400  0.90190  0.62367  Biso   1.000  H
  H6       1.0000 0.09810  0.47210  0.29033  Biso   1.000  H
  N13      1.0000 0.44456  0.21826  0.80220  Biso   1.000  N
  N14      1.0000 0.78174  0.22630  0.46887  Biso   1.000  N
  N15      1.0000 0.77370  0.55544  0.13553  Biso   1.000  N
  N16      1.0000 0.55544  0.78174  0.30220  Biso   1.000  N
  N17      1.0000 0.21826  0.77370  0.96887  Biso   1.000  N
  N18      1.0000 0.22630  0.44456  0.63553  Biso   1.000  N
  C1       1.0000 0.36175  0.30814  0.87810  Biso   1.000  C
  C2       1.0000 0.69186  0.05361  0.54477  Biso   1.000  C
  C3       1.0000 0.94639  0.63825  0.21143  Biso   1.000  C
  C4       1.0000 0.63825  0.69186  0.37810  Biso   1.000  C
  C5       1.0000 0.30814  0.94639  0.04477  Biso   1.000  C
  C6       1.0000 0.05361  0.36175  0.71143  Biso   1.000  C
  H7       1.0000 0.33840  0.27760  0.78850  Biso   1.000  H
  H8       1.0000 0.72240  0.06080  0.45517  Biso   1.000  H
  H9       1.0000 0.93920  0.66160  0.12183  Biso   1.000  H
  H10      1.0000 0.66160  0.72240  0.28850  Biso   1.000  H
  H11      1.0000 0.27760  0.93920  0.95517  Biso   1.000  H
  H12      1.0000 0.06080  0.33840  0.62183  Biso   1.000  H
  C7       1.0000 0.38790  0.29935  0.05680  Biso   1.000  C
  C8       1.0000 0.70065  0.08855  0.72347  Biso   1.000  C
  C9       1.0000 0.91145  0.61210  0.39013  Biso   1.000  C
  C10      1.0000 0.61210  0.70065  0.55680  Biso   1.000  C
  C11      1.0000 0.29935  0.91145  0.22347  Biso   1.000  C
  C12      1.0000 0.08855  0.38790  0.89013  Biso   1.000  C
  H13      1.0000 0.38230  0.26380  0.08590  Biso   1.000  H
  H14      1.0000 0.73620  0.11850  0.75257  Biso   1.000  H
  H15      1.0000 0.88150  0.61770  0.41923  Biso   1.000  H
  H16      1.0000 0.61770  0.73620  0.58590  Biso   1.000  H
  H17      1.0000 0.26380  0.88150  0.25257  Biso   1.000  H
  H18      1.0000 0.11850  0.38230  0.91923  Biso   1.000  H
  C13      1.0000 0.42287  0.34413  0.19390  Biso   1.000  C
  C14      1.0000 0.65587  0.07874  0.86057  Biso   1.000  C
  C15      1.0000 0.92126  0.57713  0.52723  Biso   1.000  C
  C16      1.0000 0.57713  0.65587  0.69390  Biso   1.000  C
  C17      1.0000 0.34413  0.92126  0.36057  Biso   1.000  C
  C18      1.0000 0.07874  0.42287  0.02723  Biso   1.000  C
  C19      1.0000 0.43032  0.39688  0.13740  Biso   1.000  C
  C20      1.0000 0.60312  0.03344  0.80407  Biso   1.000  C
  C21      1.0000 0.96656  0.56968  0.47073  Biso   1.000  C
  C22      1.0000 0.56968  0.60312  0.63740  Biso   1.000  C
  C23      1.0000 0.39688  0.96656  0.30407  Biso   1.000  C
  C24      1.0000 0.03344  0.43032  0.97073  Biso   1.000  C
  H19      1.0000 0.45390  0.42820  0.22280  Biso   1.000  H
  H20      1.0000 0.57180  0.02570  0.88947  Biso   1.000  H
  H21      1.0000 0.97430  0.54610  0.55613  Biso   1.000  H
  H22      1.0000 0.54610  0.57180  0.72280  Biso   1.000  H
  H23      1.0000 0.42820  0.97430  0.38947  Biso   1.000  H
  H24      1.0000 0.02570  0.45390  0.05613  Biso   1.000  H
  C25      1.0000 0.40236  0.40177  0.95460  Biso   1.000  C
  C26      1.0000 0.59823  0.00059  0.62127  Biso   1.000  C
  C27      1.0000 0.99941  0.59764  0.28793  Biso   1.000  C
  C28      1.0000 0.59764  0.59823  0.45460  Biso   1.000  C
  C29      1.0000 0.40177  0.99941  0.12127  Biso   1.000  C
  C30      1.0000 0.00059  0.40236  0.78793  Biso   1.000  C
  H25      1.0000 0.40770  0.43700  0.91950  Biso   1.000  H
  H26      1.0000 0.56300  0.97070  0.58617  Biso   1.000  H
  H27      1.0000 0.02930  0.59230  0.25283  Biso   1.000  H
  H28      1.0000 0.59230  0.56300  0.41950  Biso   1.000  H
  H29      1.0000 0.43700  0.02930  0.08617  Biso   1.000  H
  H30      1.0000 0.97070  0.40770  0.75283  Biso   1.000  H
  C31      1.0000 0.48588  0.27197  0.81640  Biso   1.000  C
  C32      1.0000 0.72803  0.21391  0.48307  Biso   1.000  C
  C33      1.0000 0.78609  0.51412  0.14973  Biso   1.000  C
  C34      1.0000 0.51412  0.72803  0.31640  Biso   1.000  C
  C35      1.0000 0.27197  0.78609  0.98307  Biso   1.000  C
  C36      1.0000 0.21391  0.48588  0.64973  Biso   1.000  C
  H31      1.0000 0.51320  0.28180  0.92670  Biso   1.000  H
  H32      1.0000 0.71820  0.23140  0.59337  Biso   1.000  H
  H33      1.0000 0.76860  0.48680  0.26003  Biso   1.000  H
  H34      1.0000 0.48680  0.71820  0.42670  Biso   1.000  H
  H35      1.0000 0.28180  0.76860  0.09337  Biso   1.000  H
  H36      1.0000 0.23140  0.51320  0.76003  Biso   1.000  H
  C37      1.0000 0.48909  0.31272  0.67400  Biso   1.000  C
  C38      1.0000 0.68728  0.17637  0.34067  Biso   1.000  C
  C39      1.0000 0.82363  0.51091  0.00733  Biso   1.000  C
  C40      1.0000 0.51091  0.68728  0.17400  Biso   1.000  C
  C41      1.0000 0.31272  0.82363  0.84067  Biso   1.000  C
  C42      1.0000 0.17637  0.48909  0.50733  Biso   1.000  C
  H37      1.0000 0.51870  0.34920  0.68720  Biso   1.000  H
  H38      1.0000 0.65080  0.16950  0.35387  Biso   1.000  H
  H39      1.0000 0.83050  0.48130  0.02053  Biso   1.000  H
  H40      1.0000 0.48130  0.65080  0.18720  Biso   1.000  H
  H41      1.0000 0.34920  0.83050  0.85387  Biso   1.000  H
  H42      1.0000 0.16950  0.51870  0.52053  Biso   1.000  H
  C43      1.0000 0.44833  0.29971  0.51000  Biso   1.000  C
  C44      1.0000 0.70029  0.14862  0.17667  Biso   1.000  C
  C45      1.0000 0.85138  0.55167  0.84333  Biso   1.000  C
  C46      1.0000 0.55167  0.70029  0.01000  Biso   1.000  C
  C47      1.0000 0.29971  0.85138  0.67667  Biso   1.000  C
  C48      1.0000 0.14862  0.44833  0.34333  Biso   1.000  C
  C49      1.0000 0.40566  0.24371  0.49500  Biso   1.000  C
  C50      1.0000 0.75629  0.16195  0.16167  Biso   1.000  C
  C51      1.0000 0.83805  0.59434  0.82833  Biso   1.000  C
  C52      1.0000 0.59434  0.75629  0.99500  Biso   1.000  C
  C53      1.0000 0.24371  0.83805  0.66167  Biso   1.000  C
  C54      1.0000 0.16195  0.40566  0.32833  Biso   1.000  C
  H43      1.0000 0.37770  0.23280  0.38690  Biso   1.000  H
  H44      1.0000 0.76720  0.14490  0.05357  Biso   1.000  H
  H45      1.0000 0.85510  0.62230  0.72023  Biso   1.000  H
  H46      1.0000 0.62230  0.76720  0.88690  Biso   1.000  H
  H47      1.0000 0.23280  0.85510  0.55357  Biso   1.000  H
  H48      1.0000 0.14490  0.37770  0.22023  Biso   1.000  H
  C55      1.0000 0.40559  0.20517  0.64120  Biso   1.000  C
  C56      1.0000 0.79483  0.20042  0.30787  Biso   1.000  C
  C57      1.0000 0.79958  0.59441  0.97453  Biso   1.000  C
  C58      1.0000 0.59441  0.79483  0.14120  Biso   1.000  C
  C59      1.0000 0.20517  0.79958  0.80787  Biso   1.000  C
  C60      1.0000 0.20042  0.40559  0.47453  Biso   1.000  C
  H49      1.0000 0.37720  0.16810  0.62840  Biso   1.000  H
  H50      1.0000 0.83190  0.20910  0.29507  Biso   1.000  H
  H51      1.0000 0.79090  0.62280  0.96173  Biso   1.000  H
  H52      1.0000 0.62280  0.83190  0.12840  Biso   1.000  H
  H53      1.0000 0.16810  0.79090  0.79507  Biso   1.000  H
  H54      1.0000 0.20910  0.37720  0.46173  Biso   1.000  H
  C61      1.0000 0.27033  0.05705  0.11230  Biso   1.000  C
  C62      1.0000 0.94295  0.21328  0.77897  Biso   1.000  C
  C63      1.0000 0.78672  0.72967  0.44563  Biso   1.000  C
  C64      1.0000 0.72967  0.94295  0.61230  Biso   1.000  C
  C65      1.0000 0.05705  0.78672  0.27897  Biso   1.000  C
  C66      1.0000 0.21328  0.27033  0.94563  Biso   1.000  C
  C67      1.0000 0.25810  0.01942  0.29170  Biso   1.000  C
  C68      1.0000 0.98058  0.23868  0.95837  Biso   1.000  C
  C69      1.0000 0.76132  0.74190  0.62503  Biso   1.000  C
  C70      1.0000 0.74190  0.98058  0.79170  Biso   1.000  C
  C71      1.0000 0.01942  0.76132  0.45837  Biso   1.000  C
  C72      1.0000 0.23868  0.25810  0.12503  Biso   1.000  C
  C73      1.0000 0.20630  0.97050  0.30080  Biso   1.000  C
  C74      1.0000 0.02950  0.23580  0.96747  Biso   1.000  C
  C75      1.0000 0.76420  0.79370  0.63413  Biso   1.000  C
  C76      1.0000 0.79370  0.02950  0.80080  Biso   1.000  C
  C77      1.0000 0.97050  0.76420  0.46747  Biso   1.000  C
  C78      1.0000 0.23580  0.20630  0.13413  Biso   1.000  C
  H55      1.0000 0.19810  0.94560  0.41970  Biso   1.000  H
  H56      1.0000 0.05440  0.25250  0.08637  Biso   1.000  H
  H57      1.0000 0.74750  0.80190  0.75303  Biso   1.000  H
  H58      1.0000 0.80190  0.05440  0.91970  Biso   1.000  H
  H59      1.0000 0.94560  0.74750  0.58637  Biso   1.000  H
  H60      1.0000 0.25250  0.19810  0.25303  Biso   1.000  H
  C79      1.0000 0.16680  0.95880  0.13280  Biso   1.000  C
  C80      1.0000 0.04120  0.20800  0.79947  Biso   1.000  C
  C81      1.0000 0.79200  0.83320  0.46613  Biso   1.000  C
  C82      1.0000 0.83320  0.04120  0.63280  Biso   1.000  C
  C83      1.0000 0.95880  0.79200  0.29947  Biso   1.000  C
  C84      1.0000 0.20800  0.16680  0.96613  Biso   1.000  C
  H61      1.0000 0.13200  0.92640  0.14070  Biso   1.000  H
  H62      1.0000 0.07360  0.20560  0.80737  Biso   1.000  H
  H63      1.0000 0.79440  0.86800  0.47403  Biso   1.000  H
  H64      1.0000 0.86800  0.07360  0.64070  Biso   1.000  H
  H65      1.0000 0.92640  0.79440  0.30737  Biso   1.000  H
  H66      1.0000 0.20560  0.13200  0.97403  Biso   1.000  H
  C85      1.0000 0.17920  0.99520  0.95440  Biso   1.000  C
  C86      1.0000 0.00480  0.18400  0.62107  Biso   1.000  C
  C87      1.0000 0.81600  0.82080  0.28773  Biso   1.000  C
  C88      1.0000 0.82080  0.00480  0.45440  Biso   1.000  C
  C89      1.0000 0.99520  0.81600  0.12107  Biso   1.000  C
  C90      1.0000 0.18400  0.17920  0.78773  Biso   1.000  C
  H67      1.0000 0.15300  0.98690  0.84060  Biso   1.000  H
  H68      1.0000 0.01310  0.16610  0.50727  Biso   1.000  H
  H69      1.0000 0.83390  0.84700  0.17393  Biso   1.000  H
  H70      1.0000 0.84700  0.01310  0.34060  Biso   1.000  H
  H71      1.0000 0.98690  0.83390  0.00727  Biso   1.000  H
  H72      1.0000 0.16610  0.15300  0.67393  Biso   1.000  H
  C91      1.0000 0.23040  0.04380  0.94400  Biso   1.000  C
  C92      1.0000 0.95620  0.18660  0.61067  Biso   1.000  C
  C93      1.0000 0.81340  0.76960  0.27733  Biso   1.000  C
  C94      1.0000 0.76960  0.95620  0.44400  Biso   1.000  C
  C95      1.0000 0.04380  0.81340  0.11067  Biso   1.000  C
  C96      1.0000 0.18660  0.23040  0.77733  Biso   1.000  C
  H73      1.0000 0.23830  0.06800  0.82290  Biso   1.000  H
  H74      1.0000 0.93200  0.17030  0.48957  Biso   1.000  H
  H75      1.0000 0.82970  0.76170  0.15623  Biso   1.000  H
  H76      1.0000 0.76170  0.93200  0.32290  Biso   1.000  H
  H77      1.0000 0.06800  0.82970  0.98957  Biso   1.000  H
  H78      1.0000 0.17030  0.23830  0.65623  Biso   1.000  H
  C97      1.0000 0.32519  0.11127  0.09260  Biso   1.000  C
  C98      1.0000 0.88873  0.21392  0.75927  Biso   1.000  C
  C99      1.0000 0.78608  0.67481  0.42593  Biso   1.000  C
  C100     1.0000 0.67481  0.88873  0.59260  Biso   1.000  C
  C101     1.0000 0.11127  0.78608  0.25927  Biso   1.000  C
  C102     1.0000 0.21392  0.32519  0.92593  Biso   1.000  C
  C103     1.0000 0.29945  0.02871  0.47160  Biso   1.000  C
  C104     1.0000 0.97129  0.27074  0.13827  Biso   1.000  C
  C105     1.0000 0.72926  0.70055  0.80493  Biso   1.000  C
  C106     1.0000 0.70055  0.97129  0.97160  Biso   1.000  C
  C107     1.0000 0.02871  0.72926  0.63827  Biso   1.000  C
  C108     1.0000 0.27074  0.29945  0.30493  Biso   1.000  C
  C109     1.0000 0.54775  0.19296  0.50430  Biso   1.000  C
  C110     1.0000 0.80704  0.35479  0.17097  Biso   1.000  C
  C111     1.0000 0.64521  0.45225  0.83763  Biso   1.000  C
  C112     1.0000 0.45225  0.80704  0.00430  Biso   1.000  C
  C113     1.0000 0.19296  0.64521  0.67097  Biso   1.000  C
  C114     1.0000 0.35479  0.54775  0.33763  Biso   1.000  C
  C115     1.0000 0.53792  0.15449  0.67370  Biso   1.000  C
  C116     1.0000 0.84551  0.38343  0.34037  Biso   1.000  C
  C117     1.0000 0.61657  0.46208  0.00703  Biso   1.000  C
  C118     1.0000 0.46208  0.84551  0.17370  Biso   1.000  C
  C119     1.0000 0.15449  0.61657  0.84037  Biso   1.000  C
  C120     1.0000 0.38343  0.53792  0.50703  Biso   1.000  C
  C121     1.0000 0.57779  0.16801  0.84490  Biso   1.000  C
  C122     1.0000 0.83199  0.40978  0.51157  Biso   1.000  C
  C123     1.0000 0.59022  0.42221  0.17823  Biso   1.000  C
  C124     1.0000 0.42221  0.83199  0.34490  Biso   1.000  C
  C125     1.0000 0.16801  0.59022  0.01157  Biso   1.000  C
  C126     1.0000 0.40978  0.57779  0.67823  Biso   1.000  C
  H79      1.0000 0.57120  0.14250  0.95990  Biso   1.000  H
  H80      1.0000 0.85750  0.42870  0.62657  Biso   1.000  H
  H81      1.0000 0.57130  0.42880  0.29323  Biso   1.000  H
  H82      1.0000 0.42880  0.85750  0.45990  Biso   1.000  H
  H83      1.0000 0.14250  0.57130  0.12657  Biso   1.000  H
  H84      1.0000 0.42870  0.57120  0.79323  Biso   1.000  H
  C127     1.0000 0.62667  0.21882  0.84350  Biso   1.000  C
  C128     1.0000 0.78118  0.40785  0.51017  Biso   1.000  C
  C129     1.0000 0.59215  0.37333  0.17683  Biso   1.000  C
  C130     1.0000 0.37333  0.78118  0.34350  Biso   1.000  C
  C131     1.0000 0.21882  0.59215  0.01017  Biso   1.000  C
  C132     1.0000 0.40785  0.62667  0.67683  Biso   1.000  C
  H85      1.0000 0.65290  0.22740  0.95740  Biso   1.000  H
  H86      1.0000 0.77260  0.42550  0.62407  Biso   1.000  H
  H87      1.0000 0.57450  0.34710  0.29073  Biso   1.000  H
  H88      1.0000 0.34710  0.77260  0.45740  Biso   1.000  H
  H89      1.0000 0.22740  0.57450  0.12407  Biso   1.000  H
  H90      1.0000 0.42550  0.65290  0.79073  Biso   1.000  H
  C133     1.0000 0.63713  0.25749  0.67280  Biso   1.000  C
  C134     1.0000 0.74251  0.37964  0.33947  Biso   1.000  C
  C135     1.0000 0.62036  0.36287  0.00613  Biso   1.000  C
  C136     1.0000 0.36287  0.74251  0.17280  Biso   1.000  C
  C137     1.0000 0.25749  0.62036  0.83947  Biso   1.000  C
  C138     1.0000 0.37964  0.63713  0.50613  Biso   1.000  C
  H91      1.0000 0.67020  0.29180  0.67260  Biso   1.000  H
  H92      1.0000 0.70820  0.37840  0.33927  Biso   1.000  H
  H93      1.0000 0.62160  0.32980  0.00593  Biso   1.000  H
  H94      1.0000 0.32980  0.70820  0.17260  Biso   1.000  H
  H95      1.0000 0.29180  0.62160  0.83927  Biso   1.000  H
  H96      1.0000 0.37840  0.67020  0.50593  Biso   1.000  H
  C139     1.0000 0.59800  0.24455  0.50330  Biso   1.000  C
  C140     1.0000 0.75545  0.35345  0.16997  Biso   1.000  C
  C141     1.0000 0.64655  0.40200  0.83663  Biso   1.000  C
  C142     1.0000 0.40200  0.75545  0.00330  Biso   1.000  C
  C143     1.0000 0.24455  0.64655  0.66997  Biso   1.000  C
  C144     1.0000 0.35345  0.59800  0.33663  Biso   1.000  C
  H97      1.0000 0.60500  0.27010  0.38810  Biso   1.000  H
  H98      1.0000 0.72990  0.33490  0.05477  Biso   1.000  H
  H99      1.0000 0.66510  0.39500  0.72143  Biso   1.000  H
  H100     1.0000 0.39500  0.72990  0.88810  Biso   1.000  H
  H101     1.0000 0.27010  0.66510  0.55477  Biso   1.000  H
  H102     1.0000 0.33490  0.60500  0.22143  Biso   1.000  H
  C145     1.0000 0.50703  0.18078  0.31920  Biso   1.000  C
  C146     1.0000 0.81922  0.32625  0.98587  Biso   1.000  C
  C147     1.0000 0.67375  0.49297  0.65253  Biso   1.000  C
  C148     1.0000 0.49297  0.81922  0.81920  Biso   1.000  C
  C149     1.0000 0.18078  0.67375  0.48587  Biso   1.000  C
  C150     1.0000 0.32625  0.50703  0.15253  Biso   1.000  C
  C151     1.0000 0.48494  0.09820  0.69230  Biso   1.000  C
  C152     1.0000 0.90180  0.38674  0.35897  Biso   1.000  C
  C153     1.0000 0.61326  0.51506  0.02563  Biso   1.000  C
  C154     1.0000 0.51506  0.90180  0.19230  Biso   1.000  C
  C155     1.0000 0.09820  0.61326  0.85897  Biso   1.000  C
  C156     1.0000 0.38674  0.48494  0.52563  Biso   1.000  C
  O49      1.0000 0.54704  0.05769  0.25190  Biso   1.000  O
  O50      1.0000 0.94231  0.48935  0.91857  Biso   1.000  O
  O51      1.0000 0.51065  0.45296  0.58523  Biso   1.000  O
  O52      1.0000 0.45296  0.94231  0.75190  Biso   1.000  O
  O53      1.0000 0.05769  0.51065  0.41857  Biso   1.000  O
  O54      1.0000 0.48935  0.54704  0.08523  Biso   1.000  O
  H103     1.0000 0.53700  0.06300  0.38000  Biso   1.000  H
  H104     1.0000 0.93700  0.47400  0.04667  Biso   1.000  H
  H105     1.0000 0.52600  0.46300  0.71333  Biso   1.000  H
  H106     1.0000 0.46300  0.93700  0.88000  Biso   1.000  H
  H107     1.0000 0.06300  0.52600  0.54667  Biso   1.000  H
  H108     1.0000 0.47400  0.53700  0.21333  Biso   1.000  H
  H109     1.0000 0.54200  0.02500  0.25400  Biso   1.000  H
  H110     1.0000 0.97500  0.51700  0.92067  Biso   1.000  H
  H111     1.0000 0.48300  0.45800  0.58733  Biso   1.000  H
  H112     1.0000 0.45800  0.97500  0.75400  Biso   1.000  H
  H113     1.0000 0.02500  0.48300  0.42067  Biso   1.000  H
  H114     1.0000 0.51700  0.54200  0.08733  Biso   1.000  H
