data_image0
_cell_length_a       11.301
_cell_length_b       11.301
_cell_length_c       15.733
_cell_angle_alpha    90
_cell_angle_beta     90
_cell_angle_gamma    90

_symmetry_space_group_name_H-M    "P 1"
_symmetry_int_tables_number       1

loop_
  _symmetry_equiv_pos_as_xyz
  'x, y, z'

loop_
  _atom_site_label
  _atom_site_occupancy
  _atom_site_fract_x
  _atom_site_fract_y
  _atom_site_fract_z
  _atom_site_thermal_displace_type
  _atom_site_B_iso_or_equiv
  _atom_site_type_symbol
  Cu1      1.0000 0.75000  0.25000  0.25000  Biso   1.000  Cu
  Cu2      1.0000 0.25000  0.75000  0.25000  Biso   1.000  Cu
  Cu3      1.0000 0.25000  0.75000  0.75000  Biso   1.000  Cu
  Cu4      1.0000 0.75000  0.25000  0.75000  Biso   1.000  Cu
  O1       1.0000 0.60080  0.10080  0.25000  Biso   1.000  O
  O2       1.0000 0.39920  0.60080  0.25000  Biso   1.000  O
  O3       1.0000 0.10080  0.89920  0.25000  Biso   1.000  O
  O4       1.0000 0.89920  0.39920  0.25000  Biso   1.000  O
  O5       1.0000 0.39920  0.89920  0.75000  Biso   1.000  O
  O6       1.0000 0.60080  0.39920  0.75000  Biso   1.000  O
  O7       1.0000 0.89920  0.10080  0.75000  Biso   1.000  O
  O8       1.0000 0.10080  0.60080  0.75000  Biso   1.000  O
  N1       1.0000 0.84170  0.15880  0.15950  Biso   1.000  N
  N2       1.0000 0.34120  0.84170  0.15950  Biso   1.000  N
  N3       1.0000 0.15880  0.65830  0.15950  Biso   1.000  N
  N4       1.0000 0.65880  0.34170  0.34050  Biso   1.000  N
  N5       1.0000 0.34170  0.84120  0.34050  Biso   1.000  N
  N6       1.0000 0.15830  0.65880  0.34050  Biso   1.000  N
  N7       1.0000 0.84120  0.15830  0.34050  Biso   1.000  N
  N8       1.0000 0.65830  0.34120  0.15950  Biso   1.000  N
  N9       1.0000 0.15830  0.84120  0.84050  Biso   1.000  N
  N10      1.0000 0.65880  0.15830  0.84050  Biso   1.000  N
  N11      1.0000 0.84120  0.34170  0.84050  Biso   1.000  N
  N12      1.0000 0.34120  0.65830  0.65950  Biso   1.000  N
  N13      1.0000 0.65830  0.15880  0.65950  Biso   1.000  N
  N14      1.0000 0.84170  0.34120  0.65950  Biso   1.000  N
  N15      1.0000 0.15880  0.84170  0.65950  Biso   1.000  N
  N16      1.0000 0.34170  0.65880  0.84050  Biso   1.000  N
  C1       1.0000 0.96060  0.15770  0.15650  Biso   1.000  C
  C2       1.0000 0.34230  0.96060  0.15650  Biso   1.000  C
  C3       1.0000 0.15770  0.53940  0.15650  Biso   1.000  C
  C4       1.0000 0.65770  0.46060  0.34350  Biso   1.000  C
  C5       1.0000 0.46060  0.84230  0.34350  Biso   1.000  C
  C6       1.0000 0.03940  0.65770  0.34350  Biso   1.000  C
  C7       1.0000 0.84230  0.03940  0.34350  Biso   1.000  C
  C8       1.0000 0.53940  0.34230  0.15650  Biso   1.000  C
  C9       1.0000 0.03940  0.84230  0.84350  Biso   1.000  C
  C10      1.0000 0.65770  0.03940  0.84350  Biso   1.000  C
  C11      1.0000 0.84230  0.46060  0.84350  Biso   1.000  C
  C12      1.0000 0.34230  0.53940  0.65650  Biso   1.000  C
  C13      1.0000 0.53940  0.15770  0.65650  Biso   1.000  C
  C14      1.0000 0.96060  0.34230  0.65650  Biso   1.000  C
  C15      1.0000 0.15770  0.96060  0.65650  Biso   1.000  C
  C16      1.0000 0.46060  0.65770  0.84350  Biso   1.000  C
  C17      1.0000 0.02670  0.09790  0.09630  Biso   1.000  C
  C18      1.0000 0.40210  0.02670  0.09630  Biso   1.000  C
  C19      1.0000 0.09790  0.47330  0.09630  Biso   1.000  C
  C20      1.0000 0.59790  0.52670  0.40370  Biso   1.000  C
  C21      1.0000 0.52670  0.90210  0.40370  Biso   1.000  C
  C22      1.0000 0.97330  0.59790  0.40370  Biso   1.000  C
  C23      1.0000 0.90210  0.97330  0.40370  Biso   1.000  C
  C24      1.0000 0.47330  0.40210  0.09630  Biso   1.000  C
  C25      1.0000 0.97330  0.90210  0.90370  Biso   1.000  C
  C26      1.0000 0.59790  0.97330  0.90370  Biso   1.000  C
  C27      1.0000 0.90210  0.52670  0.90370  Biso   1.000  C
  C28      1.0000 0.40210  0.47330  0.59630  Biso   1.000  C
  C29      1.0000 0.47330  0.09790  0.59630  Biso   1.000  C
  C30      1.0000 0.02670  0.40210  0.59630  Biso   1.000  C
  C31      1.0000 0.09790  0.02670  0.59630  Biso   1.000  C
  C32      1.0000 0.52670  0.59790  0.90370  Biso   1.000  C
  C33      1.0000 0.96740  0.03220  0.03360  Biso   1.000  C
  C34      1.0000 0.46780  0.96740  0.03360  Biso   1.000  C
  C35      1.0000 0.03220  0.53260  0.03360  Biso   1.000  C
  C36      1.0000 0.53220  0.46740  0.46640  Biso   1.000  C
  C37      1.0000 0.46740  0.96780  0.46640  Biso   1.000  C
  C38      1.0000 0.03260  0.53220  0.46640  Biso   1.000  C
  C39      1.0000 0.96780  0.03260  0.46640  Biso   1.000  C
  C40      1.0000 0.53260  0.46780  0.03360  Biso   1.000  C
  C41      1.0000 0.03260  0.96780  0.96640  Biso   1.000  C
  C42      1.0000 0.53220  0.03260  0.96640  Biso   1.000  C
  C43      1.0000 0.96780  0.46740  0.96640  Biso   1.000  C
  C44      1.0000 0.46780  0.53260  0.53360  Biso   1.000  C
  C45      1.0000 0.53260  0.03220  0.53360  Biso   1.000  C
  C46      1.0000 0.96740  0.46780  0.53360  Biso   1.000  C
  C47      1.0000 0.03220  0.96740  0.53360  Biso   1.000  C
  C48      1.0000 0.46740  0.53220  0.96640  Biso   1.000  C
  C49      1.0000 0.84510  0.02970  0.03760  Biso   1.000  C
  C50      1.0000 0.47030  0.84510  0.03760  Biso   1.000  C
  C51      1.0000 0.02970  0.65490  0.03760  Biso   1.000  C
  C52      1.0000 0.52970  0.34510  0.46240  Biso   1.000  C
  C53      1.0000 0.34510  0.97030  0.46240  Biso   1.000  C
  C54      1.0000 0.15490  0.52970  0.46240  Biso   1.000  C
  C55      1.0000 0.97030  0.15490  0.46240  Biso   1.000  C
  C56      1.0000 0.65490  0.47030  0.03760  Biso   1.000  C
  C57      1.0000 0.15490  0.97030  0.96240  Biso   1.000  C
  C58      1.0000 0.52970  0.15490  0.96240  Biso   1.000  C
  C59      1.0000 0.97030  0.34510  0.96240  Biso   1.000  C
  C60      1.0000 0.47030  0.65490  0.53760  Biso   1.000  C
  C61      1.0000 0.65490  0.02970  0.53760  Biso   1.000  C
  C62      1.0000 0.84510  0.47030  0.53760  Biso   1.000  C
  C63      1.0000 0.02970  0.84510  0.53760  Biso   1.000  C
  C64      1.0000 0.34510  0.52970  0.96240  Biso   1.000  C
  C65      1.0000 0.78580  0.09530  0.09940  Biso   1.000  C
  C66      1.0000 0.40470  0.78580  0.09940  Biso   1.000  C
  C67      1.0000 0.09530  0.71420  0.09940  Biso   1.000  C
  C68      1.0000 0.59530  0.28580  0.40060  Biso   1.000  C
  C69      1.0000 0.28580  0.90470  0.40060  Biso   1.000  C
  C70      1.0000 0.21420  0.59530  0.40060  Biso   1.000  C
  C71      1.0000 0.90470  0.21420  0.40060  Biso   1.000  C
  C72      1.0000 0.71420  0.40470  0.09940  Biso   1.000  C
  C73      1.0000 0.21420  0.90470  0.90060  Biso   1.000  C
  C74      1.0000 0.59530  0.21420  0.90060  Biso   1.000  C
  C75      1.0000 0.90470  0.28580  0.90060  Biso   1.000  C
  C76      1.0000 0.40470  0.71420  0.59940  Biso   1.000  C
  C77      1.0000 0.71420  0.09530  0.59940  Biso   1.000  C
  C78      1.0000 0.78580  0.40470  0.59940  Biso   1.000  C
  C79      1.0000 0.09530  0.78580  0.59940  Biso   1.000  C
  C80      1.0000 0.28580  0.59530  0.90060  Biso   1.000  C
  H1       1.0000 0.00200  0.20100  0.19850  Biso   1.000  H
  H2       1.0000 0.29900  0.00200  0.19850  Biso   1.000  H
  H3       1.0000 0.20100  0.49800  0.19850  Biso   1.000  H
  H4       1.0000 0.70100  0.50200  0.30150  Biso   1.000  H
  H5       1.0000 0.50200  0.79900  0.30150  Biso   1.000  H
  H6       1.0000 0.99800  0.70100  0.30150  Biso   1.000  H
  H7       1.0000 0.79900  0.99800  0.30150  Biso   1.000  H
  H8       1.0000 0.49800  0.29900  0.19850  Biso   1.000  H
  H9       1.0000 0.99800  0.79900  0.80150  Biso   1.000  H
  H10      1.0000 0.70100  0.99800  0.80150  Biso   1.000  H
  H11      1.0000 0.79900  0.50200  0.80150  Biso   1.000  H
  H12      1.0000 0.29900  0.49800  0.69850  Biso   1.000  H
  H13      1.0000 0.49800  0.20100  0.69850  Biso   1.000  H
  H14      1.0000 0.00200  0.29900  0.69850  Biso   1.000  H
  H15      1.0000 0.20100  0.00200  0.69850  Biso   1.000  H
  H16      1.0000 0.50200  0.70100  0.80150  Biso   1.000  H
  H17      1.0000 0.11070  0.10170  0.09710  Biso   1.000  H
  H18      1.0000 0.39830  0.11070  0.09710  Biso   1.000  H
  H19      1.0000 0.10170  0.38930  0.09710  Biso   1.000  H
  H20      1.0000 0.60170  0.61070  0.40290  Biso   1.000  H
  H21      1.0000 0.61070  0.89830  0.40290  Biso   1.000  H
  H22      1.0000 0.88930  0.60170  0.40290  Biso   1.000  H
  H23      1.0000 0.89830  0.88930  0.40290  Biso   1.000  H
  H24      1.0000 0.38930  0.39830  0.09710  Biso   1.000  H
  H25      1.0000 0.88930  0.89830  0.90290  Biso   1.000  H
  H26      1.0000 0.60170  0.88930  0.90290  Biso   1.000  H
  H27      1.0000 0.89830  0.61070  0.90290  Biso   1.000  H
  H28      1.0000 0.39830  0.38930  0.59710  Biso   1.000  H
  H29      1.0000 0.38930  0.10170  0.59710  Biso   1.000  H
  H30      1.0000 0.11070  0.39830  0.59710  Biso   1.000  H
  H31      1.0000 0.10170  0.11070  0.59710  Biso   1.000  H
  H32      1.0000 0.61070  0.60170  0.90290  Biso   1.000  H
  H33      1.0000 0.80120  0.98350  0.99850  Biso   1.000  H
  H34      1.0000 0.51650  0.80120  0.99850  Biso   1.000  H
  H35      1.0000 0.98350  0.69880  0.99850  Biso   1.000  H
  H36      1.0000 0.48350  0.30120  0.50150  Biso   1.000  H
  H37      1.0000 0.30120  0.01650  0.50150  Biso   1.000  H
  H38      1.0000 0.19880  0.48350  0.50150  Biso   1.000  H
  H39      1.0000 0.01650  0.19880  0.50150  Biso   1.000  H
  H40      1.0000 0.69880  0.51650  0.99850  Biso   1.000  H
  H41      1.0000 0.19880  0.01650  0.00150  Biso   1.000  H
  H42      1.0000 0.48350  0.19880  0.00150  Biso   1.000  H
  H43      1.0000 0.01650  0.30120  0.00150  Biso   1.000  H
  H44      1.0000 0.51650  0.69880  0.49850  Biso   1.000  H
  H45      1.0000 0.69880  0.98350  0.49850  Biso   1.000  H
  H46      1.0000 0.80120  0.51650  0.49850  Biso   1.000  H
  H47      1.0000 0.98350  0.80120  0.49850  Biso   1.000  H
  H48      1.0000 0.30120  0.48350  0.00150  Biso   1.000  H
  H49      1.0000 0.70210  0.09600  0.09890  Biso   1.000  H
  H50      1.0000 0.40400  0.70210  0.09890  Biso   1.000  H
  H51      1.0000 0.09600  0.79790  0.09890  Biso   1.000  H
  H52      1.0000 0.59600  0.20210  0.40110  Biso   1.000  H
  H53      1.0000 0.20210  0.90400  0.40110  Biso   1.000  H
  H54      1.0000 0.29790  0.59600  0.40110  Biso   1.000  H
  H55      1.0000 0.90400  0.29790  0.40110  Biso   1.000  H
  H56      1.0000 0.79790  0.40400  0.09890  Biso   1.000  H
  H57      1.0000 0.29790  0.90400  0.90110  Biso   1.000  H
  H58      1.0000 0.59600  0.29790  0.90110  Biso   1.000  H
  H59      1.0000 0.90400  0.20210  0.90110  Biso   1.000  H
  H60      1.0000 0.40400  0.79790  0.59890  Biso   1.000  H
  H61      1.0000 0.79790  0.09600  0.59890  Biso   1.000  H
  H62      1.0000 0.70210  0.40400  0.59890  Biso   1.000  H
  H63      1.0000 0.09600  0.70210  0.59890  Biso   1.000  H
  H64      1.0000 0.20210  0.59600  0.90110  Biso   1.000  H
  Ti1      1.0000 0.25000  0.25000  0.30810  Biso   1.000  Ti
  Ti2      1.0000 0.75000  0.75000  0.19190  Biso   1.000  Ti
  Ti3      1.0000 0.75000  0.75000  0.69190  Biso   1.000  Ti
  Ti4      1.0000 0.25000  0.25000  0.80810  Biso   1.000  Ti
  F1       1.0000 0.25000  0.25000  0.18990  Biso   1.000  F
  F2       1.0000 0.75000  0.75000  0.31010  Biso   1.000  F
  F3       1.0000 0.75000  0.75000  0.81010  Biso   1.000  F
  F4       1.0000 0.25000  0.25000  0.68990  Biso   1.000  F
  F5       1.0000 0.15580  0.11550  0.30470  Biso   1.000  F
  F6       1.0000 0.38450  0.15580  0.30470  Biso   1.000  F
  F7       1.0000 0.11550  0.34420  0.30470  Biso   1.000  F
  F8       1.0000 0.61550  0.65580  0.19530  Biso   1.000  F
  F9       1.0000 0.65580  0.88450  0.19530  Biso   1.000  F
  F10      1.0000 0.84420  0.61550  0.19530  Biso   1.000  F
  F11      1.0000 0.88450  0.84420  0.19530  Biso   1.000  F
  F12      1.0000 0.34420  0.38450  0.30470  Biso   1.000  F
  F13      1.0000 0.84420  0.88450  0.69530  Biso   1.000  F
  F14      1.0000 0.61550  0.84420  0.69530  Biso   1.000  F
  F15      1.0000 0.88450  0.65580  0.69530  Biso   1.000  F
  F16      1.0000 0.38450  0.34420  0.80470  Biso   1.000  F
  F17      1.0000 0.34420  0.11550  0.80470  Biso   1.000  F
  F18      1.0000 0.15580  0.38450  0.80470  Biso   1.000  F
  F19      1.0000 0.11550  0.15580  0.80470  Biso   1.000  F
  F20      1.0000 0.65580  0.61550  0.69530  Biso   1.000  F
  F21      1.0000 0.25000  0.25000  0.42400  Biso   1.000  F
  F22      1.0000 0.75000  0.75000  0.07600  Biso   1.000  F
  F23      1.0000 0.75000  0.75000  0.57600  Biso   1.000  F
  F24      1.0000 0.25000  0.25000  0.92400  Biso   1.000  F
