data_image0
_cell_length_a       11.2687
_cell_length_b       7.3511
_cell_length_c       11.8506
_cell_angle_alpha    90
_cell_angle_beta     95.07
_cell_angle_gamma    90

_symmetry_space_group_name_H-M    "P 1"
_symmetry_int_tables_number       1

loop_
  _symmetry_equiv_pos_as_xyz
  'x, y, z'

loop_
  _atom_site_label
  _atom_site_occupancy
  _atom_site_fract_x
  _atom_site_fract_y
  _atom_site_fract_z
  _atom_site_thermal_displace_type
  _atom_site_B_iso_or_equiv
  _atom_site_type_symbol
  Cu1      1.0000 0.50000  0.00000  0.50000  Biso   1.000  Cu
  Cu2      1.0000 0.50000  0.50000  0.00000  Biso   1.000  Cu
  Cu3      1.0000 0.00000  0.50000  0.50000  Biso   1.000  Cu
  Cu4      1.0000 0.00000  0.00000  0.00000  Biso   1.000  Cu
  N1       1.0000 0.86056  0.34850  0.52855  Biso   1.000  N
  N2       1.0000 0.13944  0.84850  0.97145  Biso   1.000  N
  N3       1.0000 0.13944  0.65150  0.47145  Biso   1.000  N
  N4       1.0000 0.86056  0.15150  0.02855  Biso   1.000  N
  N5       1.0000 0.65461  0.14450  0.51367  Biso   1.000  N
  N6       1.0000 0.34539  0.64450  0.98633  Biso   1.000  N
  N7       1.0000 0.34539  0.85550  0.48633  Biso   1.000  N
  N8       1.0000 0.65461  0.35550  0.01367  Biso   1.000  N
  O1       1.0000 0.02440  0.30760  0.38949  Biso   1.000  O
  O2       1.0000 0.97560  0.80760  0.11051  Biso   1.000  O
  O3       1.0000 0.97560  0.69240  0.61051  Biso   1.000  O
  O4       1.0000 0.02440  0.19240  0.88949  Biso   1.000  O
  O5       1.0000 0.96800  0.02100  0.33990  Biso   1.000  O
  O6       1.0000 0.03200  0.52100  0.16010  Biso   1.000  O
  O7       1.0000 0.03200  0.97900  0.66010  Biso   1.000  O
  O8       1.0000 0.96800  0.47900  0.83990  Biso   1.000  O
  O9       1.0000 0.48220  0.04000  0.69580  Biso   1.000  O
  O10      1.0000 0.51780  0.54000  0.80420  Biso   1.000  O
  O11      1.0000 0.51780  0.96000  0.30420  Biso   1.000  O
  O12      1.0000 0.48220  0.46000  0.19580  Biso   1.000  O
  O13      1.0000 0.85898  0.68640  0.38126  Biso   1.000  O
  O14      1.0000 0.14102  0.18640  0.11874  Biso   1.000  O
  O15      1.0000 0.14102  0.31360  0.61874  Biso   1.000  O
  O16      1.0000 0.85898  0.81360  0.88126  Biso   1.000  O
  O17      1.0000 0.80094  0.46910  0.23487  Biso   1.000  O
  O18      1.0000 0.19906  0.96910  0.26513  Biso   1.000  O
  O19      1.0000 0.19906  0.53090  0.76513  Biso   1.000  O
  O20      1.0000 0.80094  0.03090  0.73487  Biso   1.000  O
  O21      1.0000 0.66194  0.55260  0.36855  Biso   1.000  O
  O22      1.0000 0.33806  0.05260  0.13145  Biso   1.000  O
  O23      1.0000 0.33806  0.44740  0.63145  Biso   1.000  O
  O24      1.0000 0.66194  0.94740  0.86855  Biso   1.000  O
  O25      1.0000 0.71321  0.77070  0.23089  Biso   1.000  O
  O26      1.0000 0.28679  0.27070  0.26911  Biso   1.000  O
  O27      1.0000 0.28679  0.22930  0.76911  Biso   1.000  O
  O28      1.0000 0.71321  0.72930  0.73089  Biso   1.000  O
  S1       1.0000 0.75995  0.61748  0.30303  Biso   1.000  S
  S2       1.0000 0.24005  0.11748  0.19697  Biso   1.000  S
  S3       1.0000 0.24005  0.38252  0.69697  Biso   1.000  S
  S4       1.0000 0.75995  0.88252  0.80303  Biso   1.000  S
  C1       1.0000 0.95300  0.17650  0.39200  Biso   1.000  C
  C2       1.0000 0.04700  0.67650  0.10800  Biso   1.000  C
  C3       1.0000 0.04700  0.82350  0.60800  Biso   1.000  C
  C4       1.0000 0.95300  0.32350  0.89200  Biso   1.000  C
  C5       1.0000 0.84840  0.20270  0.45970  Biso   1.000  C
  C6       1.0000 0.15160  0.70270  0.04030  Biso   1.000  C
  C7       1.0000 0.15160  0.79730  0.54030  Biso   1.000  C
  C8       1.0000 0.84840  0.29730  0.95970  Biso   1.000  C
  C9       1.0000 0.74590  0.10000  0.45240  Biso   1.000  C
  C10      1.0000 0.25410  0.60000  0.04760  Biso   1.000  C
  C11      1.0000 0.25410  0.90000  0.54760  Biso   1.000  C
  C12      1.0000 0.74590  0.40000  0.95240  Biso   1.000  C
  H1       1.0000 0.73940  0.99920  0.40490  Biso   1.000  H
  H2       1.0000 0.26060  0.49920  0.09510  Biso   1.000  H
  H3       1.0000 0.26060  0.00080  0.59510  Biso   1.000  H
  H4       1.0000 0.73940  0.50080  0.90490  Biso   1.000  H
  C13      1.0000 0.66860  0.28670  0.58240  Biso   1.000  C
  C14      1.0000 0.33140  0.78670  0.91760  Biso   1.000  C
  C15      1.0000 0.33140  0.71330  0.41760  Biso   1.000  C
  C16      1.0000 0.66860  0.21330  0.08240  Biso   1.000  C
  H5       1.0000 0.60730  0.31840  0.62630  Biso   1.000  H
  H6       1.0000 0.39270  0.81840  0.87370  Biso   1.000  H
  H7       1.0000 0.39270  0.68160  0.37370  Biso   1.000  H
  H8       1.0000 0.60730  0.18160  0.12630  Biso   1.000  H
  C17      1.0000 0.77250  0.38990  0.59060  Biso   1.000  C
  C18      1.0000 0.22750  0.88990  0.90940  Biso   1.000  C
  C19      1.0000 0.22750  0.61010  0.40940  Biso   1.000  C
  C20      1.0000 0.77250  0.11010  0.09060  Biso   1.000  C
  H9       1.0000 0.78000  0.48840  0.64000  Biso   1.000  H
  H10      1.0000 0.22000  0.98840  0.86000  Biso   1.000  H
  H11      1.0000 0.22000  0.51160  0.36000  Biso   1.000  H
  H12      1.0000 0.78000  0.01160  0.14000  Biso   1.000  H
  O29      1.0000 0.41113  0.22860  0.47065  Biso   1.000  O
  O30      1.0000 0.58887  0.72860  0.02935  Biso   1.000  O
  O31      1.0000 0.58887  0.77140  0.52935  Biso   1.000  O
  O32      1.0000 0.41113  0.27140  0.97065  Biso   1.000  O
  H13      1.0000 0.53200  0.00800  0.75000  Biso   1.000  H
  H14      1.0000 0.46800  0.50800  0.75000  Biso   1.000  H
  H15      1.0000 0.46800  0.99200  0.25000  Biso   1.000  H
  H16      1.0000 0.53200  0.49200  0.25000  Biso   1.000  H
  H17      1.0000 0.43200  0.11400  0.71900  Biso   1.000  H
  H18      1.0000 0.56800  0.61400  0.78100  Biso   1.000  H
  H19      1.0000 0.56800  0.88600  0.28100  Biso   1.000  H
  H20      1.0000 0.43200  0.38600  0.21900  Biso   1.000  H
  H21      1.0000 0.38400  0.29400  0.52120  Biso   1.000  H
  H22      1.0000 0.61600  0.79400  0.97880  Biso   1.000  H
  H23      1.0000 0.61600  0.70600  0.47880  Biso   1.000  H
  H24      1.0000 0.38400  0.20600  0.02120  Biso   1.000  H
  H25      1.0000 0.36500  0.23300  0.41040  Biso   1.000  H
  H26      1.0000 0.63500  0.73300  0.08960  Biso   1.000  H
  H27      1.0000 0.63500  0.76700  0.58960  Biso   1.000  H
  H28      1.0000 0.36500  0.26700  0.91040  Biso   1.000  H
