data_image0
_cell_length_a       10.3151
_cell_length_b       14.7264
_cell_length_c       12.2101
_cell_angle_alpha    90
_cell_angle_beta     98.797
_cell_angle_gamma    90

_symmetry_space_group_name_H-M    "P 1"
_symmetry_int_tables_number       1

loop_
  _symmetry_equiv_pos_as_xyz
  'x, y, z'

loop_
  _atom_site_label
  _atom_site_occupancy
  _atom_site_fract_x
  _atom_site_fract_y
  _atom_site_fract_z
  _atom_site_thermal_displace_type
  _atom_site_B_iso_or_equiv
  _atom_site_type_symbol
  C1       1.0000 0.14280  0.29260  0.82850  Biso   1.000  C
  C2       1.0000 0.35720  0.79260  0.67150  Biso   1.000  C
  C3       1.0000 0.85720  0.70740  0.17150  Biso   1.000  C
  C4       1.0000 0.64280  0.20740  0.32850  Biso   1.000  C
  H1       1.0000 0.18360  0.26760  0.89890  Biso   1.000  H
  H2       1.0000 0.31640  0.76760  0.60110  Biso   1.000  H
  H3       1.0000 0.81640  0.73240  0.10110  Biso   1.000  H
  H4       1.0000 0.68360  0.23240  0.39890  Biso   1.000  H
  H5       1.0000 0.11520  0.35430  0.84040  Biso   1.000  H
  H6       1.0000 0.38480  0.85430  0.65960  Biso   1.000  H
  H7       1.0000 0.88480  0.64570  0.15960  Biso   1.000  H
  H8       1.0000 0.61520  0.14570  0.34040  Biso   1.000  H
  C5       1.0000 0.23620  0.29120  0.74710  Biso   1.000  C
  C6       1.0000 0.26380  0.79120  0.75290  Biso   1.000  C
  C7       1.0000 0.76380  0.70880  0.25290  Biso   1.000  C
  C8       1.0000 0.73620  0.20880  0.24710  Biso   1.000  C
  H9       1.0000 0.31660  0.26050  0.77850  Biso   1.000  H
  H10      1.0000 0.18340  0.76050  0.72150  Biso   1.000  H
  H11      1.0000 0.68340  0.73950  0.22150  Biso   1.000  H
  H12      1.0000 0.81660  0.23950  0.27850  Biso   1.000  H
  H13      1.0000 0.25770  0.35270  0.72780  Biso   1.000  H
  H14      1.0000 0.24230  0.85270  0.77220  Biso   1.000  H
  H15      1.0000 0.74230  0.64730  0.27220  Biso   1.000  H
  H16      1.0000 0.75770  0.14730  0.22780  Biso   1.000  H
  C9       1.0000 0.17080  0.24140  0.64610  Biso   1.000  C
  C10      1.0000 0.32920  0.74140  0.85390  Biso   1.000  C
  C11      1.0000 0.82920  0.75860  0.35390  Biso   1.000  C
  C12      1.0000 0.67080  0.25860  0.14610  Biso   1.000  C
  H17      1.0000 0.15400  0.28130  0.58230  Biso   1.000  H
  H18      1.0000 0.34600  0.78130  0.91770  Biso   1.000  H
  H19      1.0000 0.84600  0.71870  0.41770  Biso   1.000  H
  H20      1.0000 0.65400  0.21870  0.08230  Biso   1.000  H
  H21      1.0000 0.22290  0.19010  0.62850  Biso   1.000  H
  H22      1.0000 0.27710  0.69010  0.87150  Biso   1.000  H
  H23      1.0000 0.77710  0.80990  0.37150  Biso   1.000  H
  H24      1.0000 0.72290  0.30990  0.12850  Biso   1.000  H
  C13      1.0000 0.04700  0.21130  0.68270  Biso   1.000  C
  C14      1.0000 0.45300  0.71130  0.81730  Biso   1.000  C
  C15      1.0000 0.95300  0.78870  0.31730  Biso   1.000  C
  C16      1.0000 0.54700  0.28870  0.18270  Biso   1.000  C
  C17      1.0000 0.94520  0.14970  0.62260  Biso   1.000  C
  C18      1.0000 0.55480  0.64970  0.87740  Biso   1.000  C
  C19      1.0000 0.05480  0.85030  0.37740  Biso   1.000  C
  C20      1.0000 0.44520  0.35030  0.12260  Biso   1.000  C
  C21      1.0000 0.93700  0.11350  0.51800  Biso   1.000  C
  C22      1.0000 0.56300  0.61350  0.98200  Biso   1.000  C
  C23      1.0000 0.06300  0.88650  0.48200  Biso   1.000  C
  C24      1.0000 0.43700  0.38650  0.01800  Biso   1.000  C
  H25      1.0000 0.99750  0.12910  0.47200  Biso   1.000  H
  H26      1.0000 0.50250  0.62910  0.02800  Biso   1.000  H
  H27      1.0000 0.00250  0.87090  0.52800  Biso   1.000  H
  H28      1.0000 0.49750  0.37090  0.97200  Biso   1.000  H
  C25      1.0000 0.83670  0.05320  0.48310  Biso   1.000  C
  C26      1.0000 0.66330  0.55320  0.01690  Biso   1.000  C
  C27      1.0000 0.16330  0.94680  0.51690  Biso   1.000  C
  C28      1.0000 0.33670  0.44680  0.98310  Biso   1.000  C
  H29      1.0000 0.82940  0.02900  0.41210  Biso   1.000  H
  H30      1.0000 0.67060  0.52900  0.08790  Biso   1.000  H
  H31      1.0000 0.17060  0.97100  0.58790  Biso   1.000  H
  H32      1.0000 0.32940  0.47100  0.91210  Biso   1.000  H
  C29      1.0000 0.74760  0.02820  0.54980  Biso   1.000  C
  C30      1.0000 0.75240  0.52820  0.95020  Biso   1.000  C
  C31      1.0000 0.25240  0.97180  0.45020  Biso   1.000  C
  C32      1.0000 0.24760  0.47180  0.04980  Biso   1.000  C
  H33      1.0000 0.68190  0.98620  0.52620  Biso   1.000  H
  H34      1.0000 0.81810  0.48620  0.97380  Biso   1.000  H
  H35      1.0000 0.31810  0.01380  0.47380  Biso   1.000  H
  H36      1.0000 0.18190  0.51380  0.02620  Biso   1.000  H
  C33      1.0000 0.75920  0.06820  0.65520  Biso   1.000  C
  C34      1.0000 0.74080  0.56820  0.84480  Biso   1.000  C
  C35      1.0000 0.24080  0.93180  0.34480  Biso   1.000  C
  C36      1.0000 0.25920  0.43180  0.15520  Biso   1.000  C
  C37      1.0000 0.67880  0.05420  0.74120  Biso   1.000  C
  C38      1.0000 0.82120  0.55420  0.75880  Biso   1.000  C
  C39      1.0000 0.32120  0.94580  0.25880  Biso   1.000  C
  C40      1.0000 0.17880  0.44580  0.24120  Biso   1.000  C
  C41      1.0000 0.56140  0.99560  0.73900  Biso   1.000  C
  C42      1.0000 0.93860  0.49560  0.76100  Biso   1.000  C
  C43      1.0000 0.43860  0.00440  0.26100  Biso   1.000  C
  C44      1.0000 0.06140  0.50440  0.23900  Biso   1.000  C
  H37      1.0000 0.58480  0.93180  0.73920  Biso   1.000  H
  H38      1.0000 0.91520  0.43180  0.76080  Biso   1.000  H
  H39      1.0000 0.41520  0.06820  0.26080  Biso   1.000  H
  H40      1.0000 0.08480  0.56820  0.23920  Biso   1.000  H
  H41      1.0000 0.49670  0.00820  0.67440  Biso   1.000  H
  H42      1.0000 0.00330  0.50820  0.82560  Biso   1.000  H
  H43      1.0000 0.50330  0.99180  0.32560  Biso   1.000  H
  H44      1.0000 0.99670  0.49180  0.17440  Biso   1.000  H
  C45      1.0000 0.51050  0.02160  0.84520  Biso   1.000  C
  C46      1.0000 0.98950  0.52160  0.65480  Biso   1.000  C
  C47      1.0000 0.48950  0.97840  0.15480  Biso   1.000  C
  C48      1.0000 0.01050  0.47840  0.34520  Biso   1.000  C
  H45      1.0000 0.49310  0.96800  0.88670  Biso   1.000  H
  H46      1.0000 0.00690  0.46800  0.61330  Biso   1.000  H
  H47      1.0000 0.50690  0.03200  0.11330  Biso   1.000  H
  H48      1.0000 0.99310  0.53200  0.38670  Biso   1.000  H
  H49      1.0000 0.43050  0.05700  0.82900  Biso   1.000  H
  H50      1.0000 0.06950  0.55700  0.67100  Biso   1.000  H
  H51      1.0000 0.56950  0.94300  0.17100  Biso   1.000  H
  H52      1.0000 0.93050  0.44300  0.32900  Biso   1.000  H
  C49      1.0000 0.62110  0.07840  0.91030  Biso   1.000  C
  C50      1.0000 0.87890  0.57840  0.58970  Biso   1.000  C
  C51      1.0000 0.37890  0.92160  0.08970  Biso   1.000  C
  C52      1.0000 0.12110  0.42160  0.41030  Biso   1.000  C
  H53      1.0000 0.58680  0.13470  0.93550  Biso   1.000  H
  H54      1.0000 0.91320  0.63470  0.56450  Biso   1.000  H
  H55      1.0000 0.41320  0.86530  0.06450  Biso   1.000  H
  H56      1.0000 0.08680  0.36530  0.43550  Biso   1.000  H
  H57      1.0000 0.66380  0.04500  0.97430  Biso   1.000  H
  H58      1.0000 0.83620  0.54500  0.52570  Biso   1.000  H
  H59      1.0000 0.33620  0.95500  0.02570  Biso   1.000  H
  H60      1.0000 0.16380  0.45500  0.47430  Biso   1.000  H
  N1       1.0000 0.02870  0.23630  0.78030  Biso   1.000  N
  N2       1.0000 0.47130  0.73630  0.71970  Biso   1.000  N
  N3       1.0000 0.97130  0.76370  0.21970  Biso   1.000  N
  N4       1.0000 0.52870  0.26370  0.28030  Biso   1.000  N
  N5       1.0000 0.85670  0.12820  0.68640  Biso   1.000  N
  N6       1.0000 0.64330  0.62820  0.81360  Biso   1.000  N
  N7       1.0000 0.14330  0.87180  0.31360  Biso   1.000  N
  N8       1.0000 0.35670  0.37180  0.18640  Biso   1.000  N
  N9       1.0000 0.71290  0.09660  0.83370  Biso   1.000  N
  N10      1.0000 0.78710  0.59660  0.66630  Biso   1.000  N
  N11      1.0000 0.28710  0.90340  0.16630  Biso   1.000  N
  N12      1.0000 0.21290  0.40340  0.33370  Biso   1.000  N
  N13      1.0000 0.92750  0.19150  0.99660  Biso   1.000  N
  N14      1.0000 0.57250  0.69150  0.50340  Biso   1.000  N
  N15      1.0000 0.07250  0.80850  0.00340  Biso   1.000  N
  N16      1.0000 0.42750  0.30850  0.49660  Biso   1.000  N
  N17      1.0000 0.94710  0.26710  0.03570  Biso   1.000  N
  N18      1.0000 0.55290  0.76710  0.46430  Biso   1.000  N
  N19      1.0000 0.05290  0.73290  0.96430  Biso   1.000  N
  N20      1.0000 0.44710  0.23290  0.53570  Biso   1.000  N
  N21      1.0000 0.96630  0.33830  0.07440  Biso   1.000  N
  N22      1.0000 0.53370  0.83830  0.42560  Biso   1.000  N
  N23      1.0000 0.03370  0.66170  0.92560  Biso   1.000  N
  N24      1.0000 0.46630  0.16170  0.57440  Biso   1.000  N
  N25      1.0000 0.57190  0.38780  0.72670  Biso   1.000  N
  N26      1.0000 0.92810  0.88780  0.77330  Biso   1.000  N
  N27      1.0000 0.42810  0.61220  0.27330  Biso   1.000  N
  N28      1.0000 0.07190  0.11220  0.22670  Biso   1.000  N
  N29      1.0000 0.65830  0.34540  0.78050  Biso   1.000  N
  N30      1.0000 0.84170  0.84540  0.71950  Biso   1.000  N
  N31      1.0000 0.34170  0.65460  0.21950  Biso   1.000  N
  N32      1.0000 0.15830  0.15460  0.28050  Biso   1.000  N
  N33      1.0000 0.74190  0.30670  0.83780  Biso   1.000  N
  N34      1.0000 0.75810  0.80670  0.66220  Biso   1.000  N
  N35      1.0000 0.25810  0.69330  0.16220  Biso   1.000  N
  N36      1.0000 0.24190  0.19330  0.33780  Biso   1.000  N
  N37      1.0000 0.94650  0.97800  0.08140  Biso   1.000  N
  N38      1.0000 0.55350  0.47800  0.41860  Biso   1.000  N
  N39      1.0000 0.05350  0.02200  0.91860  Biso   1.000  N
  N40      1.0000 0.44650  0.52200  0.58140  Biso   1.000  N
  N41      1.0000 0.87910  0.97250  0.15440  Biso   1.000  N
  N42      1.0000 0.62090  0.47250  0.34560  Biso   1.000  N
  N43      1.0000 0.12090  0.02750  0.84560  Biso   1.000  N
  N44      1.0000 0.37910  0.52750  0.65440  Biso   1.000  N
  N45      1.0000 0.81830  0.96680  0.22520  Biso   1.000  N
  N46      1.0000 0.68170  0.46680  0.27480  Biso   1.000  N
  N47      1.0000 0.18170  0.03320  0.77480  Biso   1.000  N
  N48      1.0000 0.31830  0.53320  0.72520  Biso   1.000  N
  Cl1      1.0000 0.27230  0.14962  0.05144  Biso   1.000  Cl
  Cl2      1.0000 0.22770  0.64962  0.44856  Biso   1.000  Cl
  Cl3      1.0000 0.72770  0.85038  0.94856  Biso   1.000  Cl
  Cl4      1.0000 0.77230  0.35038  0.55144  Biso   1.000  Cl
  Cu1      1.0000 0.87194  0.17947  0.83666  Biso   1.000  Cu
  Cu2      1.0000 0.62806  0.67947  0.66334  Biso   1.000  Cu
  Cu3      1.0000 0.12806  0.82053  0.16334  Biso   1.000  Cu
  Cu4      1.0000 0.37194  0.32053  0.33666  Biso   1.000  Cu
  Cu5      1.0000 0.07441  0.08157  0.06928  Biso   1.000  Cu
  Cu6      1.0000 0.42559  0.58157  0.43072  Biso   1.000  Cu
  Cu7      1.0000 0.92559  0.91843  0.93072  Biso   1.000  Cu
  Cu8      1.0000 0.57441  0.41843  0.56928  Biso   1.000  Cu
