data_image0
_cell_length_a       9.035
_cell_length_b       22.008
_cell_length_c       8.218
_cell_angle_alpha    90
_cell_angle_beta     90
_cell_angle_gamma    90

_symmetry_space_group_name_H-M    "P 1"
_symmetry_int_tables_number       1

loop_
  _symmetry_equiv_pos_as_xyz
  'x, y, z'

loop_
  _atom_site_label
  _atom_site_occupancy
  _atom_site_fract_x
  _atom_site_fract_y
  _atom_site_fract_z
  _atom_site_thermal_displace_type
  _atom_site_B_iso_or_equiv
  _atom_site_type_symbol
  C1       1.0000 0.73590  0.80939  0.75080  Biso   1.000  C
  C2       1.0000 0.76410  0.19061  0.25080  Biso   1.000  C
  C3       1.0000 0.23590  0.69061  0.24920  Biso   1.000  C
  C4       1.0000 0.26410  0.30939  0.74920  Biso   1.000  C
  H1       1.0000 0.72180  0.80980  0.63130  Biso   1.000  H
  H2       1.0000 0.77820  0.19020  0.13130  Biso   1.000  H
  H3       1.0000 0.22180  0.69020  0.36870  Biso   1.000  H
  H4       1.0000 0.27820  0.30980  0.86870  Biso   1.000  H
  H5       1.0000 0.64000  0.81850  0.80370  Biso   1.000  H
  H6       1.0000 0.86000  0.18150  0.30370  Biso   1.000  H
  H7       1.0000 0.14000  0.68150  0.19630  Biso   1.000  H
  H8       1.0000 0.36000  0.31850  0.69630  Biso   1.000  H
  C5       1.0000 0.79380  0.74819  0.80620  Biso   1.000  C
  C6       1.0000 0.70620  0.25181  0.30620  Biso   1.000  C
  C7       1.0000 0.29380  0.75181  0.19380  Biso   1.000  C
  C8       1.0000 0.20620  0.24819  0.69380  Biso   1.000  C
  H9       1.0000 0.74950  0.71460  0.74240  Biso   1.000  H
  H10      1.0000 0.75050  0.28540  0.24240  Biso   1.000  H
  H11      1.0000 0.24950  0.78540  0.25760  Biso   1.000  H
  H12      1.0000 0.25050  0.21460  0.75760  Biso   1.000  H
  H13      1.0000 0.77430  0.74140  0.92330  Biso   1.000  H
  H14      1.0000 0.72570  0.25860  0.42330  Biso   1.000  H
  H15      1.0000 0.27430  0.75860  0.07670  Biso   1.000  H
  H16      1.0000 0.22570  0.24140  0.57670  Biso   1.000  H
  C9       1.0000 0.95870  0.75416  0.77240  Biso   1.000  C
  C10      1.0000 0.54130  0.24584  0.27240  Biso   1.000  C
  C11      1.0000 0.45870  0.74584  0.22760  Biso   1.000  C
  C12      1.0000 0.04130  0.25416  0.72760  Biso   1.000  C
  H17      1.0000 0.98090  0.74560  0.65670  Biso   1.000  H
  H18      1.0000 0.51910  0.25440  0.15670  Biso   1.000  H
  H19      1.0000 0.48090  0.75440  0.34330  Biso   1.000  H
  H20      1.0000 0.01910  0.24560  0.84330  Biso   1.000  H
  H21      1.0000 0.01640  0.72590  0.84160  Biso   1.000  H
  H22      1.0000 0.48360  0.27410  0.34160  Biso   1.000  H
  H23      1.0000 0.51640  0.77410  0.15840  Biso   1.000  H
  H24      1.0000 0.98360  0.22590  0.65840  Biso   1.000  H
  C13      1.0000 0.99440  0.82063  0.81480  Biso   1.000  C
  C14      1.0000 0.50560  0.17937  0.31480  Biso   1.000  C
  C15      1.0000 0.49440  0.67937  0.18520  Biso   1.000  C
  C16      1.0000 0.00560  0.32063  0.68520  Biso   1.000  C
  H25      1.0000 0.02870  0.82270  0.93030  Biso   1.000  H
  H26      1.0000 0.47130  0.17730  0.43030  Biso   1.000  H
  H27      1.0000 0.52870  0.67730  0.06970  Biso   1.000  H
  H28      1.0000 0.97130  0.32270  0.56970  Biso   1.000  H
  C17      1.0000 0.11080  0.84841  0.70710  Biso   1.000  C
  C18      1.0000 0.38920  0.15159  0.20710  Biso   1.000  C
  C19      1.0000 0.61080  0.65159  0.29290  Biso   1.000  C
  C20      1.0000 0.88920  0.34841  0.79290  Biso   1.000  C
  C21      1.0000 0.24890  0.82294  0.68000  Biso   1.000  C
  C22      1.0000 0.25110  0.17706  0.18000  Biso   1.000  C
  C23      1.0000 0.74890  0.67706  0.32000  Biso   1.000  C
  C24      1.0000 0.75110  0.32294  0.82000  Biso   1.000  C
  H29      1.0000 0.27640  0.78590  0.73100  Biso   1.000  H
  H30      1.0000 0.22360  0.21410  0.23100  Biso   1.000  H
  H31      1.0000 0.77640  0.71410  0.26900  Biso   1.000  H
  H32      1.0000 0.72360  0.28590  0.76900  Biso   1.000  H
  C25      1.0000 0.34630  0.85283  0.57660  Biso   1.000  C
  C26      1.0000 0.15370  0.14717  0.07660  Biso   1.000  C
  C27      1.0000 0.84630  0.64717  0.42340  Biso   1.000  C
  C28      1.0000 0.65370  0.35283  0.92340  Biso   1.000  C
  H33      1.0000 0.44110  0.83590  0.55570  Biso   1.000  H
  H34      1.0000 0.05890  0.16410  0.05570  Biso   1.000  H
  H35      1.0000 0.94110  0.66410  0.44430  Biso   1.000  H
  H36      1.0000 0.55890  0.33590  0.94430  Biso   1.000  H
  C29      1.0000 0.30600  0.90727  0.50370  Biso   1.000  C
  C30      1.0000 0.19400  0.09273  0.00370  Biso   1.000  C
  C31      1.0000 0.80600  0.59273  0.49630  Biso   1.000  C
  C32      1.0000 0.69400  0.40727  0.99630  Biso   1.000  C
  H37      1.0000 0.37240  0.92810  0.43360  Biso   1.000  H
  H38      1.0000 0.12760  0.07190  0.93360  Biso   1.000  H
  H39      1.0000 0.87240  0.57190  0.56640  Biso   1.000  H
  H40      1.0000 0.62760  0.42810  0.06640  Biso   1.000  H
  C33      1.0000 0.16610  0.93042  0.53610  Biso   1.000  C
  C34      1.0000 0.33390  0.06958  0.03610  Biso   1.000  C
  C35      1.0000 0.66610  0.56958  0.46390  Biso   1.000  C
  C36      1.0000 0.83390  0.43042  0.96390  Biso   1.000  C
  C37      1.0000 0.10770  0.98865  0.46380  Biso   1.000  C
  C38      1.0000 0.39230  0.01135  0.96380  Biso   1.000  C
  C39      1.0000 0.60770  0.51135  0.53620  Biso   1.000  C
  C40      1.0000 0.89230  0.48865  0.03620  Biso   1.000  C
  H41      1.0000 0.11320  0.98600  0.34250  Biso   1.000  H
  H42      1.0000 0.38680  0.01400  0.84250  Biso   1.000  H
  H43      1.0000 0.61320  0.51400  0.65750  Biso   1.000  H
  H44      1.0000 0.88680  0.48600  0.15750  Biso   1.000  H
  C41      1.0000 0.19070  0.04595  0.52060  Biso   1.000  C
  C42      1.0000 0.30930  0.95405  0.02060  Biso   1.000  C
  C43      1.0000 0.69070  0.45405  0.47940  Biso   1.000  C
  C44      1.0000 0.80930  0.54595  0.97940  Biso   1.000  C
  H45      1.0000 0.23030  0.04060  0.63200  Biso   1.000  H
  H46      1.0000 0.26970  0.95940  0.13200  Biso   1.000  H
  H47      1.0000 0.73030  0.45940  0.36800  Biso   1.000  H
  H48      1.0000 0.76970  0.54060  0.86800  Biso   1.000  H
  H49      1.0000 0.27330  0.05590  0.44600  Biso   1.000  H
  H50      1.0000 0.22670  0.94410  0.94600  Biso   1.000  H
  H51      1.0000 0.77330  0.44410  0.55400  Biso   1.000  H
  H52      1.0000 0.72670  0.55590  0.05400  Biso   1.000  H
  C45      1.0000 0.07290  0.09455  0.51630  Biso   1.000  C
  C46      1.0000 0.42710  0.90545  0.01630  Biso   1.000  C
  C47      1.0000 0.57290  0.40545  0.48370  Biso   1.000  C
  C48      1.0000 0.92710  0.59455  0.98370  Biso   1.000  C
  H53      1.0000 0.09980  0.12940  0.58660  Biso   1.000  H
  H54      1.0000 0.40020  0.87060  0.08660  Biso   1.000  H
  H55      1.0000 0.59980  0.37060  0.41340  Biso   1.000  H
  H56      1.0000 0.90020  0.62940  0.91340  Biso   1.000  H
  H57      1.0000 0.05610  0.10930  0.40400  Biso   1.000  H
  H58      1.0000 0.44390  0.89070  0.90400  Biso   1.000  H
  H59      1.0000 0.55610  0.39070  0.59600  Biso   1.000  H
  H60      1.0000 0.94390  0.60930  0.09600  Biso   1.000  H
  C49      1.0000 0.93890  0.06176  0.58110  Biso   1.000  C
  C50      1.0000 0.56110  0.93824  0.08110  Biso   1.000  C
  C51      1.0000 0.43890  0.43824  0.41890  Biso   1.000  C
  C52      1.0000 0.06110  0.56176  0.91890  Biso   1.000  C
  H61      1.0000 0.94010  0.06100  0.70150  Biso   1.000  H
  H62      1.0000 0.55990  0.93900  0.20150  Biso   1.000  H
  H63      1.0000 0.44010  0.43900  0.29850  Biso   1.000  H
  H64      1.0000 0.05990  0.56100  0.79850  Biso   1.000  H
  H65      1.0000 0.84690  0.08190  0.54440  Biso   1.000  H
  H66      1.0000 0.65310  0.91810  0.04440  Biso   1.000  H
  H67      1.0000 0.34690  0.41810  0.45560  Biso   1.000  H
  H68      1.0000 0.15310  0.58190  0.95560  Biso   1.000  H
  N1       1.0000 0.84980  0.85474  0.79980  Biso   1.000  N
  N2       1.0000 0.65020  0.14526  0.29980  Biso   1.000  N
  N3       1.0000 0.34980  0.64526  0.20020  Biso   1.000  N
  N4       1.0000 0.15020  0.35474  0.70020  Biso   1.000  N
  H69      1.0000 0.83400  0.86520  0.87900  Biso   1.000  H
  H70      1.0000 0.66600  0.13480  0.37900  Biso   1.000  H
  H71      1.0000 0.33400  0.63480  0.12100  Biso   1.000  H
  H72      1.0000 0.16600  0.36520  0.62100  Biso   1.000  H
  N5       1.0000 0.07367  0.90108  0.63640  Biso   1.000  N
  N6       1.0000 0.42633  0.09892  0.13640  Biso   1.000  N
  N7       1.0000 0.57367  0.59892  0.36360  Biso   1.000  N
  N8       1.0000 0.92633  0.40108  0.86360  Biso   1.000  N
  N9       1.0000 0.94870  0.99871  0.51370  Biso   1.000  N
  N10      1.0000 0.55130  0.00129  0.01370  Biso   1.000  N
  N11      1.0000 0.44870  0.50129  0.48630  Biso   1.000  N
  N12      1.0000 0.05130  0.49871  0.98630  Biso   1.000  N
  H73      1.0000 0.89700  0.99620  0.43500  Biso   1.000  H
  H74      1.0000 0.60300  0.00380  0.93500  Biso   1.000  H
  H75      1.0000 0.39700  0.50380  0.56500  Biso   1.000  H
  H76      1.0000 0.10300  0.49620  0.06500  Biso   1.000  H
  N13      1.0000 0.66740  0.96141  0.67520  Biso   1.000  N
  N14      1.0000 0.83260  0.03859  0.17520  Biso   1.000  N
  N15      1.0000 0.16740  0.53859  0.32480  Biso   1.000  N
  N16      1.0000 0.33260  0.46141  0.82480  Biso   1.000  N
  N17      1.0000 0.62030  0.98847  0.55820  Biso   1.000  N
  N18      1.0000 0.87970  0.01153  0.05820  Biso   1.000  N
  N19      1.0000 0.12030  0.51153  0.44180  Biso   1.000  N
  N20      1.0000 0.37970  0.48847  0.94180  Biso   1.000  N
  N21      1.0000 0.57250  0.01431  0.44770  Biso   1.000  N
  N22      1.0000 0.92750  0.98569  0.94770  Biso   1.000  N
  N23      1.0000 0.07250  0.48569  0.55230  Biso   1.000  N
  N24      1.0000 0.42750  0.51431  0.05230  Biso   1.000  N
  O1       1.0000 0.79620  0.88177  0.39020  Biso   1.000  O
  O2       1.0000 0.70380  0.11823  0.89020  Biso   1.000  O
  O3       1.0000 0.29620  0.61823  0.60980  Biso   1.000  O
  O4       1.0000 0.20380  0.38177  0.10980  Biso   1.000  O
  O5       1.0000 0.95610  0.79844  0.37360  Biso   1.000  O
  O6       1.0000 0.54390  0.20156  0.87360  Biso   1.000  O
  O7       1.0000 0.45610  0.70156  0.62640  Biso   1.000  O
  O8       1.0000 0.04390  0.29844  0.12640  Biso   1.000  O
  O9       1.0000 0.79920  0.82168  0.15370  Biso   1.000  O
  O10      1.0000 0.70080  0.17832  0.65370  Biso   1.000  O
  O11      1.0000 0.29920  0.67832  0.84630  Biso   1.000  O
  O12      1.0000 0.20080  0.32168  0.34630  Biso   1.000  O
  O13      1.0000 0.00100  0.88492  0.21550  Biso   1.000  O
  O14      1.0000 0.49900  0.11508  0.71550  Biso   1.000  O
  O15      1.0000 0.50100  0.61508  0.78450  Biso   1.000  O
  O16      1.0000 0.99900  0.38492  0.28450  Biso   1.000  O
  Cl1      1.0000 0.88876  0.84660  0.28293  Biso   1.000  Cl
  Cl2      1.0000 0.61124  0.15340  0.78293  Biso   1.000  Cl
  Cl3      1.0000 0.38876  0.65340  0.71707  Biso   1.000  Cl
  Cl4      1.0000 0.11124  0.34660  0.21707  Biso   1.000  Cl
  Cu1      1.0000 0.87268  0.93114  0.66033  Biso   1.000  Cu
  Cu2      1.0000 0.62732  0.06886  0.16033  Biso   1.000  Cu
  Cu3      1.0000 0.37268  0.56886  0.33967  Biso   1.000  Cu
  Cu4      1.0000 0.12732  0.43114  0.83967  Biso   1.000  Cu
