data_image0
_cell_length_a       17.2819
_cell_length_b       8.1612
_cell_length_c       23.3019
_cell_angle_alpha    90
_cell_angle_beta     90
_cell_angle_gamma    90

_symmetry_space_group_name_H-M    "P 1"
_symmetry_int_tables_number       1

loop_
  _symmetry_equiv_pos_as_xyz
  'x, y, z'

loop_
  _atom_site_label
  _atom_site_occupancy
  _atom_site_fract_x
  _atom_site_fract_y
  _atom_site_fract_z
  _atom_site_thermal_displace_type
  _atom_site_B_iso_or_equiv
  _atom_site_type_symbol
  C1       1.0000 0.30330  0.11540  0.47220  Biso   1.000  C
  C2       1.0000 0.69670  0.88460  0.97220  Biso   1.000  C
  C3       1.0000 0.19670  0.61540  0.97220  Biso   1.000  C
  C4       1.0000 0.80330  0.38460  0.47220  Biso   1.000  C
  H1       1.0000 0.32780  0.01320  0.45840  Biso   1.000  H
  H2       1.0000 0.67220  0.98680  0.95840  Biso   1.000  H
  H3       1.0000 0.17220  0.51320  0.95840  Biso   1.000  H
  H4       1.0000 0.82780  0.48680  0.45840  Biso   1.000  H
  H5       1.0000 0.28290  0.09630  0.51140  Biso   1.000  H
  H6       1.0000 0.71710  0.90370  0.01140  Biso   1.000  H
  H7       1.0000 0.21710  0.59630  0.01140  Biso   1.000  H
  H8       1.0000 0.78290  0.40370  0.51140  Biso   1.000  H
  C5       1.0000 0.36120  0.25440  0.47250  Biso   1.000  C
  C6       1.0000 0.63880  0.74560  0.97250  Biso   1.000  C
  C7       1.0000 0.13880  0.75440  0.97250  Biso   1.000  C
  C8       1.0000 0.86120  0.24560  0.47250  Biso   1.000  C
  H9       1.0000 0.36880  0.29590  0.51200  Biso   1.000  H
  H10      1.0000 0.63120  0.70410  0.01200  Biso   1.000  H
  H11      1.0000 0.13120  0.79590  0.01200  Biso   1.000  H
  H12      1.0000 0.86880  0.20410  0.51200  Biso   1.000  H
  H13      1.0000 0.41170  0.21640  0.45750  Biso   1.000  H
  H14      1.0000 0.58830  0.78360  0.95750  Biso   1.000  H
  H15      1.0000 0.08830  0.71640  0.95750  Biso   1.000  H
  H16      1.0000 0.91170  0.28360  0.45750  Biso   1.000  H
  C9       1.0000 0.32920  0.38500  0.43520  Biso   1.000  C
  C10      1.0000 0.67080  0.61500  0.93520  Biso   1.000  C
  C11      1.0000 0.17080  0.88500  0.93520  Biso   1.000  C
  C12      1.0000 0.82920  0.11500  0.43520  Biso   1.000  C
  H17      1.0000 0.36490  0.41050  0.40320  Biso   1.000  H
  H18      1.0000 0.63510  0.58950  0.90320  Biso   1.000  H
  H19      1.0000 0.13510  0.91050  0.90320  Biso   1.000  H
  H20      1.0000 0.86490  0.08950  0.40320  Biso   1.000  H
  H21      1.0000 0.31920  0.48630  0.45740  Biso   1.000  H
  H22      1.0000 0.68080  0.51370  0.95740  Biso   1.000  H
  H23      1.0000 0.18080  0.98630  0.95740  Biso   1.000  H
  H24      1.0000 0.81920  0.01370  0.45740  Biso   1.000  H
  C13      1.0000 0.25530  0.31180  0.41350  Biso   1.000  C
  C14      1.0000 0.74470  0.68820  0.91350  Biso   1.000  C
  C15      1.0000 0.24470  0.81180  0.91350  Biso   1.000  C
  C16      1.0000 0.75530  0.18820  0.41350  Biso   1.000  C
  C17      1.0000 0.19870  0.38180  0.37330  Biso   1.000  C
  C18      1.0000 0.80130  0.61820  0.87330  Biso   1.000  C
  C19      1.0000 0.30130  0.88180  0.87330  Biso   1.000  C
  C20      1.0000 0.69870  0.11820  0.37330  Biso   1.000  C
  C21      1.0000 0.19990  0.53470  0.34680  Biso   1.000  C
  C22      1.0000 0.80010  0.46530  0.84680  Biso   1.000  C
  C23      1.0000 0.30010  0.03470  0.84680  Biso   1.000  C
  C24      1.0000 0.69990  0.96530  0.34680  Biso   1.000  C
  H25      1.0000 0.24000  0.61140  0.35430  Biso   1.000  H
  H26      1.0000 0.76000  0.38860  0.85430  Biso   1.000  H
  H27      1.0000 0.26000  0.11140  0.85430  Biso   1.000  H
  H28      1.0000 0.74000  0.88860  0.35430  Biso   1.000  H
  C25      1.0000 0.14210  0.56950  0.31020  Biso   1.000  C
  C26      1.0000 0.85790  0.43050  0.81020  Biso   1.000  C
  C27      1.0000 0.35790  0.06950  0.81020  Biso   1.000  C
  C28      1.0000 0.64210  0.93050  0.31020  Biso   1.000  C
  H29      1.0000 0.14150  0.67410  0.29230  Biso   1.000  H
  H30      1.0000 0.85850  0.32590  0.79230  Biso   1.000  H
  H31      1.0000 0.35850  0.17410  0.79230  Biso   1.000  H
  H32      1.0000 0.64150  0.82590  0.29230  Biso   1.000  H
  C29      1.0000 0.08280  0.45850  0.29730  Biso   1.000  C
  C30      1.0000 0.91720  0.54150  0.79730  Biso   1.000  C
  C31      1.0000 0.41720  0.95850  0.79730  Biso   1.000  C
  C32      1.0000 0.58280  0.04150  0.29730  Biso   1.000  C
  H33      1.0000 0.04260  0.48480  0.27100  Biso   1.000  H
  H34      1.0000 0.95740  0.51520  0.77100  Biso   1.000  H
  H35      1.0000 0.45740  0.98480  0.77100  Biso   1.000  H
  H36      1.0000 0.54260  0.01520  0.27100  Biso   1.000  H
  C33      1.0000 0.08600  0.30640  0.32530  Biso   1.000  C
  C34      1.0000 0.91400  0.69360  0.82530  Biso   1.000  C
  C35      1.0000 0.41400  0.80640  0.82530  Biso   1.000  C
  C36      1.0000 0.58600  0.19360  0.32530  Biso   1.000  C
  C37      1.0000 0.03370  0.16620  0.31730  Biso   1.000  C
  C38      1.0000 0.96630  0.83380  0.81730  Biso   1.000  C
  C39      1.0000 0.46630  0.66620  0.81730  Biso   1.000  C
  C40      1.0000 0.53370  0.33380  0.31730  Biso   1.000  C
  C41      1.0000 0.96780  0.14360  0.27670  Biso   1.000  C
  C42      1.0000 0.03220  0.85640  0.77670  Biso   1.000  C
  C43      1.0000 0.53220  0.64360  0.77670  Biso   1.000  C
  C44      1.0000 0.46780  0.35640  0.27670  Biso   1.000  C
  H37      1.0000 0.98350  0.16620  0.23660  Biso   1.000  H
  H38      1.0000 0.01650  0.83380  0.73660  Biso   1.000  H
  H39      1.0000 0.51650  0.66620  0.73660  Biso   1.000  H
  H40      1.0000 0.48350  0.33380  0.23660  Biso   1.000  H
  H41      1.0000 0.92340  0.21470  0.28690  Biso   1.000  H
  H42      1.0000 0.07660  0.78530  0.78690  Biso   1.000  H
  H43      1.0000 0.57660  0.71470  0.78690  Biso   1.000  H
  H44      1.0000 0.42340  0.28530  0.28690  Biso   1.000  H
  C45      1.0000 0.94840  0.96130  0.28550  Biso   1.000  C
  C46      1.0000 0.05160  0.03870  0.78550  Biso   1.000  C
  C47      1.0000 0.55160  0.46130  0.78550  Biso   1.000  C
  C48      1.0000 0.44840  0.53870  0.28550  Biso   1.000  C
  H45      1.0000 0.89230  0.94650  0.29230  Biso   1.000  H
  H46      1.0000 0.10770  0.05350  0.79230  Biso   1.000  H
  H47      1.0000 0.60770  0.44650  0.79230  Biso   1.000  H
  H48      1.0000 0.39230  0.55350  0.29230  Biso   1.000  H
  H49      1.0000 0.96350  0.89650  0.25140  Biso   1.000  H
  H50      1.0000 0.03650  0.10350  0.75140  Biso   1.000  H
  H51      1.0000 0.53650  0.39650  0.75140  Biso   1.000  H
  H52      1.0000 0.46350  0.60350  0.25140  Biso   1.000  H
  C49      1.0000 0.99430  0.90880  0.33730  Biso   1.000  C
  C50      1.0000 0.00570  0.09120  0.83730  Biso   1.000  C
  C51      1.0000 0.50570  0.40880  0.83730  Biso   1.000  C
  C52      1.0000 0.49430  0.59120  0.33730  Biso   1.000  C
  H53      1.0000 0.95950  0.89000  0.37040  Biso   1.000  H
  H54      1.0000 0.04050  0.11000  0.87040  Biso   1.000  H
  H55      1.0000 0.54050  0.39000  0.87040  Biso   1.000  H
  H56      1.0000 0.45950  0.61000  0.37040  Biso   1.000  H
  H57      1.0000 0.02260  0.80590  0.32920  Biso   1.000  H
  H58      1.0000 0.97740  0.19410  0.82920  Biso   1.000  H
  H59      1.0000 0.47740  0.30590  0.82920  Biso   1.000  H
  H60      1.0000 0.52260  0.69410  0.32920  Biso   1.000  H
  C53      1.0000 0.99840  0.60460  0.48830  Biso   1.000  C
  C54      1.0000 0.00160  0.39540  0.98830  Biso   1.000  C
  C55      1.0000 0.50160  0.10460  0.98830  Biso   1.000  C
  C56      1.0000 0.49840  0.89540  0.48830  Biso   1.000  C
  H61      1.0000 0.98200  0.49010  0.49540  Biso   1.000  H
  H62      1.0000 0.01800  0.50990  0.99540  Biso   1.000  H
  H63      1.0000 0.51800  0.99010  0.99540  Biso   1.000  H
  H64      1.0000 0.48200  0.00990  0.49540  Biso   1.000  H
  H65      1.0000 0.02220  0.61140  0.44970  Biso   1.000  H
  H66      1.0000 0.97780  0.38860  0.94970  Biso   1.000  H
  H67      1.0000 0.47780  0.11140  0.94970  Biso   1.000  H
  H68      1.0000 0.52220  0.88860  0.44970  Biso   1.000  H
  C57      1.0000 0.93080  0.71940  0.49300  Biso   1.000  C
  C58      1.0000 0.06920  0.28060  0.99300  Biso   1.000  C
  C59      1.0000 0.56920  0.21940  0.99300  Biso   1.000  C
  C60      1.0000 0.43080  0.78060  0.49300  Biso   1.000  C
  H69      1.0000 0.88880  0.66920  0.51600  Biso   1.000  H
  H70      1.0000 0.11120  0.33080  0.01600  Biso   1.000  H
  H71      1.0000 0.61120  0.16920  0.01600  Biso   1.000  H
  H72      1.0000 0.38880  0.83080  0.51600  Biso   1.000  H
  H73      1.0000 0.91040  0.74690  0.45450  Biso   1.000  H
  H74      1.0000 0.08960  0.25310  0.95450  Biso   1.000  H
  H75      1.0000 0.58960  0.24690  0.95450  Biso   1.000  H
  H76      1.0000 0.41040  0.75310  0.45450  Biso   1.000  H
  C61      1.0000 0.96170  0.87090  0.52250  Biso   1.000  C
  C62      1.0000 0.03830  0.12910  0.02250  Biso   1.000  C
  C63      1.0000 0.53830  0.37090  0.02250  Biso   1.000  C
  C64      1.0000 0.46170  0.62910  0.52250  Biso   1.000  C
  H77      1.0000 0.97390  0.95850  0.49450  Biso   1.000  H
  H78      1.0000 0.02610  0.04150  0.99450  Biso   1.000  H
  H79      1.0000 0.52610  0.45850  0.99450  Biso   1.000  H
  H80      1.0000 0.47390  0.54150  0.49450  Biso   1.000  H
  H81      1.0000 0.92470  0.91340  0.55130  Biso   1.000  H
  H82      1.0000 0.07530  0.08660  0.05130  Biso   1.000  H
  H83      1.0000 0.57530  0.41340  0.05130  Biso   1.000  H
  H84      1.0000 0.42470  0.58660  0.55130  Biso   1.000  H
  C65      1.0000 0.03400  0.80450  0.55050  Biso   1.000  C
  C66      1.0000 0.96600  0.19550  0.05050  Biso   1.000  C
  C67      1.0000 0.46600  0.30450  0.05050  Biso   1.000  C
  C68      1.0000 0.53400  0.69550  0.55050  Biso   1.000  C
  C69      1.0000 0.08360  0.88190  0.59420  Biso   1.000  C
  C70      1.0000 0.91640  0.11810  0.09420  Biso   1.000  C
  C71      1.0000 0.41640  0.38190  0.09420  Biso   1.000  C
  C72      1.0000 0.58360  0.61810  0.59420  Biso   1.000  C
  C73      1.0000 0.07830  0.03940  0.61590  Biso   1.000  C
  C74      1.0000 0.92170  0.96060  0.11590  Biso   1.000  C
  C75      1.0000 0.42170  0.53940  0.11590  Biso   1.000  C
  C76      1.0000 0.57830  0.46060  0.61590  Biso   1.000  C
  H85      1.0000 0.03830  0.11180  0.60410  Biso   1.000  H
  H86      1.0000 0.96170  0.88820  0.10410  Biso   1.000  H
  H87      1.0000 0.46170  0.61180  0.10410  Biso   1.000  H
  H88      1.0000 0.53830  0.38820  0.60410  Biso   1.000  H
  C77      1.0000 0.13450  0.08780  0.65630  Biso   1.000  C
  C78      1.0000 0.86550  0.91220  0.15630  Biso   1.000  C
  C79      1.0000 0.36550  0.58780  0.15630  Biso   1.000  C
  C80      1.0000 0.63450  0.41220  0.65630  Biso   1.000  C
  H89      1.0000 0.13190  0.19380  0.67300  Biso   1.000  H
  H90      1.0000 0.86810  0.80620  0.17300  Biso   1.000  H
  H91      1.0000 0.36810  0.69380  0.17300  Biso   1.000  H
  H92      1.0000 0.63190  0.30620  0.67300  Biso   1.000  H
  C81      1.0000 0.19430  0.98070  0.67170  Biso   1.000  C
  C82      1.0000 0.80570  0.01930  0.17170  Biso   1.000  C
  C83      1.0000 0.30570  0.48070  0.17170  Biso   1.000  C
  C84      1.0000 0.69430  0.51930  0.67170  Biso   1.000  C
  H93      1.0000 0.23340  0.01350  0.69800  Biso   1.000  H
  H94      1.0000 0.76660  0.98650  0.19800  Biso   1.000  H
  H95      1.0000 0.26660  0.51350  0.19800  Biso   1.000  H
  H96      1.0000 0.73340  0.48650  0.69800  Biso   1.000  H
  C85      1.0000 0.19470  0.82490  0.64770  Biso   1.000  C
  C86      1.0000 0.80530  0.17510  0.14770  Biso   1.000  C
  C87      1.0000 0.30530  0.32490  0.14770  Biso   1.000  C
  C88      1.0000 0.69470  0.67510  0.64770  Biso   1.000  C
  C89      1.0000 0.24980  0.68820  0.65730  Biso   1.000  C
  C90      1.0000 0.75020  0.31180  0.15730  Biso   1.000  C
  C91      1.0000 0.25020  0.18820  0.15730  Biso   1.000  C
  C92      1.0000 0.74980  0.81180  0.65730  Biso   1.000  C
  C93      1.0000 0.31470  0.68440  0.70160  Biso   1.000  C
  C94      1.0000 0.68530  0.31560  0.20160  Biso   1.000  C
  C95      1.0000 0.18530  0.18440  0.20160  Biso   1.000  C
  C96      1.0000 0.81470  0.81560  0.70160  Biso   1.000  C
  H97      1.0000 0.29430  0.67810  0.74120  Biso   1.000  H
  H98      1.0000 0.70570  0.32190  0.24120  Biso   1.000  H
  H99      1.0000 0.20570  0.17810  0.24120  Biso   1.000  H
  H100     1.0000 0.79430  0.82190  0.74120  Biso   1.000  H
  H101     1.0000 0.34920  0.78080  0.69800  Biso   1.000  H
  H102     1.0000 0.65080  0.21920  0.19800  Biso   1.000  H
  H103     1.0000 0.15080  0.28080  0.19800  Biso   1.000  H
  H104     1.0000 0.84920  0.71920  0.69800  Biso   1.000  H
  C97      1.0000 0.35610  0.52460  0.68390  Biso   1.000  C
  C98      1.0000 0.64390  0.47540  0.18390  Biso   1.000  C
  C99      1.0000 0.14390  0.02460  0.18390  Biso   1.000  C
  C100     1.0000 0.85610  0.97540  0.68390  Biso   1.000  C
  H105     1.0000 0.40500  0.54940  0.66350  Biso   1.000  H
  H106     1.0000 0.59500  0.45060  0.16350  Biso   1.000  H
  H107     1.0000 0.09500  0.04940  0.16350  Biso   1.000  H
  H108     1.0000 0.90500  0.95060  0.66350  Biso   1.000  H
  H109     1.0000 0.36820  0.45740  0.71810  Biso   1.000  H
  H110     1.0000 0.63180  0.54260  0.21810  Biso   1.000  H
  H111     1.0000 0.13180  0.95740  0.21810  Biso   1.000  H
  H112     1.0000 0.86820  0.04260  0.71810  Biso   1.000  H
  C101     1.0000 0.29990  0.43370  0.64430  Biso   1.000  C
  C102     1.0000 0.70010  0.56630  0.14430  Biso   1.000  C
  C103     1.0000 0.20010  0.93370  0.14430  Biso   1.000  C
  C104     1.0000 0.79990  0.06630  0.64430  Biso   1.000  C
  H113     1.0000 0.32720  0.39100  0.61010  Biso   1.000  H
  H114     1.0000 0.67280  0.60900  0.11010  Biso   1.000  H
  H115     1.0000 0.17280  0.89100  0.11010  Biso   1.000  H
  H116     1.0000 0.82720  0.10900  0.61010  Biso   1.000  H
  H117     1.0000 0.27530  0.34090  0.66470  Biso   1.000  H
  H118     1.0000 0.72470  0.65910  0.16470  Biso   1.000  H
  H119     1.0000 0.22470  0.84090  0.16470  Biso   1.000  H
  H120     1.0000 0.77530  0.15910  0.66470  Biso   1.000  H
  N1       1.0000 0.24040  0.16540  0.43330  Biso   1.000  N
  N2       1.0000 0.75960  0.83460  0.93330  Biso   1.000  N
  N3       1.0000 0.25960  0.66540  0.93330  Biso   1.000  N
  N4       1.0000 0.74040  0.33460  0.43330  Biso   1.000  N
  N5       1.0000 0.14270  0.27240  0.36160  Biso   1.000  N
  N6       1.0000 0.85730  0.72760  0.86160  Biso   1.000  N
  N7       1.0000 0.35730  0.77240  0.86160  Biso   1.000  N
  N8       1.0000 0.64270  0.22760  0.36160  Biso   1.000  N
  N9       1.0000 0.04870  0.04080  0.35010  Biso   1.000  N
  N10      1.0000 0.95130  0.95920  0.85010  Biso   1.000  N
  N11      1.0000 0.45130  0.54080  0.85010  Biso   1.000  N
  N12      1.0000 0.54870  0.45920  0.35010  Biso   1.000  N
  N13      1.0000 0.05320  0.65980  0.53280  Biso   1.000  N
  N14      1.0000 0.94680  0.34020  0.03280  Biso   1.000  N
  N15      1.0000 0.44680  0.15980  0.03280  Biso   1.000  N
  N16      1.0000 0.55320  0.84020  0.53280  Biso   1.000  N
  N17      1.0000 0.14110  0.77990  0.60960  Biso   1.000  N
  N18      1.0000 0.85890  0.22010  0.10960  Biso   1.000  N
  N19      1.0000 0.35890  0.27990  0.10960  Biso   1.000  N
  N20      1.0000 0.64110  0.72010  0.60960  Biso   1.000  N
  N21      1.0000 0.24020  0.55910  0.62720  Biso   1.000  N
  N22      1.0000 0.75980  0.44090  0.12720  Biso   1.000  N
  N23      1.0000 0.25980  0.05910  0.12720  Biso   1.000  N
  N24      1.0000 0.74020  0.94090  0.62720  Biso   1.000  N
  N25      1.0000 0.14040  0.84600  0.43210  Biso   1.000  N
  N26      1.0000 0.85960  0.15400  0.93210  Biso   1.000  N
  N27      1.0000 0.35960  0.34600  0.93210  Biso   1.000  N
  N28      1.0000 0.64040  0.65400  0.43210  Biso   1.000  N
  N29      1.0000 0.18590  0.77760  0.46290  Biso   1.000  N
  N30      1.0000 0.81410  0.22240  0.96290  Biso   1.000  N
  N31      1.0000 0.31410  0.27760  0.96290  Biso   1.000  N
  N32      1.0000 0.68590  0.72240  0.46290  Biso   1.000  N
  N33      1.0000 0.22500  0.69970  0.49320  Biso   1.000  N
  N34      1.0000 0.77500  0.30030  0.99320  Biso   1.000  N
  N35      1.0000 0.27500  0.19970  0.99320  Biso   1.000  N
  N36      1.0000 0.72500  0.80030  0.49320  Biso   1.000  N
  N37      1.0000 0.15800  0.35060  0.54340  Biso   1.000  N
  N38      1.0000 0.84200  0.64940  0.04340  Biso   1.000  N
  N39      1.0000 0.34200  0.85060  0.04340  Biso   1.000  N
  N40      1.0000 0.65800  0.14940  0.54340  Biso   1.000  N
  N41      1.0000 0.11480  0.27750  0.51250  Biso   1.000  N
  N42      1.0000 0.88520  0.72250  0.01250  Biso   1.000  N
  N43      1.0000 0.38520  0.77750  0.01250  Biso   1.000  N
  N44      1.0000 0.61480  0.22250  0.51250  Biso   1.000  N
  N45      1.0000 0.07580  0.19790  0.48230  Biso   1.000  N
  N46      1.0000 0.92420  0.80210  0.98230  Biso   1.000  N
  N47      1.0000 0.42420  0.69790  0.98230  Biso   1.000  N
  N48      1.0000 0.57580  0.30210  0.48230  Biso   1.000  N
  O1       1.0000 0.22380  0.94310  0.31750  Biso   1.000  O
  O2       1.0000 0.77620  0.05690  0.81750  Biso   1.000  O
  O3       1.0000 0.27620  0.44310  0.81750  Biso   1.000  O
  O4       1.0000 0.72380  0.55690  0.31750  Biso   1.000  O
  O5       1.0000 0.33710  0.84820  0.35710  Biso   1.000  O
  O6       1.0000 0.66290  0.15180  0.85710  Biso   1.000  O
  O7       1.0000 0.16290  0.34820  0.85710  Biso   1.000  O
  O8       1.0000 0.83710  0.65180  0.35710  Biso   1.000  O
  O9       1.0000 0.32840  0.10460  0.31070  Biso   1.000  O
  O10      1.0000 0.67160  0.89540  0.81070  Biso   1.000  O
  O11      1.0000 0.17160  0.60460  0.81070  Biso   1.000  O
  O12      1.0000 0.82840  0.39540  0.31070  Biso   1.000  O
  O13      1.0000 0.32340  0.86550  0.25810  Biso   1.000  O
  O14      1.0000 0.67660  0.13450  0.75810  Biso   1.000  O
  O15      1.0000 0.17660  0.36550  0.75810  Biso   1.000  O
  O16      1.0000 0.82340  0.63450  0.25810  Biso   1.000  O
  O17      1.0000 0.93210  0.33900  0.68630  Biso   1.000  O
  O18      1.0000 0.06790  0.66100  0.18630  Biso   1.000  O
  O19      1.0000 0.56790  0.83900  0.18630  Biso   1.000  O
  O20      1.0000 0.43210  0.16100  0.68630  Biso   1.000  O
  O21      1.0000 0.87980  0.50100  0.62910  Biso   1.000  O
  O22      1.0000 0.12020  0.49900  0.12910  Biso   1.000  O
  O23      1.0000 0.62020  0.00100  0.12910  Biso   1.000  O
  O24      1.0000 0.37980  0.99900  0.62910  Biso   1.000  O
  O25      1.0000 0.97840  0.57890  0.65610  Biso   1.000  O
  O26      1.0000 0.02160  0.42110  0.15610  Biso   1.000  O
  O27      1.0000 0.52160  0.07890  0.15610  Biso   1.000  O
  O28      1.0000 0.47840  0.92110  0.65610  Biso   1.000  O
  O29      1.0000 0.96400  0.35140  0.59220  Biso   1.000  O
  O30      1.0000 0.03600  0.64860  0.09220  Biso   1.000  O
  O31      1.0000 0.53600  0.85140  0.09220  Biso   1.000  O
  O32      1.0000 0.46400  0.14860  0.59220  Biso   1.000  O
  Cl1      1.0000 0.30745  0.93850  0.30991  Biso   1.000  Cl
  Cl2      1.0000 0.69255  0.06150  0.80991  Biso   1.000  Cl
  Cl3      1.0000 0.19255  0.43850  0.80991  Biso   1.000  Cl
  Cl4      1.0000 0.80745  0.56150  0.30991  Biso   1.000  Cl
  Cl5      1.0000 0.94693  0.43390  0.64175  Biso   1.000  Cl
  Cl6      1.0000 0.05307  0.56610  0.14175  Biso   1.000  Cl
  Cl7      1.0000 0.55307  0.93390  0.14175  Biso   1.000  Cl
  Cl8      1.0000 0.44693  0.06610  0.64175  Biso   1.000  Cl
  Cu1      1.0000 0.14356  0.06360  0.40137  Biso   1.000  Cu
  Cu2      1.0000 0.85644  0.93640  0.90137  Biso   1.000  Cu
  Cu3      1.0000 0.35644  0.56360  0.90137  Biso   1.000  Cu
  Cu4      1.0000 0.64356  0.43640  0.40137  Biso   1.000  Cu
  Cu5      1.0000 0.15020  0.56880  0.57150  Biso   1.000  Cu
  Cu6      1.0000 0.84980  0.43120  0.07150  Biso   1.000  Cu
  Cu7      1.0000 0.34980  0.06880  0.07150  Biso   1.000  Cu
  Cu8      1.0000 0.65020  0.93120  0.57150  Biso   1.000  Cu
