data_image0
_cell_length_a       9.243
_cell_length_b       10.578
_cell_length_c       12.245
_cell_angle_alpha    98.73
_cell_angle_beta     91.085
_cell_angle_gamma    94.933

_symmetry_space_group_name_H-M    "P 1"
_symmetry_int_tables_number       1

loop_
  _symmetry_equiv_pos_as_xyz
  'x, y, z'

loop_
  _atom_site_label
  _atom_site_occupancy
  _atom_site_fract_x
  _atom_site_fract_y
  _atom_site_fract_z
  _atom_site_thermal_displace_type
  _atom_site_B_iso_or_equiv
  _atom_site_type_symbol
  Cu1      1.0000 0.00000  0.50000  0.00000  Biso   1.000  Cu
  S1       1.0000 0.14845  0.19291  0.26292  Biso   1.000  S
  S2       1.0000 0.85155  0.80709  0.73708  Biso   1.000  S
  S3       1.0000 0.29620  0.44319  0.34611  Biso   1.000  S
  S4       1.0000 0.70380  0.55681  0.65389  Biso   1.000  S
  S5       1.0000 0.14307  0.10548  0.48261  Biso   1.000  S
  S6       1.0000 0.85693  0.89452  0.51739  Biso   1.000  S
  S7       1.0000 0.33117  0.38676  0.57670  Biso   1.000  S
  S8       1.0000 0.66883  0.61324  0.42330  Biso   1.000  S
  C1       1.0000 0.03480  0.25380  0.86440  Biso   1.000  C
  C2       1.0000 0.96520  0.74620  0.13560  Biso   1.000  C
  H1       1.0000 0.97810  0.28760  0.81420  Biso   1.000  H
  H2       1.0000 0.02190  0.71240  0.18580  Biso   1.000  H
  C3       1.0000 0.07360  0.13010  0.83600  Biso   1.000  C
  C4       1.0000 0.92640  0.86990  0.16400  Biso   1.000  C
  H3       1.0000 0.04330  0.08140  0.76840  Biso   1.000  H
  H4       1.0000 0.95670  0.91860  0.23160  Biso   1.000  H
  C5       1.0000 0.15820  0.08050  0.91030  Biso   1.000  C
  C6       1.0000 0.84180  0.91950  0.08970  Biso   1.000  C
  H5       1.0000 0.18280  0.99640  0.89510  Biso   1.000  H
  H6       1.0000 0.81720  0.00360  0.10490  Biso   1.000  H
  C7       1.0000 0.20580  0.15820  0.00750  Biso   1.000  C
  C8       1.0000 0.79420  0.84180  0.99250  Biso   1.000  C
  H7       1.0000 0.26590  0.12760  0.05730  Biso   1.000  H
  H8       1.0000 0.73410  0.87240  0.94270  Biso   1.000  H
  C9       1.0000 0.16390  0.28160  0.03070  Biso   1.000  C
  C10      1.0000 0.83610  0.71840  0.96930  Biso   1.000  C
  C11      1.0000 0.22370  0.37230  0.12790  Biso   1.000  C
  C12      1.0000 0.77630  0.62770  0.87210  Biso   1.000  C
  C13      1.0000 0.28720  0.49870  0.10840  Biso   1.000  C
  C14      1.0000 0.71280  0.50130  0.89160  Biso   1.000  C
  C15      1.0000 0.42910  0.54290  0.14340  Biso   1.000  C
  C16      1.0000 0.57090  0.45710  0.85660  Biso   1.000  C
  H9       1.0000 0.48550  0.49330  0.18060  Biso   1.000  H
  H10      1.0000 0.51450  0.50670  0.81940  Biso   1.000  H
  C17      1.0000 0.48460  0.66180  0.12190  Biso   1.000  C
  C18      1.0000 0.51540  0.33820  0.87810  Biso   1.000  C
  H11      1.0000 0.57770  0.69450  0.14770  Biso   1.000  H
  H12      1.0000 0.42230  0.30550  0.85230  Biso   1.000  H
  C19      1.0000 0.40380  0.73100  0.06310  Biso   1.000  C
  C20      1.0000 0.59620  0.26900  0.93690  Biso   1.000  C
  H13      1.0000 0.44060  0.81070  0.04740  Biso   1.000  H
  H14      1.0000 0.55940  0.18930  0.95260  Biso   1.000  H
  C21      1.0000 0.26620  0.68000  0.02740  Biso   1.000  C
  C22      1.0000 0.73380  0.32000  0.97260  Biso   1.000  C
  H15      1.0000 0.21180  0.72530  0.98460  Biso   1.000  H
  H16      1.0000 0.78820  0.27470  0.01540  Biso   1.000  H
  C23      1.0000 0.22580  0.33840  0.23000  Biso   1.000  C
  C24      1.0000 0.77420  0.66160  0.77000  Biso   1.000  C
  C25      1.0000 0.19000  0.22610  0.40470  Biso   1.000  C
  C26      1.0000 0.81000  0.77390  0.59530  Biso   1.000  C
  C27      1.0000 0.25940  0.34140  0.44320  Biso   1.000  C
  C28      1.0000 0.74060  0.65860  0.55680  Biso   1.000  C
  C29      1.0000 0.30830  0.55620  0.60050  Biso   1.000  C
  C30      1.0000 0.69170  0.44380  0.39950  Biso   1.000  C
  H17      1.0000 0.37160  0.59650  0.66240  Biso   1.000  H
  H18      1.0000 0.62840  0.40350  0.33760  Biso   1.000  H
  H19      1.0000 0.33990  0.59260  0.53590  Biso   1.000  H
  H20      1.0000 0.66010  0.40740  0.46410  Biso   1.000  H
  C31      1.0000 0.15550  0.58970  0.62420  Biso   1.000  C
  C32      1.0000 0.84450  0.41030  0.37580  Biso   1.000  C
  H21      1.0000 0.15050  0.68080  0.62350  Biso   1.000  H
  H22      1.0000 0.84950  0.31920  0.37650  Biso   1.000  H
  H23      1.0000 0.08980  0.54320  0.56620  Biso   1.000  H
  H24      1.0000 0.91020  0.45680  0.43380  Biso   1.000  H
  C33      1.0000 0.10870  0.55860  0.73010  Biso   1.000  C
  C34      1.0000 0.89130  0.44140  0.26990  Biso   1.000  C
  C35      1.0000 0.30660  0.02130  0.47680  Biso   1.000  C
  C36      1.0000 0.69340  0.97870  0.52320  Biso   1.000  C
  H25      1.0000 0.38990  0.08360  0.47600  Biso   1.000  H
  H26      1.0000 0.61010  0.91640  0.52400  Biso   1.000  H
  H27      1.0000 0.31520  0.98360  0.54380  Biso   1.000  H
  H28      1.0000 0.68480  0.01640  0.45620  Biso   1.000  H
  C37      1.0000 0.31330  0.91660  0.37860  Biso   1.000  C
  C38      1.0000 0.68670  0.08340  0.62140  Biso   1.000  C
  H29      1.0000 0.29500  0.95100  0.31100  Biso   1.000  H
  H30      1.0000 0.70500  0.04900  0.68900  Biso   1.000  H
  H31      1.0000 0.40980  0.88700  0.37570  Biso   1.000  H
  H32      1.0000 0.59020  0.11300  0.62430  Biso   1.000  H
  C39      1.0000 0.20840  0.81070  0.38550  Biso   1.000  C
  C40      1.0000 0.79160  0.18930  0.61450  Biso   1.000  C
  N1       1.0000 0.07500  0.32700  0.96040  Biso   1.000  N
  N2       1.0000 0.92500  0.67300  0.03960  Biso   1.000  N
  N3       1.0000 0.20680  0.56750  0.05160  Biso   1.000  N
  N4       1.0000 0.79320  0.43250  0.94840  Biso   1.000  N
  N5       1.0000 0.12960  0.72640  0.39170  Biso   1.000  N
  N6       1.0000 0.87040  0.27360  0.60830  Biso   1.000  N
  N7       1.0000 0.07370  0.53800  0.81400  Biso   1.000  N
  N8       1.0000 0.92630  0.46200  0.18600  Biso   1.000  N
  B1       1.0000 0.58420  0.12680  0.23740  Biso   1.000  B
  B2       1.0000 0.41580  0.87320  0.76260  Biso   1.000  B
  F1       1.0000 0.50370  0.04440  0.15640  Biso   1.000  F
  F2       1.0000 0.49630  0.95560  0.84360  Biso   1.000  F
  F3       1.0000 0.53410  0.16730  0.34080  Biso   1.000  F
  F4       1.0000 0.46590  0.83270  0.65920  Biso   1.000  F
  F5       1.0000 0.53410  0.23140  0.19690  Biso   1.000  F
  F6       1.0000 0.46590  0.76860  0.80310  Biso   1.000  F
  F7       1.0000 0.71070  0.17620  0.19550  Biso   1.000  F
  F8       1.0000 0.28930  0.82380  0.80450  Biso   1.000  F
  F9       1.0000 0.72640  0.12200  0.27310  Biso   1.000  F
  F10      1.0000 0.27360  0.87800  0.72690  Biso   1.000  F
  F11      1.0000 0.57700  0.99530  0.23620  Biso   1.000  F
  F12      1.0000 0.42300  0.00470  0.76380  Biso   1.000  F
