data_image0
_cell_length_a       13.3169
_cell_length_b       13.3169
_cell_length_c       14.297
_cell_angle_alpha    90
_cell_angle_beta     90
_cell_angle_gamma    120

_symmetry_space_group_name_H-M    "P 1"
_symmetry_int_tables_number       1

loop_
  _symmetry_equiv_pos_as_xyz
  'x, y, z'

loop_
  _atom_site_label
  _atom_site_occupancy
  _atom_site_fract_x
  _atom_site_fract_y
  _atom_site_fract_z
  _atom_site_thermal_displace_type
  _atom_site_B_iso_or_equiv
  _atom_site_type_symbol
  Er1      1.0000 0.66670  0.33330  0.15432  Biso   1.000  Er
  Er2      1.0000 0.66670  0.33330  0.65432  Biso   1.000  Er
  Er3      1.0000 0.33330  0.66670  0.81946  Biso   1.000  Er
  Er4      1.0000 0.33330  0.66670  0.31946  Biso   1.000  Er
  Cu1      1.0000 0.99950  0.49970  0.98670  Biso   1.000  Cu
  Cu2      1.0000 0.50030  0.49980  0.98670  Biso   1.000  Cu
  Cu3      1.0000 0.50020  0.00050  0.98670  Biso   1.000  Cu
  Cu4      1.0000 0.50030  0.00050  0.48670  Biso   1.000  Cu
  Cu5      1.0000 0.50020  0.49970  0.48670  Biso   1.000  Cu
  Cu6      1.0000 0.99950  0.49980  0.48670  Biso   1.000  Cu
  O1       1.0000 0.80940  0.36520  0.04500  Biso   1.000  O
  O2       1.0000 0.63480  0.44420  0.04500  Biso   1.000  O
  O3       1.0000 0.55580  0.19060  0.04500  Biso   1.000  O
  O4       1.0000 0.63480  0.19060  0.54500  Biso   1.000  O
  O5       1.0000 0.55580  0.36520  0.54500  Biso   1.000  O
  O6       1.0000 0.80940  0.44420  0.54500  Biso   1.000  O
  O7       1.0000 0.92390  0.52220  0.87640  Biso   1.000  O
  O8       1.0000 0.47780  0.40170  0.87640  Biso   1.000  O
  O9       1.0000 0.59830  0.07610  0.87640  Biso   1.000  O
  O10      1.0000 0.47780  0.07610  0.37640  Biso   1.000  O
  O11      1.0000 0.59830  0.52220  0.37640  Biso   1.000  O
  O12      1.0000 0.92390  0.40170  0.37640  Biso   1.000  O
  O13      1.0000 0.18870  0.64460  0.92540  Biso   1.000  O
  O14      1.0000 0.35540  0.54410  0.92540  Biso   1.000  O
  O15      1.0000 0.45590  0.81130  0.92540  Biso   1.000  O
  O16      1.0000 0.35540  0.81130  0.42540  Biso   1.000  O
  O17      1.0000 0.45590  0.64460  0.42540  Biso   1.000  O
  O18      1.0000 0.18870  0.54410  0.42540  Biso   1.000  O
  N1       1.0000 0.04720  0.65160  0.04580  Biso   1.000  N
  N2       1.0000 0.34840  0.39560  0.04580  Biso   1.000  N
  N3       1.0000 0.60440  0.95280  0.04580  Biso   1.000  N
  N4       1.0000 0.34840  0.95280  0.54580  Biso   1.000  N
  N5       1.0000 0.60440  0.65160  0.54580  Biso   1.000  N
  N6       1.0000 0.04720  0.39560  0.54580  Biso   1.000  N
  H1       1.0000 0.98120  0.65030  0.06430  Biso   1.000  H
  H2       1.0000 0.34970  0.33090  0.06430  Biso   1.000  H
  H3       1.0000 0.66910  0.01880  0.06430  Biso   1.000  H
  H4       1.0000 0.34970  0.01880  0.56430  Biso   1.000  H
  H5       1.0000 0.66910  0.65030  0.56430  Biso   1.000  H
  H6       1.0000 0.98120  0.33090  0.56430  Biso   1.000  H
  O19      1.0000 0.07180  0.47420  0.09390  Biso   1.000  O
  O20      1.0000 0.52580  0.59760  0.09390  Biso   1.000  O
  O21      1.0000 0.40240  0.92820  0.09390  Biso   1.000  O
  O22      1.0000 0.52580  0.92820  0.59390  Biso   1.000  O
  O23      1.0000 0.40240  0.47420  0.59390  Biso   1.000  O
  O24      1.0000 0.07180  0.59760  0.59390  Biso   1.000  O
  C1       1.0000 0.87030  0.43430  0.82150  Biso   1.000  C
  C2       1.0000 0.56570  0.43600  0.82150  Biso   1.000  C
  C3       1.0000 0.56400  0.12970  0.82150  Biso   1.000  C
  C4       1.0000 0.56570  0.12970  0.32150  Biso   1.000  C
  C5       1.0000 0.56400  0.43430  0.32150  Biso   1.000  C
  C6       1.0000 0.87030  0.43600  0.32150  Biso   1.000  C
  N7       1.0000 0.96070  0.34680  0.92880  Biso   1.000  N
  N8       1.0000 0.65320  0.61390  0.92880  Biso   1.000  N
  N9       1.0000 0.38610  0.03930  0.92880  Biso   1.000  N
  N10      1.0000 0.65320  0.03930  0.42880  Biso   1.000  N
  N11      1.0000 0.38610  0.34680  0.42880  Biso   1.000  N
  N12      1.0000 0.96070  0.61390  0.42880  Biso   1.000  N
  H7       1.0000 0.02640  0.35030  0.90660  Biso   1.000  H
  H8       1.0000 0.64970  0.67610  0.90660  Biso   1.000  H
  H9       1.0000 0.32390  0.97360  0.90660  Biso   1.000  H
  H10      1.0000 0.64970  0.97360  0.40660  Biso   1.000  H
  H11      1.0000 0.32390  0.35030  0.40660  Biso   1.000  H
  H12      1.0000 0.02640  0.67610  0.40660  Biso   1.000  H
  C7       1.0000 0.12570  0.56190  0.14610  Biso   1.000  C
  C8       1.0000 0.43810  0.56380  0.14610  Biso   1.000  C
  C9       1.0000 0.43620  0.87430  0.14610  Biso   1.000  C
  C10      1.0000 0.43810  0.87430  0.64610  Biso   1.000  C
  C11      1.0000 0.43620  0.56190  0.64610  Biso   1.000  C
  C12      1.0000 0.12570  0.56380  0.64610  Biso   1.000  C
  C13      1.0000 0.11370  0.67120  0.12430  Biso   1.000  C
  C14      1.0000 0.32880  0.44250  0.12430  Biso   1.000  C
  C15      1.0000 0.55750  0.88630  0.12430  Biso   1.000  C
  C16      1.0000 0.32880  0.88630  0.62430  Biso   1.000  C
  C17      1.0000 0.55750  0.67120  0.62430  Biso   1.000  C
  C18      1.0000 0.11370  0.44250  0.62430  Biso   1.000  C
  H13      1.0000 0.07800  0.68720  0.17710  Biso   1.000  H
  H14      1.0000 0.31280  0.39080  0.17710  Biso   1.000  H
  H15      1.0000 0.60920  0.92200  0.17710  Biso   1.000  H
  H16      1.0000 0.31280  0.92200  0.67710  Biso   1.000  H
  H17      1.0000 0.60920  0.68720  0.67710  Biso   1.000  H
  H18      1.0000 0.07800  0.39080  0.67710  Biso   1.000  H
  H19      1.0000 0.18990  0.73830  0.11460  Biso   1.000  H
  H20      1.0000 0.26170  0.45160  0.11460  Biso   1.000  H
  H21      1.0000 0.54840  0.81010  0.11460  Biso   1.000  H
  H22      1.0000 0.26170  0.81010  0.61460  Biso   1.000  H
  H23      1.0000 0.54840  0.73830  0.61460  Biso   1.000  H
  H24      1.0000 0.18990  0.45160  0.61460  Biso   1.000  H
  C19      1.0000 0.87650  0.33240  0.84360  Biso   1.000  C
  C20      1.0000 0.66760  0.54410  0.84360  Biso   1.000  C
  C21      1.0000 0.45590  0.12350  0.84360  Biso   1.000  C
  C22      1.0000 0.66760  0.12350  0.34360  Biso   1.000  C
  C23      1.0000 0.45590  0.33240  0.34360  Biso   1.000  C
  C24      1.0000 0.87650  0.54410  0.34360  Biso   1.000  C
  H25      1.0000 0.90250  0.30940  0.78850  Biso   1.000  H
  H26      1.0000 0.69060  0.59310  0.78850  Biso   1.000  H
  H27      1.0000 0.40690  0.09750  0.78850  Biso   1.000  H
  H28      1.0000 0.69060  0.09750  0.28850  Biso   1.000  H
  H29      1.0000 0.40690  0.30940  0.28850  Biso   1.000  H
  H30      1.0000 0.90250  0.59310  0.28850  Biso   1.000  H
  H31      1.0000 0.79910  0.27010  0.85840  Biso   1.000  H
  H32      1.0000 0.72990  0.52900  0.85840  Biso   1.000  H
  H33      1.0000 0.47100  0.20090  0.85840  Biso   1.000  H
  H34      1.0000 0.72990  0.20090  0.35840  Biso   1.000  H
  H35      1.0000 0.47100  0.27010  0.35840  Biso   1.000  H
  H36      1.0000 0.79910  0.52900  0.35840  Biso   1.000  H
  C25      1.0000 0.10230  0.74330  0.97600  Biso   1.000  C
  C26      1.0000 0.25670  0.35900  0.97600  Biso   1.000  C
  C27      1.0000 0.64100  0.89770  0.97600  Biso   1.000  C
  C28      1.0000 0.25670  0.89770  0.47600  Biso   1.000  C
  C29      1.0000 0.64100  0.74330  0.47600  Biso   1.000  C
  C30      1.0000 0.10230  0.35900  0.47600  Biso   1.000  C
  H37      1.0000 0.04190  0.74320  0.93810  Biso   1.000  H
  H38      1.0000 0.25680  0.29870  0.93810  Biso   1.000  H
  H39      1.0000 0.70130  0.95810  0.93810  Biso   1.000  H
  H40      1.0000 0.25680  0.95810  0.43810  Biso   1.000  H
  H41      1.0000 0.70130  0.74320  0.43810  Biso   1.000  H
  H42      1.0000 0.04190  0.29870  0.43810  Biso   1.000  H
  H43      1.0000 0.14170  0.81710  0.00850  Biso   1.000  H
  H44      1.0000 0.18290  0.32460  0.00850  Biso   1.000  H
  H45      1.0000 0.67540  0.85830  0.00850  Biso   1.000  H
  H46      1.0000 0.18290  0.85830  0.50850  Biso   1.000  H
  H47      1.0000 0.67540  0.81710  0.50850  Biso   1.000  H
  H48      1.0000 0.14170  0.32460  0.50850  Biso   1.000  H
  C31      1.0000 0.90440  0.25140  0.99870  Biso   1.000  C
  C32      1.0000 0.74860  0.65300  0.99870  Biso   1.000  C
  C33      1.0000 0.34700  0.09560  0.99870  Biso   1.000  C
  C34      1.0000 0.74860  0.09560  0.49870  Biso   1.000  C
  C35      1.0000 0.34700  0.25140  0.49870  Biso   1.000  C
  C36      1.0000 0.90440  0.65300  0.49870  Biso   1.000  C
  H49      1.0000 0.96180  0.25230  0.04090  Biso   1.000  H
  H50      1.0000 0.74770  0.70950  0.04090  Biso   1.000  H
  H51      1.0000 0.29050  0.03820  0.04090  Biso   1.000  H
  H52      1.0000 0.74770  0.03820  0.54090  Biso   1.000  H
  H53      1.0000 0.29050  0.25230  0.54090  Biso   1.000  H
  H54      1.0000 0.96180  0.70950  0.54090  Biso   1.000  H
  H55      1.0000 0.86470  0.17680  0.96760  Biso   1.000  H
  H56      1.0000 0.82320  0.68790  0.96760  Biso   1.000  H
  H57      1.0000 0.31210  0.13530  0.96760  Biso   1.000  H
  H58      1.0000 0.82320  0.13530  0.46760  Biso   1.000  H
  H59      1.0000 0.31210  0.17680  0.46760  Biso   1.000  H
  H60      1.0000 0.86470  0.68790  0.46760  Biso   1.000  H
  O25      1.0000 0.00000  0.00000  0.55090  Biso   1.000  O
  O26      1.0000 0.00000  0.00000  0.05090  Biso   1.000  O
  O27      1.0000 0.74760  0.19380  0.11570  Biso   1.000  O
  O28      1.0000 0.80620  0.55380  0.11570  Biso   1.000  O
  O29      1.0000 0.44620  0.25240  0.11570  Biso   1.000  O
  O30      1.0000 0.80620  0.25240  0.61570  Biso   1.000  O
  O31      1.0000 0.44620  0.19380  0.61570  Biso   1.000  O
  O32      1.0000 0.74760  0.55380  0.61570  Biso   1.000  O
  C37      1.0000 0.81280  0.27490  0.05550  Biso   1.000  C
  C38      1.0000 0.72510  0.53790  0.05550  Biso   1.000  C
  C39      1.0000 0.46210  0.18720  0.05550  Biso   1.000  C
  C40      1.0000 0.72510  0.18720  0.55550  Biso   1.000  C
  C41      1.0000 0.46210  0.27490  0.55550  Biso   1.000  C
  C42      1.0000 0.81280  0.53790  0.55550  Biso   1.000  C
  C43      1.0000 0.18520  0.73720  0.91370  Biso   1.000  C
  C44      1.0000 0.26280  0.44800  0.91370  Biso   1.000  C
  C45      1.0000 0.55200  0.81480  0.91370  Biso   1.000  C
  C46      1.0000 0.26280  0.81480  0.41370  Biso   1.000  C
  C47      1.0000 0.55200  0.73720  0.41370  Biso   1.000  C
  C48      1.0000 0.18520  0.44800  0.41370  Biso   1.000  C
  O33      1.0000 0.24110  0.80910  0.85890  Biso   1.000  O
  O34      1.0000 0.19090  0.43200  0.85890  Biso   1.000  O
  O35      1.0000 0.56800  0.75890  0.85890  Biso   1.000  O
  O36      1.0000 0.19090  0.75890  0.35890  Biso   1.000  O
  O37      1.0000 0.56800  0.80910  0.35890  Biso   1.000  O
  O38      1.0000 0.24110  0.43200  0.35890  Biso   1.000  O
  O39      1.0000 0.18520  0.56210  0.21560  Biso   1.000  O
  O40      1.0000 0.43790  0.62310  0.21560  Biso   1.000  O
  O41      1.0000 0.37690  0.81480  0.21560  Biso   1.000  O
  O42      1.0000 0.43790  0.81480  0.71560  Biso   1.000  O
  O43      1.0000 0.37690  0.56210  0.71560  Biso   1.000  O
  O44      1.0000 0.18520  0.62310  0.71560  Biso   1.000  O
  O45      1.0000 0.81470  0.43060  0.75460  Biso   1.000  O
  O46      1.0000 0.56940  0.38410  0.75460  Biso   1.000  O
  O47      1.0000 0.61590  0.18530  0.75460  Biso   1.000  O
  O48      1.0000 0.56940  0.18530  0.25460  Biso   1.000  O
  O49      1.0000 0.61590  0.43060  0.25460  Biso   1.000  O
  O50      1.0000 0.81470  0.38410  0.25460  Biso   1.000  O
  H61      1.0000 0.00000  0.00000  0.48300  Biso   1.000  H
  H62      1.0000 0.00000  0.00000  0.98300  Biso   1.000  H
  H63      1.0000 0.92300  0.93200  0.56700  Biso   1.000  H
  H64      1.0000 0.06800  0.99100  0.56700  Biso   1.000  H
  H65      1.0000 0.00900  0.07700  0.56700  Biso   1.000  H
  H66      1.0000 0.06800  0.07700  0.06700  Biso   1.000  H
  H67      1.0000 0.00900  0.93200  0.06700  Biso   1.000  H
  H68      1.0000 0.92300  0.99100  0.06700  Biso   1.000  H
  O51      1.0000 0.01300  0.27330  0.22690  Biso   1.000  O
  O52      1.0000 0.72670  0.73970  0.22690  Biso   1.000  O
  O53      1.0000 0.26030  0.98700  0.22690  Biso   1.000  O
  O54      1.0000 0.72670  0.98700  0.72690  Biso   1.000  O
  O55      1.0000 0.26030  0.27330  0.72690  Biso   1.000  O
  O56      1.0000 0.01300  0.73970  0.72690  Biso   1.000  O
  O57      1.0000 0.15030  0.99460  0.82020  Biso   1.000  O
  O58      1.0000 0.00540  0.15570  0.82020  Biso   1.000  O
  O59      1.0000 0.84430  0.84970  0.82020  Biso   1.000  O
  O60      1.0000 0.00540  0.84970  0.32020  Biso   1.000  O
  O61      1.0000 0.84430  0.99460  0.32020  Biso   1.000  O
  O62      1.0000 0.15030  0.15570  0.32020  Biso   1.000  O
  H69      1.0000 0.08600  0.28200  0.19900  Biso   1.000  H
  H70      1.0000 0.71800  0.80400  0.19900  Biso   1.000  H
  H71      1.0000 0.19600  0.91400  0.19900  Biso   1.000  H
  H72      1.0000 0.71800  0.91400  0.69900  Biso   1.000  H
  H73      1.0000 0.19600  0.28200  0.69900  Biso   1.000  H
  H74      1.0000 0.08600  0.80400  0.69900  Biso   1.000  H
  H75      1.0000 0.14800  0.96500  0.75600  Biso   1.000  H
  H76      1.0000 0.03500  0.18300  0.75600  Biso   1.000  H
  H77      1.0000 0.81700  0.85200  0.75600  Biso   1.000  H
  H78      1.0000 0.03500  0.85200  0.25600  Biso   1.000  H
  H79      1.0000 0.81700  0.96500  0.25600  Biso   1.000  H
  H80      1.0000 0.14800  0.18300  0.25600  Biso   1.000  H
  H81      1.0000 0.97500  0.33400  0.18100  Biso   1.000  H
  H82      1.0000 0.66600  0.64100  0.18100  Biso   1.000  H
  H83      1.0000 0.35900  0.02500  0.18100  Biso   1.000  H
  H84      1.0000 0.66600  0.02500  0.68100  Biso   1.000  H
  H85      1.0000 0.35900  0.33400  0.68100  Biso   1.000  H
  H86      1.0000 0.97500  0.64100  0.68100  Biso   1.000  H
  H87      1.0000 0.19200  0.96400  0.85300  Biso   1.000  H
  H88      1.0000 0.03600  0.22800  0.85300  Biso   1.000  H
  H89      1.0000 0.77200  0.80800  0.85300  Biso   1.000  H
  H90      1.0000 0.03600  0.80800  0.35300  Biso   1.000  H
  H91      1.0000 0.77200  0.96400  0.35300  Biso   1.000  H
  H92      1.0000 0.19200  0.22800  0.35300  Biso   1.000  H
