data_image0
_cell_length_a       19.1411
_cell_length_b       19.1411
_cell_length_c       6.7881
_cell_angle_alpha    90
_cell_angle_beta     90
_cell_angle_gamma    90

_symmetry_space_group_name_H-M    "P 1"
_symmetry_int_tables_number       1

loop_
  _symmetry_equiv_pos_as_xyz
  'x, y, z'

loop_
  _atom_site_label
  _atom_site_occupancy
  _atom_site_fract_x
  _atom_site_fract_y
  _atom_site_fract_z
  _atom_site_thermal_displace_type
  _atom_site_B_iso_or_equiv
  _atom_site_type_symbol
  Cu1      1.0000 0.53102  0.53102  0.85263  Biso   1.000  Cu
  Cu2      1.0000 0.96898  0.53102  0.85263  Biso   1.000  Cu
  Cu3      1.0000 0.53102  0.96898  0.85263  Biso   1.000  Cu
  Cu4      1.0000 0.03102  0.03102  0.14737  Biso   1.000  Cu
  Cu5      1.0000 0.46898  0.46898  0.14737  Biso   1.000  Cu
  Cu6      1.0000 0.03102  0.46898  0.14737  Biso   1.000  Cu
  Cu7      1.0000 0.46898  0.03102  0.14737  Biso   1.000  Cu
  Cu8      1.0000 0.96898  0.96898  0.85263  Biso   1.000  Cu
  O1       1.0000 0.51580  0.61856  0.99710  Biso   1.000  O
  O2       1.0000 0.88144  0.51580  0.99710  Biso   1.000  O
  O3       1.0000 0.61856  0.98420  0.99710  Biso   1.000  O
  O4       1.0000 0.11856  0.01580  0.00290  Biso   1.000  O
  O5       1.0000 0.01580  0.11856  0.00290  Biso   1.000  O
  O6       1.0000 0.51580  0.88144  0.99710  Biso   1.000  O
  O7       1.0000 0.98420  0.61856  0.99710  Biso   1.000  O
  O8       1.0000 0.61856  0.51580  0.99710  Biso   1.000  O
  O9       1.0000 0.48420  0.38144  0.00290  Biso   1.000  O
  O10      1.0000 0.11856  0.48420  0.00290  Biso   1.000  O
  O11      1.0000 0.38144  0.01580  0.00290  Biso   1.000  O
  O12      1.0000 0.88144  0.98420  0.99710  Biso   1.000  O
  O13      1.0000 0.98420  0.88144  0.99710  Biso   1.000  O
  O14      1.0000 0.48420  0.11856  0.00290  Biso   1.000  O
  O15      1.0000 0.01580  0.38144  0.00290  Biso   1.000  O
  O16      1.0000 0.38144  0.48420  0.00290  Biso   1.000  O
  O17      1.0000 0.46456  0.56534  0.24680  Biso   1.000  O
  O18      1.0000 0.93466  0.46456  0.24680  Biso   1.000  O
  O19      1.0000 0.56534  0.03544  0.24680  Biso   1.000  O
  O20      1.0000 0.06534  0.96456  0.75320  Biso   1.000  O
  O21      1.0000 0.96456  0.06534  0.75320  Biso   1.000  O
  O22      1.0000 0.46456  0.93466  0.24680  Biso   1.000  O
  O23      1.0000 0.03544  0.56534  0.24680  Biso   1.000  O
  O24      1.0000 0.56534  0.46456  0.24680  Biso   1.000  O
  O25      1.0000 0.53544  0.43466  0.75320  Biso   1.000  O
  O26      1.0000 0.06534  0.53544  0.75320  Biso   1.000  O
  O27      1.0000 0.43466  0.96456  0.75320  Biso   1.000  O
  O28      1.0000 0.93466  0.03544  0.24680  Biso   1.000  O
  O29      1.0000 0.03544  0.93466  0.24680  Biso   1.000  O
  O30      1.0000 0.53544  0.06534  0.75320  Biso   1.000  O
  O31      1.0000 0.96456  0.43466  0.75320  Biso   1.000  O
  O32      1.0000 0.43466  0.53544  0.75320  Biso   1.000  O
  C1       1.0000 0.47550  0.68740  0.26410  Biso   1.000  C
  C2       1.0000 0.81260  0.47550  0.26410  Biso   1.000  C
  C3       1.0000 0.68740  0.02450  0.26410  Biso   1.000  C
  C4       1.0000 0.18740  0.97550  0.73590  Biso   1.000  C
  C5       1.0000 0.97550  0.18740  0.73590  Biso   1.000  C
  C6       1.0000 0.47550  0.81260  0.26410  Biso   1.000  C
  C7       1.0000 0.02450  0.68740  0.26410  Biso   1.000  C
  C8       1.0000 0.68740  0.47550  0.26410  Biso   1.000  C
  C9       1.0000 0.52450  0.31260  0.73590  Biso   1.000  C
  C10      1.0000 0.18740  0.52450  0.73590  Biso   1.000  C
  C11      1.0000 0.31260  0.97550  0.73590  Biso   1.000  C
  C12      1.0000 0.81260  0.02450  0.26410  Biso   1.000  C
  C13      1.0000 0.02450  0.81260  0.26410  Biso   1.000  C
  C14      1.0000 0.52450  0.18740  0.73590  Biso   1.000  C
  C15      1.0000 0.97550  0.31260  0.73590  Biso   1.000  C
  C16      1.0000 0.31260  0.52450  0.73590  Biso   1.000  C
  C17      1.0000 0.45290  0.68750  0.46020  Biso   1.000  C
  C18      1.0000 0.81250  0.45290  0.46020  Biso   1.000  C
  C19      1.0000 0.68750  0.04710  0.46020  Biso   1.000  C
  C20      1.0000 0.18750  0.95290  0.53980  Biso   1.000  C
  C21      1.0000 0.95290  0.18750  0.53980  Biso   1.000  C
  C22      1.0000 0.45290  0.81250  0.46020  Biso   1.000  C
  C23      1.0000 0.04710  0.68750  0.46020  Biso   1.000  C
  C24      1.0000 0.68750  0.45290  0.46020  Biso   1.000  C
  C25      1.0000 0.54710  0.31250  0.53980  Biso   1.000  C
  C26      1.0000 0.18750  0.54710  0.53980  Biso   1.000  C
  C27      1.0000 0.31250  0.95290  0.53980  Biso   1.000  C
  C28      1.0000 0.81250  0.04710  0.46020  Biso   1.000  C
  C29      1.0000 0.04710  0.81250  0.46020  Biso   1.000  C
  C30      1.0000 0.54710  0.18750  0.53980  Biso   1.000  C
  C31      1.0000 0.95290  0.31250  0.53980  Biso   1.000  C
  C32      1.0000 0.31250  0.54710  0.53980  Biso   1.000  C
  H1       1.0000 0.44550  0.64550  0.52560  Biso   1.000  H
  H2       1.0000 0.85450  0.44550  0.52560  Biso   1.000  H
  H3       1.0000 0.64550  0.05450  0.52560  Biso   1.000  H
  H4       1.0000 0.14550  0.94550  0.47440  Biso   1.000  H
  H5       1.0000 0.94550  0.14550  0.47440  Biso   1.000  H
  H6       1.0000 0.44550  0.85450  0.52560  Biso   1.000  H
  H7       1.0000 0.05450  0.64550  0.52560  Biso   1.000  H
  H8       1.0000 0.64550  0.44550  0.52560  Biso   1.000  H
  H9       1.0000 0.55450  0.35450  0.47440  Biso   1.000  H
  H10      1.0000 0.14550  0.55450  0.47440  Biso   1.000  H
  H11      1.0000 0.35450  0.94550  0.47440  Biso   1.000  H
  H12      1.0000 0.85450  0.05450  0.52560  Biso   1.000  H
  H13      1.0000 0.05450  0.85450  0.52560  Biso   1.000  H
  H14      1.0000 0.55450  0.14550  0.47440  Biso   1.000  H
  H15      1.0000 0.94550  0.35450  0.47440  Biso   1.000  H
  H16      1.0000 0.35450  0.55450  0.47440  Biso   1.000  H
  C33      1.0000 0.44150  0.75000  0.55650  Biso   1.000  C
  C34      1.0000 0.75000  0.44150  0.55650  Biso   1.000  C
  C35      1.0000 0.75000  0.05850  0.55650  Biso   1.000  C
  C36      1.0000 0.25000  0.94150  0.44350  Biso   1.000  C
  C37      1.0000 0.94150  0.25000  0.44350  Biso   1.000  C
  C38      1.0000 0.05850  0.75000  0.55650  Biso   1.000  C
  C39      1.0000 0.55850  0.25000  0.44350  Biso   1.000  C
  C40      1.0000 0.25000  0.55850  0.44350  Biso   1.000  C
  H17      1.0000 0.42610  0.75000  0.68640  Biso   1.000  H
  H18      1.0000 0.75000  0.42610  0.68640  Biso   1.000  H
  H19      1.0000 0.75000  0.07390  0.68640  Biso   1.000  H
  H20      1.0000 0.25000  0.92610  0.31360  Biso   1.000  H
  H21      1.0000 0.92610  0.25000  0.31360  Biso   1.000  H
  H22      1.0000 0.07390  0.75000  0.68640  Biso   1.000  H
  H23      1.0000 0.57390  0.25000  0.31360  Biso   1.000  H
  H24      1.0000 0.25000  0.57390  0.31360  Biso   1.000  H
  C41      1.0000 0.48760  0.75000  0.16850  Biso   1.000  C
  C42      1.0000 0.75000  0.48760  0.16850  Biso   1.000  C
  C43      1.0000 0.75000  0.01240  0.16850  Biso   1.000  C
  C44      1.0000 0.25000  0.98760  0.83150  Biso   1.000  C
  C45      1.0000 0.98760  0.25000  0.83150  Biso   1.000  C
  C46      1.0000 0.01240  0.75000  0.16850  Biso   1.000  C
  C47      1.0000 0.51240  0.25000  0.83150  Biso   1.000  C
  C48      1.0000 0.25000  0.51240  0.83150  Biso   1.000  C
  H25      1.0000 0.50390  0.75000  0.03940  Biso   1.000  H
  H26      1.0000 0.75000  0.50390  0.03940  Biso   1.000  H
  H27      1.0000 0.75000  0.99610  0.03940  Biso   1.000  H
  H28      1.0000 0.25000  0.00390  0.96060  Biso   1.000  H
  H29      1.0000 0.00390  0.25000  0.96060  Biso   1.000  H
  H30      1.0000 0.99610  0.75000  0.03940  Biso   1.000  H
  H31      1.0000 0.49610  0.25000  0.96060  Biso   1.000  H
  H32      1.0000 0.25000  0.49610  0.96060  Biso   1.000  H
  C49      1.0000 0.48590  0.61840  0.16060  Biso   1.000  C
  C50      1.0000 0.88160  0.48590  0.16060  Biso   1.000  C
  C51      1.0000 0.61840  0.01410  0.16060  Biso   1.000  C
  C52      1.0000 0.11840  0.98590  0.83940  Biso   1.000  C
  C53      1.0000 0.98590  0.11840  0.83940  Biso   1.000  C
  C54      1.0000 0.48590  0.88160  0.16060  Biso   1.000  C
  C55      1.0000 0.01410  0.61840  0.16060  Biso   1.000  C
  C56      1.0000 0.61840  0.48590  0.16060  Biso   1.000  C
  C57      1.0000 0.51410  0.38160  0.83940  Biso   1.000  C
  C58      1.0000 0.11840  0.51410  0.83940  Biso   1.000  C
  C59      1.0000 0.38160  0.98590  0.83940  Biso   1.000  C
  C60      1.0000 0.88160  0.01410  0.16060  Biso   1.000  C
  C61      1.0000 0.01410  0.88160  0.16060  Biso   1.000  C
  C62      1.0000 0.51410  0.11840  0.83940  Biso   1.000  C
  C63      1.0000 0.98590  0.38160  0.83940  Biso   1.000  C
  C64      1.0000 0.38160  0.51410  0.83940  Biso   1.000  C
  O33      1.0000 0.57489  0.57489  0.59070  Biso   1.000  O
  O34      1.0000 0.92511  0.57489  0.59070  Biso   1.000  O
  O35      1.0000 0.57489  0.92511  0.59070  Biso   1.000  O
  O36      1.0000 0.07489  0.07489  0.40930  Biso   1.000  O
  O37      1.0000 0.42511  0.42511  0.40930  Biso   1.000  O
  O38      1.0000 0.07489  0.42511  0.40930  Biso   1.000  O
  O39      1.0000 0.42511  0.07489  0.40930  Biso   1.000  O
  O40      1.0000 0.92511  0.92511  0.59070  Biso   1.000  O
  O41      1.0000 0.67420  0.67420  0.05600  Biso   1.000  O
  O42      1.0000 0.82580  0.67420  0.05600  Biso   1.000  O
  O43      1.0000 0.67420  0.82580  0.05600  Biso   1.000  O
  O44      1.0000 0.17420  0.17420  0.94400  Biso   1.000  O
  O45      1.0000 0.32580  0.32580  0.94400  Biso   1.000  O
  O46      1.0000 0.17420  0.32580  0.94400  Biso   1.000  O
  O47      1.0000 0.32580  0.17420  0.94400  Biso   1.000  O
  O48      1.0000 0.82580  0.82580  0.05600  Biso   1.000  O
  O49      1.0000 0.67440  0.67440  0.51400  Biso   1.000  O
  O50      1.0000 0.82560  0.67440  0.51400  Biso   1.000  O
  O51      1.0000 0.67440  0.82560  0.51400  Biso   1.000  O
  O52      1.0000 0.17440  0.17440  0.48600  Biso   1.000  O
  O53      1.0000 0.32560  0.32560  0.48600  Biso   1.000  O
  O54      1.0000 0.17440  0.32560  0.48600  Biso   1.000  O
  O55      1.0000 0.32560  0.17440  0.48600  Biso   1.000  O
  O56      1.0000 0.82560  0.82560  0.51400  Biso   1.000  O
