data_image0
_cell_length_a       18.745
_cell_length_b       19.817
_cell_length_c       15.015
_cell_angle_alpha    90
_cell_angle_beta     90
_cell_angle_gamma    90

_symmetry_space_group_name_H-M    "P 1"
_symmetry_int_tables_number       1

loop_
  _symmetry_equiv_pos_as_xyz
  'x, y, z'

loop_
  _atom_site_label
  _atom_site_occupancy
  _atom_site_fract_x
  _atom_site_fract_y
  _atom_site_fract_z
  _atom_site_thermal_displace_type
  _atom_site_B_iso_or_equiv
  _atom_site_type_symbol
  Cu1      1.0000 0.33323  0.14947  0.12725  Biso   1.000  Cu
  Cu2      1.0000 0.66677  0.85053  0.62725  Biso   1.000  Cu
  Cu3      1.0000 0.66677  0.14947  0.37275  Biso   1.000  Cu
  Cu4      1.0000 0.33323  0.85053  0.87275  Biso   1.000  Cu
  Cu5      1.0000 0.83323  0.64947  0.12725  Biso   1.000  Cu
  Cu6      1.0000 0.16677  0.35053  0.62725  Biso   1.000  Cu
  Cu7      1.0000 0.16677  0.64947  0.37275  Biso   1.000  Cu
  Cu8      1.0000 0.83323  0.35053  0.87275  Biso   1.000  Cu
  O1       1.0000 0.27258  0.08248  0.18396  Biso   1.000  O
  O2       1.0000 0.72742  0.91752  0.68396  Biso   1.000  O
  O3       1.0000 0.72742  0.08248  0.31604  Biso   1.000  O
  O4       1.0000 0.27258  0.91752  0.81604  Biso   1.000  O
  O5       1.0000 0.77258  0.58248  0.18396  Biso   1.000  O
  O6       1.0000 0.22742  0.41752  0.68396  Biso   1.000  O
  O7       1.0000 0.22742  0.58248  0.31604  Biso   1.000  O
  O8       1.0000 0.77258  0.41752  0.81604  Biso   1.000  O
  O9       1.0000 0.36564  0.18549  0.24618  Biso   1.000  O
  O10      1.0000 0.63436  0.81451  0.74618  Biso   1.000  O
  O11      1.0000 0.63436  0.18549  0.25382  Biso   1.000  O
  O12      1.0000 0.36564  0.81451  0.75382  Biso   1.000  O
  O13      1.0000 0.86564  0.68549  0.24618  Biso   1.000  O
  O14      1.0000 0.13436  0.31451  0.74618  Biso   1.000  O
  O15      1.0000 0.13436  0.68549  0.25382  Biso   1.000  O
  O16      1.0000 0.86564  0.31451  0.75382  Biso   1.000  O
  O17      1.0000 0.39350  0.21701  0.07064  Biso   1.000  O
  O18      1.0000 0.60650  0.78299  0.57064  Biso   1.000  O
  O19      1.0000 0.60650  0.21701  0.42936  Biso   1.000  O
  O20      1.0000 0.39350  0.78299  0.92936  Biso   1.000  O
  O21      1.0000 0.89350  0.71701  0.07064  Biso   1.000  O
  O22      1.0000 0.10650  0.28299  0.57064  Biso   1.000  O
  O23      1.0000 0.10650  0.71701  0.42936  Biso   1.000  O
  O24      1.0000 0.89350  0.28299  0.92936  Biso   1.000  O
  O25      1.0000 0.29345  0.11856  0.01014  Biso   1.000  O
  O26      1.0000 0.70655  0.88144  0.51014  Biso   1.000  O
  O27      1.0000 0.70655  0.11856  0.48986  Biso   1.000  O
  O28      1.0000 0.29345  0.88144  0.98986  Biso   1.000  O
  O29      1.0000 0.79345  0.61856  0.01014  Biso   1.000  O
  O30      1.0000 0.20655  0.38144  0.51014  Biso   1.000  O
  O31      1.0000 0.20655  0.61856  0.48986  Biso   1.000  O
  O32      1.0000 0.79345  0.38144  0.98986  Biso   1.000  O
  O33      1.0000 0.50000  0.27140  0.25000  Biso   1.000  O
  O34      1.0000 0.50000  0.72860  0.75000  Biso   1.000  O
  O35      1.0000 0.00000  0.77140  0.25000  Biso   1.000  O
  O36      1.0000 0.00000  0.22860  0.75000  Biso   1.000  O
  O37      1.0000 0.19630  0.00000  0.00000  Biso   1.000  O
  O38      1.0000 0.80370  0.00000  0.50000  Biso   1.000  O
  O39      1.0000 0.69630  0.50000  0.00000  Biso   1.000  O
  O40      1.0000 0.30370  0.50000  0.50000  Biso   1.000  O
  N1       1.0000 0.42319  0.07167  0.12230  Biso   1.000  N
  N2       1.0000 0.57681  0.92833  0.62230  Biso   1.000  N
  N3       1.0000 0.57681  0.07167  0.37770  Biso   1.000  N
  N4       1.0000 0.42319  0.92833  0.87770  Biso   1.000  N
  N5       1.0000 0.92319  0.57167  0.12230  Biso   1.000  N
  N6       1.0000 0.07681  0.42833  0.62230  Biso   1.000  N
  N7       1.0000 0.07681  0.57167  0.37770  Biso   1.000  N
  N8       1.0000 0.92319  0.42833  0.87770  Biso   1.000  N
  N9       1.0000 0.58701  0.92861  0.13020  Biso   1.000  N
  N10      1.0000 0.41299  0.07139  0.63020  Biso   1.000  N
  N11      1.0000 0.41299  0.92861  0.36980  Biso   1.000  N
  N12      1.0000 0.58701  0.07139  0.86980  Biso   1.000  N
  N13      1.0000 0.08701  0.42861  0.13020  Biso   1.000  N
  N14      1.0000 0.91299  0.57139  0.63020  Biso   1.000  N
  N15      1.0000 0.91299  0.42861  0.36980  Biso   1.000  N
  N16      1.0000 0.08701  0.57139  0.86980  Biso   1.000  N
  N17      1.0000 0.56982  0.86874  0.13360  Biso   1.000  N
  N18      1.0000 0.43018  0.13126  0.63360  Biso   1.000  N
  N19      1.0000 0.43018  0.86874  0.36640  Biso   1.000  N
  N20      1.0000 0.56982  0.13126  0.86640  Biso   1.000  N
  N21      1.0000 0.06982  0.36874  0.13360  Biso   1.000  N
  N22      1.0000 0.93018  0.63126  0.63360  Biso   1.000  N
  N23      1.0000 0.93018  0.36874  0.36640  Biso   1.000  N
  N24      1.0000 0.06982  0.63126  0.86640  Biso   1.000  N
  N25      1.0000 0.73798  0.72819  0.13450  Biso   1.000  N
  N26      1.0000 0.26202  0.27181  0.63450  Biso   1.000  N
  N27      1.0000 0.26202  0.72819  0.36550  Biso   1.000  N
  N28      1.0000 0.73798  0.27181  0.86550  Biso   1.000  N
  N29      1.0000 0.23798  0.22819  0.13450  Biso   1.000  N
  N30      1.0000 0.76202  0.77181  0.63450  Biso   1.000  N
  N31      1.0000 0.76202  0.22819  0.36550  Biso   1.000  N
  N32      1.0000 0.23798  0.77181  0.86550  Biso   1.000  N
  C1       1.0000 0.35220  0.21860  0.39610  Biso   1.000  C
  C2       1.0000 0.64780  0.78140  0.89610  Biso   1.000  C
  C3       1.0000 0.64780  0.21860  0.10390  Biso   1.000  C
  C4       1.0000 0.35220  0.78140  0.60390  Biso   1.000  C
  C5       1.0000 0.85220  0.71860  0.39610  Biso   1.000  C
  C6       1.0000 0.14780  0.28140  0.89610  Biso   1.000  C
  C7       1.0000 0.14780  0.71860  0.10390  Biso   1.000  C
  C8       1.0000 0.85220  0.28140  0.60390  Biso   1.000  C
  H1       1.0000 0.38960  0.24890  0.37850  Biso   1.000  H
  H2       1.0000 0.61040  0.75110  0.87850  Biso   1.000  H
  H3       1.0000 0.61040  0.24890  0.12150  Biso   1.000  H
  H4       1.0000 0.38960  0.75110  0.62150  Biso   1.000  H
  H5       1.0000 0.88960  0.74890  0.37850  Biso   1.000  H
  H6       1.0000 0.11040  0.25110  0.87850  Biso   1.000  H
  H7       1.0000 0.11040  0.74890  0.12150  Biso   1.000  H
  H8       1.0000 0.88960  0.25110  0.62150  Biso   1.000  H
  H9       1.0000 0.36910  0.18990  0.44310  Biso   1.000  H
  H10      1.0000 0.63090  0.81010  0.94310  Biso   1.000  H
  H11      1.0000 0.63090  0.18990  0.05690  Biso   1.000  H
  H12      1.0000 0.36910  0.81010  0.55690  Biso   1.000  H
  H13      1.0000 0.86910  0.68990  0.44310  Biso   1.000  H
  H14      1.0000 0.13090  0.31010  0.94310  Biso   1.000  H
  H15      1.0000 0.13090  0.68990  0.05690  Biso   1.000  H
  H16      1.0000 0.86910  0.31010  0.55690  Biso   1.000  H
  H17      1.0000 0.31190  0.24410  0.41680  Biso   1.000  H
  H18      1.0000 0.68810  0.75590  0.91680  Biso   1.000  H
  H19      1.0000 0.68810  0.24410  0.08320  Biso   1.000  H
  H20      1.0000 0.31190  0.75590  0.58320  Biso   1.000  H
  H21      1.0000 0.81190  0.74410  0.41680  Biso   1.000  H
  H22      1.0000 0.18810  0.25590  0.91680  Biso   1.000  H
  H23      1.0000 0.18810  0.74410  0.08320  Biso   1.000  H
  H24      1.0000 0.81190  0.25590  0.58320  Biso   1.000  H
  C9       1.0000 0.33040  0.17619  0.31780  Biso   1.000  C
  C10      1.0000 0.66960  0.82381  0.81780  Biso   1.000  C
  C11      1.0000 0.66960  0.17619  0.18220  Biso   1.000  C
  C12      1.0000 0.33040  0.82381  0.68220  Biso   1.000  C
  C13      1.0000 0.83040  0.67619  0.31780  Biso   1.000  C
  C14      1.0000 0.16960  0.32381  0.81780  Biso   1.000  C
  C15      1.0000 0.16960  0.67619  0.18220  Biso   1.000  C
  C16      1.0000 0.83040  0.32381  0.68220  Biso   1.000  C
  C17      1.0000 0.27618  0.12854  0.32980  Biso   1.000  C
  C18      1.0000 0.72382  0.87146  0.82980  Biso   1.000  C
  C19      1.0000 0.72382  0.12854  0.17020  Biso   1.000  C
  C20      1.0000 0.27618  0.87146  0.67020  Biso   1.000  C
  C21      1.0000 0.77618  0.62854  0.32980  Biso   1.000  C
  C22      1.0000 0.22382  0.37146  0.82980  Biso   1.000  C
  C23      1.0000 0.22382  0.62854  0.17020  Biso   1.000  C
  C24      1.0000 0.77618  0.37146  0.67020  Biso   1.000  C
  H25      1.0000 0.25410  0.12710  0.38520  Biso   1.000  H
  H26      1.0000 0.74590  0.87290  0.88520  Biso   1.000  H
  H27      1.0000 0.74590  0.12710  0.11480  Biso   1.000  H
  H28      1.0000 0.25410  0.87290  0.61480  Biso   1.000  H
  H29      1.0000 0.75410  0.62710  0.38520  Biso   1.000  H
  H30      1.0000 0.24590  0.37290  0.88520  Biso   1.000  H
  H31      1.0000 0.24590  0.62710  0.11480  Biso   1.000  H
  H32      1.0000 0.75410  0.37290  0.61480  Biso   1.000  H
  C25      1.0000 0.25244  0.08286  0.26500  Biso   1.000  C
  C26      1.0000 0.74756  0.91714  0.76500  Biso   1.000  C
  C27      1.0000 0.74756  0.08286  0.23500  Biso   1.000  C
  C28      1.0000 0.25244  0.91714  0.73500  Biso   1.000  C
  C29      1.0000 0.75244  0.58286  0.26500  Biso   1.000  C
  C30      1.0000 0.24756  0.41714  0.76500  Biso   1.000  C
  C31      1.0000 0.24756  0.58286  0.23500  Biso   1.000  C
  C32      1.0000 0.75244  0.41714  0.73500  Biso   1.000  C
  C33      1.0000 0.19800  0.03030  0.28850  Biso   1.000  C
  C34      1.0000 0.80200  0.96970  0.78850  Biso   1.000  C
  C35      1.0000 0.80200  0.03030  0.21150  Biso   1.000  C
  C36      1.0000 0.19800  0.96970  0.71150  Biso   1.000  C
  C37      1.0000 0.69800  0.53030  0.28850  Biso   1.000  C
  C38      1.0000 0.30200  0.46970  0.78850  Biso   1.000  C
  C39      1.0000 0.30200  0.53030  0.21150  Biso   1.000  C
  C40      1.0000 0.69800  0.46970  0.71150  Biso   1.000  C
  C41      1.0000 0.19011  0.00480  0.37470  Biso   1.000  C
  C42      1.0000 0.80989  0.99520  0.87470  Biso   1.000  C
  C43      1.0000 0.80989  0.00480  0.12530  Biso   1.000  C
  C44      1.0000 0.19011  0.99520  0.62530  Biso   1.000  C
  C45      1.0000 0.69011  0.50480  0.37470  Biso   1.000  C
  C46      1.0000 0.30989  0.49520  0.87470  Biso   1.000  C
  C47      1.0000 0.30989  0.50480  0.12530  Biso   1.000  C
  C48      1.0000 0.69011  0.49520  0.62530  Biso   1.000  C
  H33      1.0000 0.21830  0.02130  0.42070  Biso   1.000  H
  H34      1.0000 0.78170  0.97870  0.92070  Biso   1.000  H
  H35      1.0000 0.78170  0.02130  0.07930  Biso   1.000  H
  H36      1.0000 0.21830  0.97870  0.57930  Biso   1.000  H
  H37      1.0000 0.71830  0.52130  0.42070  Biso   1.000  H
  H38      1.0000 0.28170  0.47870  0.92070  Biso   1.000  H
  H39      1.0000 0.28170  0.52130  0.07930  Biso   1.000  H
  H40      1.0000 0.71830  0.47870  0.57930  Biso   1.000  H
  C49      1.0000 0.14020  0.95470  0.39160  Biso   1.000  C
  C50      1.0000 0.85980  0.04530  0.89160  Biso   1.000  C
  C51      1.0000 0.85980  0.95470  0.10840  Biso   1.000  C
  C52      1.0000 0.14020  0.04530  0.60840  Biso   1.000  C
  C53      1.0000 0.64020  0.45470  0.39160  Biso   1.000  C
  C54      1.0000 0.35980  0.54530  0.89160  Biso   1.000  C
  C55      1.0000 0.35980  0.45470  0.10840  Biso   1.000  C
  C56      1.0000 0.64020  0.54530  0.60840  Biso   1.000  C
  H41      1.0000 0.13530  0.93770  0.44900  Biso   1.000  H
  H42      1.0000 0.86470  0.06230  0.94900  Biso   1.000  H
  H43      1.0000 0.86470  0.93770  0.05100  Biso   1.000  H
  H44      1.0000 0.13530  0.06230  0.55100  Biso   1.000  H
  H45      1.0000 0.63530  0.43770  0.44900  Biso   1.000  H
  H46      1.0000 0.36470  0.56230  0.94900  Biso   1.000  H
  H47      1.0000 0.36470  0.43770  0.05100  Biso   1.000  H
  H48      1.0000 0.63530  0.56230  0.55100  Biso   1.000  H
  C57      1.0000 0.09780  0.92980  0.32400  Biso   1.000  C
  C58      1.0000 0.90220  0.07020  0.82400  Biso   1.000  C
  C59      1.0000 0.90220  0.92980  0.17600  Biso   1.000  C
  C60      1.0000 0.09780  0.07020  0.67600  Biso   1.000  C
  C61      1.0000 0.59780  0.42980  0.32400  Biso   1.000  C
  C62      1.0000 0.40220  0.57020  0.82400  Biso   1.000  C
  C63      1.0000 0.40220  0.42980  0.17600  Biso   1.000  C
  C64      1.0000 0.59780  0.57020  0.67600  Biso   1.000  C
  H49      1.0000 0.06450  0.89610  0.33570  Biso   1.000  H
  H50      1.0000 0.93550  0.10390  0.83570  Biso   1.000  H
  H51      1.0000 0.93550  0.89610  0.16430  Biso   1.000  H
  H52      1.0000 0.06450  0.10390  0.66430  Biso   1.000  H
  H53      1.0000 0.56450  0.39610  0.33570  Biso   1.000  H
  H54      1.0000 0.43550  0.60390  0.83570  Biso   1.000  H
  H55      1.0000 0.43550  0.39610  0.16430  Biso   1.000  H
  H56      1.0000 0.56450  0.60390  0.66430  Biso   1.000  H
  C65      1.0000 0.10500  0.95540  0.23920  Biso   1.000  C
  C66      1.0000 0.89500  0.04460  0.73920  Biso   1.000  C
  C67      1.0000 0.89500  0.95540  0.26080  Biso   1.000  C
  C68      1.0000 0.10500  0.04460  0.76080  Biso   1.000  C
  C69      1.0000 0.60500  0.45540  0.23920  Biso   1.000  C
  C70      1.0000 0.39500  0.54460  0.73920  Biso   1.000  C
  C71      1.0000 0.39500  0.45540  0.26080  Biso   1.000  C
  C72      1.0000 0.60500  0.54460  0.76080  Biso   1.000  C
  H57      1.0000 0.07620  0.93910  0.19350  Biso   1.000  H
  H58      1.0000 0.92380  0.06090  0.69350  Biso   1.000  H
  H59      1.0000 0.92380  0.93910  0.30650  Biso   1.000  H
  H60      1.0000 0.07620  0.06090  0.80650  Biso   1.000  H
  H61      1.0000 0.57620  0.43910  0.19350  Biso   1.000  H
  H62      1.0000 0.42380  0.56090  0.69350  Biso   1.000  H
  H63      1.0000 0.42380  0.43910  0.30650  Biso   1.000  H
  H64      1.0000 0.57620  0.56090  0.80650  Biso   1.000  H
  C73      1.0000 0.15490  0.00505  0.22140  Biso   1.000  C
  C74      1.0000 0.84510  0.99495  0.72140  Biso   1.000  C
  C75      1.0000 0.84510  0.00505  0.27860  Biso   1.000  C
  C76      1.0000 0.15490  0.99495  0.77860  Biso   1.000  C
  C77      1.0000 0.65490  0.50505  0.22140  Biso   1.000  C
  C78      1.0000 0.34510  0.49495  0.72140  Biso   1.000  C
  C79      1.0000 0.34510  0.50505  0.27860  Biso   1.000  C
  C80      1.0000 0.65490  0.49495  0.77860  Biso   1.000  C
  H65      1.0000 0.15960  0.02160  0.16370  Biso   1.000  H
  H66      1.0000 0.84040  0.97840  0.66370  Biso   1.000  H
  H67      1.0000 0.84040  0.02160  0.33630  Biso   1.000  H
  H68      1.0000 0.15960  0.97840  0.83630  Biso   1.000  H
  H69      1.0000 0.65960  0.52160  0.16370  Biso   1.000  H
  H70      1.0000 0.34040  0.47840  0.66370  Biso   1.000  H
  H71      1.0000 0.34040  0.52160  0.33630  Biso   1.000  H
  H72      1.0000 0.65960  0.47840  0.83630  Biso   1.000  H
  C81      1.0000 0.25960  0.12530  0.85940  Biso   1.000  C
  C82      1.0000 0.74040  0.87470  0.35940  Biso   1.000  C
  C83      1.0000 0.74040  0.12530  0.64060  Biso   1.000  C
  C84      1.0000 0.25960  0.87470  0.14060  Biso   1.000  C
  C85      1.0000 0.75960  0.62530  0.85940  Biso   1.000  C
  C86      1.0000 0.24040  0.37470  0.35940  Biso   1.000  C
  C87      1.0000 0.24040  0.62530  0.64060  Biso   1.000  C
  C88      1.0000 0.75960  0.37470  0.14060  Biso   1.000  C
  H73      1.0000 0.23280  0.08620  0.87680  Biso   1.000  H
  H74      1.0000 0.76720  0.91380  0.37680  Biso   1.000  H
  H75      1.0000 0.76720  0.08620  0.62320  Biso   1.000  H
  H76      1.0000 0.23280  0.91380  0.12320  Biso   1.000  H
  H77      1.0000 0.73280  0.58620  0.87680  Biso   1.000  H
  H78      1.0000 0.26720  0.41380  0.37680  Biso   1.000  H
  H79      1.0000 0.26720  0.58620  0.62320  Biso   1.000  H
  H80      1.0000 0.73280  0.41380  0.12320  Biso   1.000  H
  H81      1.0000 0.29180  0.11350  0.81220  Biso   1.000  H
  H82      1.0000 0.70820  0.88650  0.31220  Biso   1.000  H
  H83      1.0000 0.70820  0.11350  0.68780  Biso   1.000  H
  H84      1.0000 0.29180  0.88650  0.18780  Biso   1.000  H
  H85      1.0000 0.79180  0.61350  0.81220  Biso   1.000  H
  H86      1.0000 0.20820  0.38650  0.31220  Biso   1.000  H
  H87      1.0000 0.20820  0.61350  0.68780  Biso   1.000  H
  H88      1.0000 0.79180  0.38650  0.18780  Biso   1.000  H
  H89      1.0000 0.22760  0.15980  0.83910  Biso   1.000  H
  H90      1.0000 0.77240  0.84020  0.33910  Biso   1.000  H
  H91      1.0000 0.77240  0.15980  0.66090  Biso   1.000  H
  H92      1.0000 0.22760  0.84020  0.16090  Biso   1.000  H
  H93      1.0000 0.72760  0.65980  0.83910  Biso   1.000  H
  H94      1.0000 0.27240  0.34020  0.33910  Biso   1.000  H
  H95      1.0000 0.27240  0.65980  0.66090  Biso   1.000  H
  H96      1.0000 0.72760  0.34020  0.16090  Biso   1.000  H
  C89      1.0000 0.30140  0.15090  0.93780  Biso   1.000  C
  C90      1.0000 0.69860  0.84910  0.43780  Biso   1.000  C
  C91      1.0000 0.69860  0.15090  0.56220  Biso   1.000  C
  C92      1.0000 0.30140  0.84910  0.06220  Biso   1.000  C
  C93      1.0000 0.80140  0.65090  0.93780  Biso   1.000  C
  C94      1.0000 0.19860  0.34910  0.43780  Biso   1.000  C
  C95      1.0000 0.19860  0.65090  0.56220  Biso   1.000  C
  C96      1.0000 0.80140  0.34910  0.06220  Biso   1.000  C
  C97      1.0000 0.34540  0.20780  0.92580  Biso   1.000  C
  C98      1.0000 0.65460  0.79220  0.42580  Biso   1.000  C
  C99      1.0000 0.65460  0.20780  0.57420  Biso   1.000  C
  C100     1.0000 0.34540  0.79220  0.07420  Biso   1.000  C
  C101     1.0000 0.84540  0.70780  0.92580  Biso   1.000  C
  C102     1.0000 0.15460  0.29220  0.42580  Biso   1.000  C
  C103     1.0000 0.15460  0.70780  0.57420  Biso   1.000  C
  C104     1.0000 0.84540  0.29220  0.07420  Biso   1.000  C
  H97      1.0000 0.34560  0.22760  0.86970  Biso   1.000  H
  H98      1.0000 0.65440  0.77240  0.36970  Biso   1.000  H
  H99      1.0000 0.65440  0.22760  0.63030  Biso   1.000  H
  H100     1.0000 0.34560  0.77240  0.13030  Biso   1.000  H
  H101     1.0000 0.84560  0.72760  0.86970  Biso   1.000  H
  H102     1.0000 0.15440  0.27240  0.36970  Biso   1.000  H
  H103     1.0000 0.15440  0.72760  0.63030  Biso   1.000  H
  H104     1.0000 0.84560  0.27240  0.13030  Biso   1.000  H
  C105     1.0000 0.38868  0.23709  0.99050  Biso   1.000  C
  C106     1.0000 0.61132  0.76291  0.49050  Biso   1.000  C
  C107     1.0000 0.61132  0.23709  0.50950  Biso   1.000  C
  C108     1.0000 0.38868  0.76291  0.00950  Biso   1.000  C
  C109     1.0000 0.88868  0.73709  0.99050  Biso   1.000  C
  C110     1.0000 0.11132  0.26291  0.49050  Biso   1.000  C
  C111     1.0000 0.11132  0.73709  0.50950  Biso   1.000  C
  C112     1.0000 0.88868  0.26291  0.00950  Biso   1.000  C
  C113     1.0000 0.43441  0.29668  0.96730  Biso   1.000  C
  C114     1.0000 0.56559  0.70332  0.46730  Biso   1.000  C
  C115     1.0000 0.56559  0.29668  0.53270  Biso   1.000  C
  C116     1.0000 0.43441  0.70332  0.03270  Biso   1.000  C
  C117     1.0000 0.93441  0.79668  0.96730  Biso   1.000  C
  C118     1.0000 0.06559  0.20332  0.46730  Biso   1.000  C
  C119     1.0000 0.06559  0.79668  0.53270  Biso   1.000  C
  C120     1.0000 0.93441  0.20332  0.03270  Biso   1.000  C
  C121     1.0000 0.42380  0.33530  0.89090  Biso   1.000  C
  C122     1.0000 0.57620  0.66470  0.39090  Biso   1.000  C
  C123     1.0000 0.57620  0.33530  0.60910  Biso   1.000  C
  C124     1.0000 0.42380  0.66470  0.10910  Biso   1.000  C
  C125     1.0000 0.92380  0.83530  0.89090  Biso   1.000  C
  C126     1.0000 0.07620  0.16470  0.39090  Biso   1.000  C
  C127     1.0000 0.07620  0.83530  0.60910  Biso   1.000  C
  C128     1.0000 0.92380  0.16470  0.10910  Biso   1.000  C
  H105     1.0000 0.38800  0.32370  0.85100  Biso   1.000  H
  H106     1.0000 0.61200  0.67630  0.35100  Biso   1.000  H
  H107     1.0000 0.61200  0.32370  0.64900  Biso   1.000  H
  H108     1.0000 0.38800  0.67630  0.14900  Biso   1.000  H
  H109     1.0000 0.88800  0.82370  0.85100  Biso   1.000  H
  H110     1.0000 0.11200  0.17630  0.35100  Biso   1.000  H
  H111     1.0000 0.11200  0.82370  0.64900  Biso   1.000  H
  H112     1.0000 0.88800  0.17630  0.14900  Biso   1.000  H
  C129     1.0000 0.46640  0.39090  0.87410  Biso   1.000  C
  C130     1.0000 0.53360  0.60910  0.37410  Biso   1.000  C
  C131     1.0000 0.53360  0.39090  0.62590  Biso   1.000  C
  C132     1.0000 0.46640  0.60910  0.12590  Biso   1.000  C
  C133     1.0000 0.96640  0.89090  0.87410  Biso   1.000  C
  C134     1.0000 0.03360  0.10910  0.37410  Biso   1.000  C
  C135     1.0000 0.03360  0.89090  0.62590  Biso   1.000  C
  C136     1.0000 0.96640  0.10910  0.12590  Biso   1.000  C
  H113     1.0000 0.45790  0.41720  0.82390  Biso   1.000  H
  H114     1.0000 0.54210  0.58280  0.32390  Biso   1.000  H
  H115     1.0000 0.54210  0.41720  0.67610  Biso   1.000  H
  H116     1.0000 0.45790  0.58280  0.17610  Biso   1.000  H
  H117     1.0000 0.95790  0.91720  0.82390  Biso   1.000  H
  H118     1.0000 0.04210  0.08280  0.32390  Biso   1.000  H
  H119     1.0000 0.04210  0.91720  0.67610  Biso   1.000  H
  H120     1.0000 0.95790  0.08280  0.17610  Biso   1.000  H
  C137     1.0000 0.52120  0.40790  0.93150  Biso   1.000  C
  C138     1.0000 0.47880  0.59210  0.43150  Biso   1.000  C
  C139     1.0000 0.47880  0.40790  0.56850  Biso   1.000  C
  C140     1.0000 0.52120  0.59210  0.06850  Biso   1.000  C
  C141     1.0000 0.02120  0.90790  0.93150  Biso   1.000  C
  C142     1.0000 0.97880  0.09210  0.43150  Biso   1.000  C
  C143     1.0000 0.97880  0.90790  0.56850  Biso   1.000  C
  C144     1.0000 0.02120  0.09210  0.06850  Biso   1.000  C
  H121     1.0000 0.55030  0.44480  0.91950  Biso   1.000  H
  H122     1.0000 0.44970  0.55520  0.41950  Biso   1.000  H
  H123     1.0000 0.44970  0.44480  0.58050  Biso   1.000  H
  H124     1.0000 0.55030  0.55520  0.08050  Biso   1.000  H
  H125     1.0000 0.05030  0.94480  0.91950  Biso   1.000  H
  H126     1.0000 0.94970  0.05520  0.41950  Biso   1.000  H
  H127     1.0000 0.94970  0.94480  0.58050  Biso   1.000  H
  H128     1.0000 0.05030  0.05520  0.08050  Biso   1.000  H
  C145     1.0000 0.53220  0.36919  0.00660  Biso   1.000  C
  C146     1.0000 0.46780  0.63081  0.50660  Biso   1.000  C
  C147     1.0000 0.46780  0.36919  0.49340  Biso   1.000  C
  C148     1.0000 0.53220  0.63081  0.99340  Biso   1.000  C
  C149     1.0000 0.03220  0.86919  0.00660  Biso   1.000  C
  C150     1.0000 0.96780  0.13081  0.50660  Biso   1.000  C
  C151     1.0000 0.96780  0.86919  0.49340  Biso   1.000  C
  C152     1.0000 0.03220  0.13081  0.99340  Biso   1.000  C
  H129     1.0000 0.56920  0.38010  0.04530  Biso   1.000  H
  H130     1.0000 0.43080  0.61990  0.54530  Biso   1.000  H
  H131     1.0000 0.43080  0.38010  0.45470  Biso   1.000  H
  H132     1.0000 0.56920  0.61990  0.95470  Biso   1.000  H
  H133     1.0000 0.06920  0.88010  0.04530  Biso   1.000  H
  H134     1.0000 0.93080  0.11990  0.54530  Biso   1.000  H
  H135     1.0000 0.93080  0.88010  0.45470  Biso   1.000  H
  H136     1.0000 0.06920  0.11990  0.95470  Biso   1.000  H
  C153     1.0000 0.48910  0.31453  0.02500  Biso   1.000  C
  C154     1.0000 0.51090  0.68547  0.52500  Biso   1.000  C
  C155     1.0000 0.51090  0.31453  0.47500  Biso   1.000  C
  C156     1.0000 0.48910  0.68547  0.97500  Biso   1.000  C
  C157     1.0000 0.98910  0.81453  0.02500  Biso   1.000  C
  C158     1.0000 0.01090  0.18547  0.52500  Biso   1.000  C
  C159     1.0000 0.01090  0.81453  0.47500  Biso   1.000  C
  C160     1.0000 0.98910  0.18547  0.97500  Biso   1.000  C
  H137     1.0000 0.49670  0.28950  0.07650  Biso   1.000  H
  H138     1.0000 0.50330  0.71050  0.57650  Biso   1.000  H
  H139     1.0000 0.50330  0.28950  0.42350  Biso   1.000  H
  H140     1.0000 0.49670  0.71050  0.92350  Biso   1.000  H
  H141     1.0000 0.99670  0.78950  0.07650  Biso   1.000  H
  H142     1.0000 0.00330  0.21050  0.57650  Biso   1.000  H
  H143     1.0000 0.00330  0.78950  0.42350  Biso   1.000  H
  H144     1.0000 0.99670  0.21050  0.92350  Biso   1.000  H
  C161     1.0000 0.49150  0.08820  0.13310  Biso   1.000  C
  C162     1.0000 0.50850  0.91180  0.63310  Biso   1.000  C
  C163     1.0000 0.50850  0.08820  0.36690  Biso   1.000  C
  C164     1.0000 0.49150  0.91180  0.86690  Biso   1.000  C
  C165     1.0000 0.99150  0.58820  0.13310  Biso   1.000  C
  C166     1.0000 0.00850  0.41180  0.63310  Biso   1.000  C
  C167     1.0000 0.00850  0.58820  0.36690  Biso   1.000  C
  C168     1.0000 0.99150  0.41180  0.86690  Biso   1.000  C
  H145     1.0000 0.50320  0.13370  0.13840  Biso   1.000  H
  H146     1.0000 0.49680  0.86630  0.63840  Biso   1.000  H
  H147     1.0000 0.49680  0.13370  0.36160  Biso   1.000  H
  H148     1.0000 0.50320  0.86630  0.86160  Biso   1.000  H
  H149     1.0000 0.00320  0.63370  0.13840  Biso   1.000  H
  H150     1.0000 0.99680  0.36630  0.63840  Biso   1.000  H
  H151     1.0000 0.99680  0.63370  0.36160  Biso   1.000  H
  H152     1.0000 0.00320  0.36630  0.86160  Biso   1.000  H
  C169     1.0000 0.54550  0.04150  0.13660  Biso   1.000  C
  C170     1.0000 0.45450  0.95850  0.63660  Biso   1.000  C
  C171     1.0000 0.45450  0.04150  0.36340  Biso   1.000  C
  C172     1.0000 0.54550  0.95850  0.86340  Biso   1.000  C
  C173     1.0000 0.04550  0.54150  0.13660  Biso   1.000  C
  C174     1.0000 0.95450  0.45850  0.63660  Biso   1.000  C
  C175     1.0000 0.95450  0.54150  0.36340  Biso   1.000  C
  C176     1.0000 0.04550  0.45850  0.86340  Biso   1.000  C
  H153     1.0000 0.59250  0.05500  0.14530  Biso   1.000  H
  H154     1.0000 0.40750  0.94500  0.64530  Biso   1.000  H
  H155     1.0000 0.40750  0.05500  0.35470  Biso   1.000  H
  H156     1.0000 0.59250  0.94500  0.85470  Biso   1.000  H
  H157     1.0000 0.09250  0.55500  0.14530  Biso   1.000  H
  H158     1.0000 0.90750  0.44500  0.64530  Biso   1.000  H
  H159     1.0000 0.90750  0.55500  0.35470  Biso   1.000  H
  H160     1.0000 0.09250  0.44500  0.85470  Biso   1.000  H
  C177     1.0000 0.52880  0.97440  0.12710  Biso   1.000  C
  C178     1.0000 0.47120  0.02560  0.62710  Biso   1.000  C
  C179     1.0000 0.47120  0.97440  0.37290  Biso   1.000  C
  C180     1.0000 0.52880  0.02560  0.87290  Biso   1.000  C
  C181     1.0000 0.02880  0.47440  0.12710  Biso   1.000  C
  C182     1.0000 0.97120  0.52560  0.62710  Biso   1.000  C
  C183     1.0000 0.97120  0.47440  0.37290  Biso   1.000  C
  C184     1.0000 0.02880  0.52560  0.87290  Biso   1.000  C
  C185     1.0000 0.45870  0.95580  0.11580  Biso   1.000  C
  C186     1.0000 0.54130  0.04420  0.61580  Biso   1.000  C
  C187     1.0000 0.54130  0.95580  0.38420  Biso   1.000  C
  C188     1.0000 0.45870  0.04420  0.88420  Biso   1.000  C
  C189     1.0000 0.95870  0.45580  0.11580  Biso   1.000  C
  C190     1.0000 0.04130  0.54420  0.61580  Biso   1.000  C
  C191     1.0000 0.04130  0.45580  0.38420  Biso   1.000  C
  C192     1.0000 0.95870  0.54420  0.88420  Biso   1.000  C
  H161     1.0000 0.44590  0.91070  0.10990  Biso   1.000  H
  H162     1.0000 0.55410  0.08930  0.60990  Biso   1.000  H
  H163     1.0000 0.55410  0.91070  0.39010  Biso   1.000  H
  H164     1.0000 0.44590  0.08930  0.89010  Biso   1.000  H
  H165     1.0000 0.94590  0.41070  0.10990  Biso   1.000  H
  H166     1.0000 0.05410  0.58930  0.60990  Biso   1.000  H
  H167     1.0000 0.05410  0.41070  0.39010  Biso   1.000  H
  H168     1.0000 0.94590  0.58930  0.89010  Biso   1.000  H
  C193     1.0000 0.40800  0.00600  0.11340  Biso   1.000  C
  C194     1.0000 0.59200  0.99400  0.61340  Biso   1.000  C
  C195     1.0000 0.59200  0.00600  0.38660  Biso   1.000  C
  C196     1.0000 0.40800  0.99400  0.88660  Biso   1.000  C
  C197     1.0000 0.90800  0.50600  0.11340  Biso   1.000  C
  C198     1.0000 0.09200  0.49400  0.61340  Biso   1.000  C
  C199     1.0000 0.09200  0.50600  0.38660  Biso   1.000  C
  C200     1.0000 0.90800  0.49400  0.88660  Biso   1.000  C
  H169     1.0000 0.36060  0.99370  0.10520  Biso   1.000  H
  H170     1.0000 0.63940  0.00630  0.60520  Biso   1.000  H
  H171     1.0000 0.63940  0.99370  0.39480  Biso   1.000  H
  H172     1.0000 0.36060  0.00630  0.89480  Biso   1.000  H
  H173     1.0000 0.86060  0.49370  0.10520  Biso   1.000  H
  H174     1.0000 0.13940  0.50630  0.60520  Biso   1.000  H
  H175     1.0000 0.13940  0.49370  0.39480  Biso   1.000  H
  H176     1.0000 0.86060  0.50630  0.89480  Biso   1.000  H
  C201     1.0000 0.66920  0.71000  0.13860  Biso   1.000  C
  C202     1.0000 0.33080  0.29000  0.63860  Biso   1.000  C
  C203     1.0000 0.33080  0.71000  0.36140  Biso   1.000  C
  C204     1.0000 0.66920  0.29000  0.86140  Biso   1.000  C
  C205     1.0000 0.16920  0.21000  0.13860  Biso   1.000  C
  C206     1.0000 0.83080  0.79000  0.63860  Biso   1.000  C
  C207     1.0000 0.83080  0.21000  0.36140  Biso   1.000  C
  C208     1.0000 0.16920  0.79000  0.86140  Biso   1.000  C
  H177     1.0000 0.65840  0.66420  0.14040  Biso   1.000  H
  H178     1.0000 0.34160  0.33580  0.64040  Biso   1.000  H
  H179     1.0000 0.34160  0.66420  0.35960  Biso   1.000  H
  H180     1.0000 0.65840  0.33580  0.85960  Biso   1.000  H
  H181     1.0000 0.15840  0.16420  0.14040  Biso   1.000  H
  H182     1.0000 0.84160  0.83580  0.64040  Biso   1.000  H
  H183     1.0000 0.84160  0.16420  0.35960  Biso   1.000  H
  H184     1.0000 0.15840  0.83580  0.85960  Biso   1.000  H
  C209     1.0000 0.61330  0.75540  0.14020  Biso   1.000  C
  C210     1.0000 0.38670  0.24460  0.64020  Biso   1.000  C
  C211     1.0000 0.38670  0.75540  0.35980  Biso   1.000  C
  C212     1.0000 0.61330  0.24460  0.85980  Biso   1.000  C
  C213     1.0000 0.11330  0.25540  0.14020  Biso   1.000  C
  C214     1.0000 0.88670  0.74460  0.64020  Biso   1.000  C
  C215     1.0000 0.88670  0.25540  0.35980  Biso   1.000  C
  C216     1.0000 0.11330  0.74460  0.85980  Biso   1.000  C
  H185     1.0000 0.56640  0.74060  0.14450  Biso   1.000  H
  H186     1.0000 0.43360  0.25940  0.64450  Biso   1.000  H
  H187     1.0000 0.43360  0.74060  0.35550  Biso   1.000  H
  H188     1.0000 0.56640  0.25940  0.85550  Biso   1.000  H
  H189     1.0000 0.06640  0.24060  0.14450  Biso   1.000  H
  H190     1.0000 0.93360  0.75940  0.64450  Biso   1.000  H
  H191     1.0000 0.93360  0.24060  0.35550  Biso   1.000  H
  H192     1.0000 0.06640  0.75940  0.85550  Biso   1.000  H
  C217     1.0000 0.62910  0.82300  0.13520  Biso   1.000  C
  C218     1.0000 0.37090  0.17700  0.63520  Biso   1.000  C
  C219     1.0000 0.37090  0.82300  0.36480  Biso   1.000  C
  C220     1.0000 0.62910  0.17700  0.86480  Biso   1.000  C
  C221     1.0000 0.12910  0.32300  0.13520  Biso   1.000  C
  C222     1.0000 0.87090  0.67700  0.63520  Biso   1.000  C
  C223     1.0000 0.87090  0.32300  0.36480  Biso   1.000  C
  C224     1.0000 0.12910  0.67700  0.86480  Biso   1.000  C
  C225     1.0000 0.70020  0.84300  0.13050  Biso   1.000  C
  C226     1.0000 0.29980  0.15700  0.63050  Biso   1.000  C
  C227     1.0000 0.29980  0.84300  0.36950  Biso   1.000  C
  C228     1.0000 0.70020  0.15700  0.86950  Biso   1.000  C
  C229     1.0000 0.20020  0.34300  0.13050  Biso   1.000  C
  C230     1.0000 0.79980  0.65700  0.63050  Biso   1.000  C
  C231     1.0000 0.79980  0.34300  0.36950  Biso   1.000  C
  C232     1.0000 0.20020  0.65700  0.86950  Biso   1.000  C
  H193     1.0000 0.71250  0.88840  0.12770  Biso   1.000  H
  H194     1.0000 0.28750  0.11160  0.62770  Biso   1.000  H
  H195     1.0000 0.28750  0.88840  0.37230  Biso   1.000  H
  H196     1.0000 0.71250  0.11160  0.87230  Biso   1.000  H
  H197     1.0000 0.21250  0.38840  0.12770  Biso   1.000  H
  H198     1.0000 0.78750  0.61160  0.62770  Biso   1.000  H
  H199     1.0000 0.78750  0.38840  0.37230  Biso   1.000  H
  H200     1.0000 0.21250  0.61160  0.87230  Biso   1.000  H
  C233     1.0000 0.75140  0.79380  0.13020  Biso   1.000  C
  C234     1.0000 0.24860  0.20620  0.63020  Biso   1.000  C
  C235     1.0000 0.24860  0.79380  0.36980  Biso   1.000  C
  C236     1.0000 0.75140  0.20620  0.86980  Biso   1.000  C
  C237     1.0000 0.25140  0.29380  0.13020  Biso   1.000  C
  C238     1.0000 0.74860  0.70620  0.63020  Biso   1.000  C
  C239     1.0000 0.74860  0.29380  0.36980  Biso   1.000  C
  C240     1.0000 0.25140  0.70620  0.86980  Biso   1.000  C
  H201     1.0000 0.79890  0.80730  0.12660  Biso   1.000  H
  H202     1.0000 0.20110  0.19270  0.62660  Biso   1.000  H
  H203     1.0000 0.20110  0.80730  0.37340  Biso   1.000  H
  H204     1.0000 0.79890  0.19270  0.87340  Biso   1.000  H
  H205     1.0000 0.29890  0.30730  0.12660  Biso   1.000  H
  H206     1.0000 0.70110  0.69270  0.62660  Biso   1.000  H
  H207     1.0000 0.70110  0.30730  0.37340  Biso   1.000  H
  H208     1.0000 0.29890  0.69270  0.87340  Biso   1.000  H
