data_image0
_cell_length_a       7.093
_cell_length_b       8.662
_cell_length_c       11.335
_cell_angle_alpha    75.96
_cell_angle_beta     76.4
_cell_angle_gamma    89.52

_symmetry_space_group_name_H-M    "P 1"
_symmetry_int_tables_number       1

loop_
  _symmetry_equiv_pos_as_xyz
  'x, y, z'

loop_
  _atom_site_label
  _atom_site_occupancy
  _atom_site_fract_x
  _atom_site_fract_y
  _atom_site_fract_z
  _atom_site_thermal_displace_type
  _atom_site_B_iso_or_equiv
  _atom_site_type_symbol
  Cu1      1.0000 0.50000  0.00000  0.00000  Biso   1.000  Cu
  O1       1.0000 0.33470  0.82720  0.98875  Biso   1.000  O
  O2       1.0000 0.66530  0.17280  0.01125  Biso   1.000  O
  O3       1.0000 0.71035  0.96955  0.86320  Biso   1.000  O
  O4       1.0000 0.28965  0.03045  0.13680  Biso   1.000  O
  C1       1.0000 0.24570  0.59200  0.93895  Biso   1.000  C
  C2       1.0000 0.75430  0.40800  0.06105  Biso   1.000  C
  H1       1.0000 0.12970  0.60165  0.99990  Biso   1.000  H
  H2       1.0000 0.87030  0.39835  0.00010  Biso   1.000  H
  H3       1.0000 0.30155  0.49250  0.96675  Biso   1.000  H
  H4       1.0000 0.69845  0.50750  0.03325  Biso   1.000  H
  H5       1.0000 0.21440  0.59590  0.86055  Biso   1.000  H
  H6       1.0000 0.78560  0.40410  0.13945  Biso   1.000  H
  C3       1.0000 0.38975  0.72745  0.92275  Biso   1.000  C
  C4       1.0000 0.61025  0.27255  0.07725  Biso   1.000  C
  C5       1.0000 0.56945  0.73505  0.83815  Biso   1.000  C
  C6       1.0000 0.43055  0.26495  0.16185  Biso   1.000  C
  H7       1.0000 0.59315  0.65520  0.79600  Biso   1.000  H
  H8       1.0000 0.40685  0.34480  0.20400  Biso   1.000  H
  C7       1.0000 0.71620  0.85410  0.81100  Biso   1.000  C
  C8       1.0000 0.28380  0.14590  0.18900  Biso   1.000  C
  C9       1.0000 0.90105  0.84725  0.71590  Biso   1.000  C
  C10      1.0000 0.09895  0.15275  0.28410  Biso   1.000  C
  C11      1.0000 0.90460  0.79115  0.60960  Biso   1.000  C
  C12      1.0000 0.09540  0.20885  0.39040  Biso   1.000  C
  H9       1.0000 0.79110  0.75250  0.59735  Biso   1.000  H
  H10      1.0000 0.20890  0.24750  0.40265  Biso   1.000  H
  C13      1.0000 0.08010  0.79325  0.52200  Biso   1.000  C
  C14      1.0000 0.91990  0.20675  0.47800  Biso   1.000  C
  H11      1.0000 0.08285  0.75685  0.45185  Biso   1.000  H
  H12      1.0000 0.91715  0.24315  0.54815  Biso   1.000  H
  C15      1.0000 0.25060  0.84885  0.54010  Biso   1.000  C
  C16      1.0000 0.74940  0.15115  0.45990  Biso   1.000  C
  H13      1.0000 0.36605  0.84700  0.48350  Biso   1.000  H
  H14      1.0000 0.63395  0.15300  0.51650  Biso   1.000  H
  C17      1.0000 0.24675  0.90770  0.64300  Biso   1.000  C
  C18      1.0000 0.75325  0.09230  0.35700  Biso   1.000  C
  H15      1.0000 0.35875  0.95065  0.65235  Biso   1.000  H
  H16      1.0000 0.64125  0.04935  0.34765  Biso   1.000  H
  C19      1.0000 0.07390  0.90440  0.73130  Biso   1.000  C
  C20      1.0000 0.92610  0.09560  0.26870  Biso   1.000  C
  H17      1.0000 0.07360  0.94155  0.80130  Biso   1.000  H
  H18      1.0000 0.92640  0.05845  0.19870  Biso   1.000  H
  N1       1.0000 0.35630  0.19760  0.85345  Biso   1.000  N
  N2       1.0000 0.64370  0.80240  0.14655  Biso   1.000  N
  N3       1.0000 0.53480  0.46990  0.54585  Biso   1.000  N
  N4       1.0000 0.46520  0.53010  0.45415  Biso   1.000  N
  C21      1.0000 0.16405  0.20700  0.86980  Biso   1.000  C
  C22      1.0000 0.83595  0.79300  0.13020  Biso   1.000  C
  H19      1.0000 0.08425  0.14820  0.94430  Biso   1.000  H
  H20      1.0000 0.91575  0.85180  0.05570  Biso   1.000  H
  C23      1.0000 0.07845  0.30045  0.78085  Biso   1.000  C
  C24      1.0000 0.92155  0.69955  0.21915  Biso   1.000  C
  H21      1.0000 0.94405  0.30285  0.79565  Biso   1.000  H
  H22      1.0000 0.05595  0.69715  0.20435  Biso   1.000  H
  C25      1.0000 0.19465  0.39000  0.67025  Biso   1.000  C
  C26      1.0000 0.80535  0.61000  0.32975  Biso   1.000  C
  H23      1.0000 0.14130  0.45205  0.60860  Biso   1.000  H
  H24      1.0000 0.85870  0.54795  0.39140  Biso   1.000  H
  C27      1.0000 0.39475  0.38305  0.65395  Biso   1.000  C
  C28      1.0000 0.60525  0.61695  0.34605  Biso   1.000  C
  C29      1.0000 0.46810  0.28545  0.74695  Biso   1.000  C
  C30      1.0000 0.53190  0.71455  0.25305  Biso   1.000  C
  H25      1.0000 0.60205  0.28095  0.73470  Biso   1.000  H
  H26      1.0000 0.39795  0.71905  0.26530  Biso   1.000  H
