data_image0
_cell_length_a       7.093
_cell_length_b       8.662
_cell_length_c       11.335
_cell_angle_alpha    75.96
_cell_angle_beta     76.4
_cell_angle_gamma    89.52

_symmetry_space_group_name_H-M    "P 1"
_symmetry_int_tables_number       1

loop_
  _symmetry_equiv_pos_as_xyz
  'x, y, z'

loop_
  _atom_site_label
  _atom_site_occupancy
  _atom_site_fract_x
  _atom_site_fract_y
  _atom_site_fract_z
  _atom_site_thermal_displace_type
  _atom_site_B_iso_or_equiv
  _atom_site_type_symbol
  Cu1      1.0000 0.75530  0.73404  0.30020  Biso   1.000  Cu
  O1       1.0000 0.59170  0.56180  0.28710  Biso   1.000  O
  O2       1.0000 0.96400  0.70310  0.16700  Biso   1.000  O
  O3       1.0000 0.92230  0.90740  0.30960  Biso   1.000  O
  O4       1.0000 0.54330  0.76400  0.44060  Biso   1.000  O
  N1       1.0000 0.61080  0.92740  0.15470  Biso   1.000  N
  N2       1.0000 0.89820  0.53220  0.44780  Biso   1.000  N
  N3       1.0000 0.79040  0.19920  0.85110  Biso   1.000  N
  N4       1.0000 0.72080  0.25940  0.75940  Biso   1.000  N
  C1       1.0000 0.42210  0.94370  0.16720  Biso   1.000  C
  H1       1.0000 0.34240  0.88480  0.24180  Biso   1.000  H
  C2       1.0000 0.33040  0.03510  0.08560  Biso   1.000  C
  H2       1.0000 0.19560  0.03520  0.10310  Biso   1.000  H
  C3       1.0000 0.44830  0.13260  0.97050  Biso   1.000  C
  H3       1.0000 0.39730  0.20180  0.91060  Biso   1.000  H
  C4       1.0000 0.65450  0.11190  0.95760  Biso   1.000  C
  C5       1.0000 0.72290  0.01960  0.04770  Biso   1.000  C
  H4       1.0000 0.85690  0.01790  0.03680  Biso   1.000  H
  C6       1.0000 0.09400  0.52970  0.42760  Biso   1.000  C
  H5       1.0000 0.17390  0.58840  0.35320  Biso   1.000  H
  C7       1.0000 0.17350  0.43420  0.52390  Biso   1.000  C
  H6       1.0000 0.30750  0.42950  0.51180  Biso   1.000  H
  C8       1.0000 0.05900  0.35260  0.63000  Biso   1.000  C
  H7       1.0000 0.11470  0.29770  0.69340  Biso   1.000  H
  C9       1.0000 0.86500  0.34580  0.64970  Biso   1.000  C
  C10      1.0000 0.78670  0.44870  0.55380  Biso   1.000  C
  H8       1.0000 0.65280  0.45600  0.56740  Biso   1.000  H
  C11      1.0000 0.49630  0.32500  0.23230  Biso   1.000  C
  H9       1.0000 0.37760  0.33190  0.29210  Biso   1.000  H
  H10      1.0000 0.55010  0.22380  0.25780  Biso   1.000  H
  H11      1.0000 0.47010  0.33550  0.15140  Biso   1.000  H
  C12      1.0000 0.64180  0.45930  0.22510  Biso   1.000  C
  C13      1.0000 0.82360  0.45800  0.14310  Biso   1.000  C
  H12      1.0000 0.85170  0.37170  0.10770  Biso   1.000  H
  C14      1.0000 0.97000  0.58870  0.11180  Biso   1.000  C
  C15      1.0000 0.15630  0.58250  0.01520  Biso   1.000  C
  C16      1.0000 0.15460  0.52870  0.90610  Biso   1.000  C
  H13      1.0000 0.03880  0.49920  0.89040  Biso   1.000  H
  C17      1.0000 0.33020  0.52190  0.82480  Biso   1.000  C
  H14      1.0000 0.33470  0.47080  0.76100  Biso   1.000  H
  C18      1.0000 0.50090  0.58880  0.83480  Biso   1.000  C
  H15      1.0000 0.61070  0.60180  0.76890  Biso   1.000  H
  C19      1.0000 0.51050  0.63700  0.94200  Biso   1.000  C
  H16      1.0000 0.62680  0.66430  0.95820  Biso   1.000  H
  C20      1.0000 0.32580  0.64060  0.02470  Biso   1.000  C
  H17      1.0000 0.32220  0.68710  0.09090  Biso   1.000  H
  C21      1.0000 0.00490  0.14100  0.35440  Biso   1.000  C
  H18      1.0000 0.11820  0.12860  0.29230  Biso   1.000  H
  H19      1.0000 0.04130  0.14370  0.43030  Biso   1.000  H
  H20      1.0000 0.94700  0.23880  0.32430  Biso   1.000  H
  C22      1.0000 0.86230  0.00440  0.37960  Biso   1.000  C
  C23      1.0000 0.68470  0.98790  0.46680  Biso   1.000  C
  H21      1.0000 0.66540  0.06130  0.51570  Biso   1.000  H
  C24      1.0000 0.53760  0.88050  0.48980  Biso   1.000  C
  C25      1.0000 0.35420  0.88800  0.58340  Biso   1.000  C
  C26      1.0000 0.34540  0.94640  0.68690  Biso   1.000  C
  H22      1.0000 0.45660  0.99420  0.69570  Biso   1.000  H
  C27      1.0000 0.17000  0.93540  0.78080  Biso   1.000  C
  H23      1.0000 0.16900  0.95710  0.85730  Biso   1.000  H
  C28      1.0000 0.99970  0.89110  0.75460  Biso   1.000  C
  H24      1.0000 0.87860  0.90780  0.80190  Biso   1.000  H
  C29      1.0000 0.01700  0.82160  0.65600  Biso   1.000  C
  H25      1.0000 0.90930  0.76300  0.65350  Biso   1.000  H
  C30      1.0000 0.17800  0.83180  0.56210  Biso   1.000  C
  H26      1.0000 0.17500  0.80400  0.48830  Biso   1.000  H
