data_image0
_cell_length_a       19.267
_cell_length_b       10.1429
_cell_length_c       19.918
_cell_angle_alpha    90
_cell_angle_beta     99.715
_cell_angle_gamma    90

_symmetry_space_group_name_H-M    "P 1"
_symmetry_int_tables_number       1

loop_
  _symmetry_equiv_pos_as_xyz
  'x, y, z'

loop_
  _atom_site_label
  _atom_site_occupancy
  _atom_site_fract_x
  _atom_site_fract_y
  _atom_site_fract_z
  _atom_site_thermal_displace_type
  _atom_site_B_iso_or_equiv
  _atom_site_type_symbol
  C1       1.0000 0.13168  0.30780  0.53266  Biso   1.000  C
  C2       1.0000 0.86832  0.80780  0.96734  Biso   1.000  C
  C3       1.0000 0.86832  0.69220  0.46734  Biso   1.000  C
  C4       1.0000 0.13168  0.19220  0.03266  Biso   1.000  C
  H1       1.0000 0.11640  0.29220  0.48380  Biso   1.000  H
  H2       1.0000 0.88360  0.79220  0.01620  Biso   1.000  H
  H3       1.0000 0.88360  0.70780  0.51620  Biso   1.000  H
  H4       1.0000 0.11640  0.20780  0.98380  Biso   1.000  H
  C5       1.0000 0.14946  0.17510  0.56564  Biso   1.000  C
  C6       1.0000 0.85054  0.67510  0.93436  Biso   1.000  C
  C7       1.0000 0.85054  0.82490  0.43436  Biso   1.000  C
  C8       1.0000 0.14946  0.32490  0.06564  Biso   1.000  C
  H5       1.0000 0.16480  0.19030  0.61450  Biso   1.000  H
  H6       1.0000 0.83520  0.69030  0.88550  Biso   1.000  H
  H7       1.0000 0.83520  0.80970  0.38550  Biso   1.000  H
  H8       1.0000 0.16480  0.30970  0.11450  Biso   1.000  H
  C9       1.0000 0.08540  0.08690  0.55780  Biso   1.000  C
  C10      1.0000 0.91460  0.58690  0.94220  Biso   1.000  C
  C11      1.0000 0.91460  0.91310  0.44220  Biso   1.000  C
  C12      1.0000 0.08540  0.41310  0.05780  Biso   1.000  C
  H9       1.0000 0.09750  0.00520  0.58230  Biso   1.000  H
  H10      1.0000 0.90250  0.50520  0.91770  Biso   1.000  H
  H11      1.0000 0.90250  0.99480  0.41770  Biso   1.000  H
  H12      1.0000 0.09750  0.49480  0.08230  Biso   1.000  H
  H13      1.0000 0.07070  0.06560  0.51010  Biso   1.000  H
  H14      1.0000 0.92930  0.56560  0.98990  Biso   1.000  H
  H15      1.0000 0.92930  0.93440  0.48990  Biso   1.000  H
  H16      1.0000 0.07070  0.43440  0.01010  Biso   1.000  H
  C13      1.0000 0.02510  0.15240  0.58480  Biso   1.000  C
  C14      1.0000 0.97490  0.65240  0.91520  Biso   1.000  C
  C15      1.0000 0.97490  0.84760  0.41520  Biso   1.000  C
  C16      1.0000 0.02510  0.34760  0.08480  Biso   1.000  C
  H17      1.0000 0.98430  0.09510  0.57710  Biso   1.000  H
  H18      1.0000 0.01570  0.59510  0.92290  Biso   1.000  H
  H19      1.0000 0.01570  0.90490  0.42290  Biso   1.000  H
  H20      1.0000 0.98430  0.40490  0.07710  Biso   1.000  H
  H21      1.0000 0.03820  0.16590  0.63350  Biso   1.000  H
  H22      1.0000 0.96180  0.66590  0.86650  Biso   1.000  H
  H23      1.0000 0.96180  0.83410  0.36650  Biso   1.000  H
  H24      1.0000 0.03820  0.33410  0.13350  Biso   1.000  H
  C17      1.0000 0.00660  0.28290  0.55040  Biso   1.000  C
  C18      1.0000 0.99340  0.78290  0.94960  Biso   1.000  C
  C19      1.0000 0.99340  0.71710  0.44960  Biso   1.000  C
  C20      1.0000 0.00660  0.21710  0.05040  Biso   1.000  C
  H25      1.0000 0.96940  0.32460  0.57010  Biso   1.000  H
  H26      1.0000 0.03060  0.82460  0.92990  Biso   1.000  H
  H27      1.0000 0.03060  0.67540  0.42990  Biso   1.000  H
  H28      1.0000 0.96940  0.17540  0.07010  Biso   1.000  H
  H29      1.0000 0.98940  0.26880  0.50230  Biso   1.000  H
  H30      1.0000 0.01060  0.76880  0.99770  Biso   1.000  H
  H31      1.0000 0.01060  0.73120  0.49770  Biso   1.000  H
  H32      1.0000 0.98940  0.23120  0.00230  Biso   1.000  H
  C21      1.0000 0.07072  0.37280  0.55900  Biso   1.000  C
  C22      1.0000 0.92928  0.87280  0.94100  Biso   1.000  C
  C23      1.0000 0.92928  0.62720  0.44100  Biso   1.000  C
  C24      1.0000 0.07072  0.12720  0.05900  Biso   1.000  C
  H33      1.0000 0.05850  0.45440  0.53450  Biso   1.000  H
  H34      1.0000 0.94150  0.95440  0.96550  Biso   1.000  H
  H35      1.0000 0.94150  0.54560  0.46550  Biso   1.000  H
  H36      1.0000 0.05850  0.04560  0.03450  Biso   1.000  H
  H37      1.0000 0.08480  0.39400  0.60690  Biso   1.000  H
  H38      1.0000 0.91520  0.89400  0.89310  Biso   1.000  H
  H39      1.0000 0.91520  0.60600  0.39310  Biso   1.000  H
  H40      1.0000 0.08480  0.10600  0.10690  Biso   1.000  H
  C25      1.0000 0.18908  0.51250  0.49840  Biso   1.000  C
  C26      1.0000 0.81092  0.01250  0.00160  Biso   1.000  C
  C27      1.0000 0.81092  0.48750  0.50160  Biso   1.000  C
  C28      1.0000 0.18908  0.98750  0.99840  Biso   1.000  C
  H41      1.0000 0.16510  0.49080  0.45300  Biso   1.000  H
  H42      1.0000 0.83490  0.99080  0.04700  Biso   1.000  H
  H43      1.0000 0.83490  0.50920  0.54700  Biso   1.000  H
  H44      1.0000 0.16510  0.00920  0.95300  Biso   1.000  H
  H45      1.0000 0.15920  0.57310  0.51820  Biso   1.000  H
  H46      1.0000 0.84080  0.07310  0.98180  Biso   1.000  H
  H47      1.0000 0.84080  0.42690  0.48180  Biso   1.000  H
  H48      1.0000 0.15920  0.92690  0.01820  Biso   1.000  H
  C29      1.0000 0.29994  0.50570  0.45600  Biso   1.000  C
  C30      1.0000 0.70006  0.00570  0.04400  Biso   1.000  C
  C31      1.0000 0.70006  0.49430  0.54400  Biso   1.000  C
  C32      1.0000 0.29994  0.99430  0.95600  Biso   1.000  C
  H49      1.0000 0.33110  0.56420  0.43660  Biso   1.000  H
  H50      1.0000 0.66890  0.06420  0.06340  Biso   1.000  H
  H51      1.0000 0.66890  0.43580  0.56340  Biso   1.000  H
  H52      1.0000 0.33110  0.93580  0.93660  Biso   1.000  H
  H53      1.0000 0.27290  0.45390  0.41980  Biso   1.000  H
  H54      1.0000 0.72710  0.95390  0.08020  Biso   1.000  H
  H55      1.0000 0.72710  0.54610  0.58020  Biso   1.000  H
  H56      1.0000 0.27290  0.04610  0.91980  Biso   1.000  H
  C33      1.0000 0.29870  0.60910  0.55840  Biso   1.000  C
  C34      1.0000 0.70130  0.10910  0.94160  Biso   1.000  C
  C35      1.0000 0.70130  0.39090  0.44160  Biso   1.000  C
  C36      1.0000 0.29870  0.89090  0.05840  Biso   1.000  C
  H57      1.0000 0.27230  0.59770  0.59540  Biso   1.000  H
  H58      1.0000 0.72770  0.09770  0.90460  Biso   1.000  H
  H59      1.0000 0.72770  0.40230  0.40460  Biso   1.000  H
  H60      1.0000 0.27230  0.90230  0.09540  Biso   1.000  H
  H61      1.0000 0.31550  0.69930  0.55900  Biso   1.000  H
  H62      1.0000 0.68450  0.19930  0.94100  Biso   1.000  H
  H63      1.0000 0.68450  0.30070  0.44100  Biso   1.000  H
  H64      1.0000 0.31550  0.80070  0.05900  Biso   1.000  H
  C37      1.0000 0.35990  0.51360  0.56581  Biso   1.000  C
  C38      1.0000 0.64010  0.01360  0.93419  Biso   1.000  C
  C39      1.0000 0.64010  0.48640  0.43419  Biso   1.000  C
  C40      1.0000 0.35990  0.98640  0.06581  Biso   1.000  C
  H65      1.0000 0.40330  0.55910  0.56190  Biso   1.000  H
  H66      1.0000 0.59670  0.05910  0.93810  Biso   1.000  H
  H67      1.0000 0.59670  0.44090  0.43810  Biso   1.000  H
  H68      1.0000 0.40330  0.94090  0.06190  Biso   1.000  H
  H69      1.0000 0.36570  0.46900  0.60950  Biso   1.000  H
  H70      1.0000 0.63430  0.96900  0.89050  Biso   1.000  H
  H71      1.0000 0.63430  0.53100  0.39050  Biso   1.000  H
  H72      1.0000 0.36570  0.03100  0.10950  Biso   1.000  H
  C41      1.0000 0.40188  0.35410  0.48860  Biso   1.000  C
  C42      1.0000 0.59812  0.85410  0.01140  Biso   1.000  C
  C43      1.0000 0.59812  0.64590  0.51140  Biso   1.000  C
  C44      1.0000 0.40188  0.14590  0.98860  Biso   1.000  C
  H73      1.0000 0.44110  0.41520  0.49300  Biso   1.000  H
  H74      1.0000 0.55890  0.91520  0.00700  Biso   1.000  H
  H75      1.0000 0.55890  0.58480  0.50700  Biso   1.000  H
  H76      1.0000 0.44110  0.08480  0.99300  Biso   1.000  H
  H77      1.0000 0.39070  0.32640  0.44140  Biso   1.000  H
  H78      1.0000 0.60930  0.82640  0.05860  Biso   1.000  H
  H79      1.0000 0.60930  0.67360  0.55860  Biso   1.000  H
  H80      1.0000 0.39070  0.17360  0.94140  Biso   1.000  H
  C45      1.0000 0.42125  0.23680  0.53360  Biso   1.000  C
  C46      1.0000 0.57875  0.73680  0.96640  Biso   1.000  C
  C47      1.0000 0.57875  0.76320  0.46640  Biso   1.000  C
  C48      1.0000 0.42125  0.26320  0.03360  Biso   1.000  C
  H81      1.0000 0.46100  0.19110  0.52030  Biso   1.000  H
  H82      1.0000 0.53900  0.69110  0.97970  Biso   1.000  H
  H83      1.0000 0.53900  0.80890  0.47970  Biso   1.000  H
  H84      1.0000 0.46100  0.30890  0.02030  Biso   1.000  H
  H85      1.0000 0.43440  0.26470  0.58060  Biso   1.000  H
  H86      1.0000 0.56560  0.76470  0.91940  Biso   1.000  H
  H87      1.0000 0.56560  0.73530  0.41940  Biso   1.000  H
  H88      1.0000 0.43440  0.23530  0.08060  Biso   1.000  H
  C49      1.0000 0.36290  0.04640  0.58165  Biso   1.000  C
  C50      1.0000 0.63710  0.54640  0.91835  Biso   1.000  C
  C51      1.0000 0.63710  0.95360  0.41835  Biso   1.000  C
  C52      1.0000 0.36290  0.45360  0.08165  Biso   1.000  C
  H89      1.0000 0.40800  0.00160  0.58880  Biso   1.000  H
  H90      1.0000 0.59200  0.50160  0.91120  Biso   1.000  H
  H91      1.0000 0.59200  0.99840  0.41120  Biso   1.000  H
  H92      1.0000 0.40800  0.49840  0.08880  Biso   1.000  H
  H93      1.0000 0.35570  0.08640  0.62420  Biso   1.000  H
  H94      1.0000 0.64430  0.58640  0.87580  Biso   1.000  H
  H95      1.0000 0.64430  0.91360  0.37580  Biso   1.000  H
  H96      1.0000 0.35570  0.41360  0.12420  Biso   1.000  H
  C53      1.0000 0.31030  0.94430  0.48350  Biso   1.000  C
  C54      1.0000 0.68970  0.44430  0.01650  Biso   1.000  C
  C55      1.0000 0.68970  0.05570  0.51650  Biso   1.000  C
  C56      1.0000 0.31030  0.55570  0.98350  Biso   1.000  C
  H97      1.0000 0.26330  0.94550  0.45670  Biso   1.000  H
  H98      1.0000 0.73670  0.44550  0.04330  Biso   1.000  H
  H99      1.0000 0.73670  0.05450  0.54330  Biso   1.000  H
  H100     1.0000 0.26330  0.55450  0.95670  Biso   1.000  H
  H101     1.0000 0.33310  0.86240  0.47470  Biso   1.000  H
  H102     1.0000 0.66690  0.36240  0.02530  Biso   1.000  H
  H103     1.0000 0.66690  0.13760  0.52530  Biso   1.000  H
  H104     1.0000 0.33310  0.63760  0.97470  Biso   1.000  H
  C57      1.0000 0.35250  0.06090  0.46583  Biso   1.000  C
  C58      1.0000 0.64750  0.56090  0.03417  Biso   1.000  C
  C59      1.0000 0.64750  0.93910  0.53417  Biso   1.000  C
  C60      1.0000 0.35250  0.43910  0.96583  Biso   1.000  C
  H105     1.0000 0.39830  0.03290  0.45720  Biso   1.000  H
  H106     1.0000 0.60170  0.53290  0.04280  Biso   1.000  H
  H107     1.0000 0.60170  0.96710  0.54280  Biso   1.000  H
  H108     1.0000 0.39830  0.46710  0.95720  Biso   1.000  H
  H109     1.0000 0.32800  0.10590  0.42580  Biso   1.000  H
  H110     1.0000 0.67200  0.60590  0.07420  Biso   1.000  H
  H111     1.0000 0.67200  0.89410  0.57420  Biso   1.000  H
  H112     1.0000 0.32800  0.39410  0.92580  Biso   1.000  H
  C61      1.0000 0.23890  0.99520  0.57090  Biso   1.000  C
  C62      1.0000 0.76110  0.49520  0.92910  Biso   1.000  C
  C63      1.0000 0.76110  0.00480  0.42910  Biso   1.000  C
  C64      1.0000 0.23890  0.50480  0.07090  Biso   1.000  C
  H113     1.0000 0.24210  0.00410  0.61990  Biso   1.000  H
  H114     1.0000 0.75790  0.50410  0.88010  Biso   1.000  H
  H115     1.0000 0.75790  0.99590  0.38010  Biso   1.000  H
  H116     1.0000 0.24210  0.49590  0.11990  Biso   1.000  H
  H117     1.0000 0.20560  0.92510  0.55610  Biso   1.000  H
  H118     1.0000 0.79440  0.42510  0.94390  Biso   1.000  H
  H119     1.0000 0.79440  0.07490  0.44390  Biso   1.000  H
  H120     1.0000 0.20560  0.57490  0.05610  Biso   1.000  H
  C65      1.0000 0.24716  0.43470  0.27082  Biso   1.000  C
  C66      1.0000 0.75284  0.93470  0.22918  Biso   1.000  C
  C67      1.0000 0.75284  0.56530  0.72918  Biso   1.000  C
  C68      1.0000 0.24716  0.06530  0.77082  Biso   1.000  C
  C69      1.0000 0.19883  0.63510  0.26853  Biso   1.000  C
  C70      1.0000 0.80117  0.13510  0.23147  Biso   1.000  C
  C71      1.0000 0.80117  0.36490  0.73147  Biso   1.000  C
  C72      1.0000 0.19883  0.86490  0.76853  Biso   1.000  C
  C73      1.0000 0.31240  0.61510  0.26065  Biso   1.000  C
  C74      1.0000 0.68760  0.11510  0.23935  Biso   1.000  C
  C75      1.0000 0.68760  0.38490  0.73935  Biso   1.000  C
  C76      1.0000 0.31240  0.88490  0.76065  Biso   1.000  C
  C77      1.0000 0.07458  0.66180  0.27904  Biso   1.000  C
  C78      1.0000 0.92542  0.16180  0.22096  Biso   1.000  C
  C79      1.0000 0.92542  0.33820  0.72096  Biso   1.000  C
  C80      1.0000 0.07458  0.83820  0.77904  Biso   1.000  C
  H121     1.0000 0.05380  0.72000  0.30880  Biso   1.000  H
  H122     1.0000 0.94620  0.22000  0.19120  Biso   1.000  H
  H123     1.0000 0.94620  0.28000  0.69120  Biso   1.000  H
  H124     1.0000 0.05380  0.78000  0.80880  Biso   1.000  H
  H125     1.0000 0.08200  0.57680  0.30150  Biso   1.000  H
  H126     1.0000 0.91800  0.07680  0.19850  Biso   1.000  H
  H127     1.0000 0.91800  0.42320  0.69850  Biso   1.000  H
  H128     1.0000 0.08200  0.92320  0.80150  Biso   1.000  H
  C81      1.0000 0.02312  0.64460  0.21350  Biso   1.000  C
  C82      1.0000 0.97688  0.14460  0.28650  Biso   1.000  C
  C83      1.0000 0.97688  0.35540  0.78650  Biso   1.000  C
  C84      1.0000 0.02312  0.85540  0.71350  Biso   1.000  C
  C85      1.0000 0.15091  0.85560  0.26091  Biso   1.000  C
  C86      1.0000 0.84909  0.35560  0.23909  Biso   1.000  C
  C87      1.0000 0.84909  0.14440  0.73909  Biso   1.000  C
  C88      1.0000 0.15091  0.64440  0.76091  Biso   1.000  C
  H129     1.0000 0.18800  0.88710  0.29630  Biso   1.000  H
  H130     1.0000 0.81200  0.38710  0.20370  Biso   1.000  H
  H131     1.0000 0.81200  0.11290  0.70370  Biso   1.000  H
  H132     1.0000 0.18800  0.61290  0.79630  Biso   1.000  H
  H133     1.0000 0.10770  0.89950  0.26700  Biso   1.000  H
  H134     1.0000 0.89230  0.39950  0.23300  Biso   1.000  H
  H135     1.0000 0.89230  0.10050  0.73300  Biso   1.000  H
  H136     1.0000 0.10770  0.60050  0.76700  Biso   1.000  H
  C89      1.0000 0.16834  0.89440  0.19294  Biso   1.000  C
  C90      1.0000 0.83166  0.39440  0.30706  Biso   1.000  C
  C91      1.0000 0.83166  0.10560  0.80706  Biso   1.000  C
  C92      1.0000 0.16834  0.60560  0.69294  Biso   1.000  C
  C93      1.0000 0.38349  0.81140  0.25212  Biso   1.000  C
  C94      1.0000 0.61651  0.31140  0.24788  Biso   1.000  C
  C95      1.0000 0.61651  0.18860  0.74788  Biso   1.000  C
  C96      1.0000 0.38349  0.68860  0.75212  Biso   1.000  C
  H137     1.0000 0.33850  0.84970  0.23240  Biso   1.000  H
  H138     1.0000 0.66150  0.34970  0.26760  Biso   1.000  H
  H139     1.0000 0.66150  0.15030  0.76760  Biso   1.000  H
  H140     1.0000 0.33850  0.65030  0.73240  Biso   1.000  H
  H141     1.0000 0.41670  0.83180  0.22210  Biso   1.000  H
  H142     1.0000 0.58330  0.33180  0.27790  Biso   1.000  H
  H143     1.0000 0.58330  0.16820  0.77790  Biso   1.000  H
  H144     1.0000 0.41670  0.66820  0.72210  Biso   1.000  H
  C97      1.0000 0.40861  0.87540  0.32061  Biso   1.000  C
  C98      1.0000 0.59139  0.37540  0.17939  Biso   1.000  C
  C99      1.0000 0.59139  0.12460  0.67939  Biso   1.000  C
  C100     1.0000 0.40861  0.62460  0.82061  Biso   1.000  C
  C101     1.0000 0.43603  0.58440  0.25580  Biso   1.000  C
  C102     1.0000 0.56397  0.08440  0.24420  Biso   1.000  C
  C103     1.0000 0.56397  0.41560  0.74420  Biso   1.000  C
  C104     1.0000 0.43603  0.91560  0.75580  Biso   1.000  C
  H145     1.0000 0.47580  0.63800  0.24870  Biso   1.000  H
  H146     1.0000 0.52420  0.13800  0.25130  Biso   1.000  H
  H147     1.0000 0.52420  0.36200  0.75130  Biso   1.000  H
  H148     1.0000 0.47580  0.86200  0.74870  Biso   1.000  H
  H149     1.0000 0.42600  0.52370  0.21770  Biso   1.000  H
  H150     1.0000 0.57400  0.02370  0.28230  Biso   1.000  H
  H151     1.0000 0.57400  0.47630  0.78230  Biso   1.000  H
  H152     1.0000 0.42600  0.97630  0.71770  Biso   1.000  H
  C105     1.0000 0.45707  0.50530  0.32010  Biso   1.000  C
  C106     1.0000 0.54293  0.00530  0.17990  Biso   1.000  C
  C107     1.0000 0.54293  0.49470  0.67990  Biso   1.000  C
  C108     1.0000 0.45707  0.99470  0.82010  Biso   1.000  C
  C109     1.0000 0.17750  0.23910  0.28548  Biso   1.000  C
  C110     1.0000 0.82250  0.73910  0.21452  Biso   1.000  C
  C111     1.0000 0.82250  0.76090  0.71452  Biso   1.000  C
  C112     1.0000 0.17750  0.26090  0.78548  Biso   1.000  C
  H153     1.0000 0.16970  0.16000  0.25780  Biso   1.000  H
  H154     1.0000 0.83030  0.66000  0.24220  Biso   1.000  H
  H155     1.0000 0.83030  0.84000  0.74220  Biso   1.000  H
  H156     1.0000 0.16970  0.34000  0.75780  Biso   1.000  H
  H157     1.0000 0.13820  0.29820  0.27130  Biso   1.000  H
  H158     1.0000 0.86180  0.79820  0.22870  Biso   1.000  H
  H159     1.0000 0.86180  0.70180  0.72870  Biso   1.000  H
  H160     1.0000 0.13820  0.20180  0.77130  Biso   1.000  H
  C113     1.0000 0.17995  0.20280  0.35961  Biso   1.000  C
  C114     1.0000 0.82005  0.70280  0.14039  Biso   1.000  C
  C115     1.0000 0.82005  0.79720  0.64039  Biso   1.000  C
  C116     1.0000 0.17995  0.29720  0.85961  Biso   1.000  C
  C117     1.0000 0.30394  0.22070  0.27805  Biso   1.000  C
  C118     1.0000 0.69606  0.72070  0.22195  Biso   1.000  C
  C119     1.0000 0.69606  0.77930  0.72195  Biso   1.000  C
  C120     1.0000 0.30394  0.27930  0.77805  Biso   1.000  C
  H161     1.0000 0.29540  0.13720  0.29900  Biso   1.000  H
  H162     1.0000 0.70460  0.63720  0.20100  Biso   1.000  H
  H163     1.0000 0.70460  0.86280  0.70100  Biso   1.000  H
  H164     1.0000 0.29540  0.36280  0.79900  Biso   1.000  H
  H165     1.0000 0.34240  0.26390  0.30760  Biso   1.000  H
  H166     1.0000 0.65760  0.76390  0.19240  Biso   1.000  H
  H167     1.0000 0.65760  0.73610  0.69240  Biso   1.000  H
  H168     1.0000 0.34240  0.23610  0.80760  Biso   1.000  H
  C121     1.0000 0.32630  0.19360  0.21061  Biso   1.000  C
  C122     1.0000 0.67370  0.69360  0.28939  Biso   1.000  C
  C123     1.0000 0.67370  0.80640  0.78939  Biso   1.000  C
  C124     1.0000 0.32630  0.30640  0.71061  Biso   1.000  C
  Cu1      1.0000 0.27725  0.26884  0.52988  Biso   1.000  Cu
  Cu2      1.0000 0.72275  0.76884  0.97012  Biso   1.000  Cu
  Cu3      1.0000 0.72275  0.73116  0.47012  Biso   1.000  Cu
  Cu4      1.0000 0.27725  0.23116  0.02988  Biso   1.000  Cu
  H169     1.0000 0.20780  0.40700  0.58140  Biso   1.000  H
  H170     1.0000 0.79220  0.90700  0.91860  Biso   1.000  H
  H171     1.0000 0.79220  0.59300  0.41860  Biso   1.000  H
  H172     1.0000 0.20780  0.09300  0.08140  Biso   1.000  H
  H173     1.0000 0.19590  0.10400  0.50090  Biso   1.000  H
  H174     1.0000 0.80410  0.60400  0.99910  Biso   1.000  H
  H175     1.0000 0.80410  0.89600  0.49910  Biso   1.000  H
  H176     1.0000 0.19590  0.39600  0.00090  Biso   1.000  H
  N1       1.0000 0.19669  0.38930  0.54002  Biso   1.000  N
  N2       1.0000 0.80331  0.88930  0.95998  Biso   1.000  N
  N3       1.0000 0.80331  0.61070  0.45998  Biso   1.000  N
  N4       1.0000 0.19669  0.11070  0.04002  Biso   1.000  N
  N5       1.0000 0.34061  0.41860  0.50904  Biso   1.000  N
  N6       1.0000 0.65939  0.91860  0.99096  Biso   1.000  N
  N7       1.0000 0.65939  0.58140  0.49096  Biso   1.000  N
  N8       1.0000 0.34061  0.08140  0.00904  Biso   1.000  N
  N9       1.0000 0.21032  0.12060  0.53822  Biso   1.000  N
  N10      1.0000 0.78968  0.62060  0.96178  Biso   1.000  N
  N11      1.0000 0.78968  0.87940  0.46178  Biso   1.000  N
  N12      1.0000 0.21032  0.37940  0.03822  Biso   1.000  N
  N13      1.0000 0.35966  0.14810  0.52666  Biso   1.000  N
  N14      1.0000 0.64034  0.64810  0.97334  Biso   1.000  N
  N15      1.0000 0.64034  0.85190  0.47334  Biso   1.000  N
  N16      1.0000 0.35966  0.35190  0.02666  Biso   1.000  N
  N17      1.0000 0.30680  0.95650  0.55675  Biso   1.000  N
  N18      1.0000 0.69320  0.45650  0.94325  Biso   1.000  N
  N19      1.0000 0.69320  0.04350  0.44325  Biso   1.000  N
  N20      1.0000 0.30680  0.54350  0.05675  Biso   1.000  N
  N21      1.0000 0.25395  0.57940  0.49269  Biso   1.000  N
  N22      1.0000 0.74605  0.07940  0.00731  Biso   1.000  N
  N23      1.0000 0.74605  0.42060  0.50731  Biso   1.000  N
  N24      1.0000 0.25395  0.92060  0.99269  Biso   1.000  N
  N25      1.0000 0.18904  0.50540  0.27359  Biso   1.000  N
  N26      1.0000 0.81096  0.00540  0.22641  Biso   1.000  N
  N27      1.0000 0.81096  0.49460  0.72641  Biso   1.000  N
  N28      1.0000 0.18904  0.99460  0.77359  Biso   1.000  N
  N29      1.0000 0.25842  0.69670  0.26183  Biso   1.000  N
  N30      1.0000 0.74158  0.19670  0.23817  Biso   1.000  N
  N31      1.0000 0.74158  0.30330  0.73817  Biso   1.000  N
  N32      1.0000 0.25842  0.80330  0.76183  Biso   1.000  N
  N33      1.0000 0.31045  0.48310  0.26429  Biso   1.000  N
  N34      1.0000 0.68955  0.98310  0.23571  Biso   1.000  N
  N35      1.0000 0.68955  0.51690  0.73571  Biso   1.000  N
  N36      1.0000 0.31045  0.01690  0.76429  Biso   1.000  N
  N37      1.0000 0.24168  0.30170  0.27413  Biso   1.000  N
  N38      1.0000 0.75832  0.80170  0.22587  Biso   1.000  N
  N39      1.0000 0.75832  0.69830  0.72587  Biso   1.000  N
  N40      1.0000 0.24168  0.19830  0.77413  Biso   1.000  N
  N41      1.0000 0.14241  0.71500  0.27002  Biso   1.000  N
  N42      1.0000 0.85759  0.21500  0.22998  Biso   1.000  N
  N43      1.0000 0.85759  0.28500  0.72998  Biso   1.000  N
  N44      1.0000 0.14241  0.78500  0.77002  Biso   1.000  N
  N45      1.0000 0.37561  0.66970  0.25503  Biso   1.000  N
  N46      1.0000 0.62439  0.16970  0.24497  Biso   1.000  N
  N47      1.0000 0.62439  0.33030  0.74497  Biso   1.000  N
  N48      1.0000 0.37561  0.83030  0.75503  Biso   1.000  N
  O1       1.0000 0.96481  0.59310  0.22150  Biso   1.000  O
  O2       1.0000 0.03519  0.09310  0.27850  Biso   1.000  O
  O3       1.0000 0.03519  0.40690  0.77850  Biso   1.000  O
  O4       1.0000 0.96481  0.90690  0.72150  Biso   1.000  O
  O5       1.0000 0.03797  0.67840  0.15857  Biso   1.000  O
  O6       1.0000 0.96203  0.17840  0.34143  Biso   1.000  O
  O7       1.0000 0.96203  0.32160  0.84143  Biso   1.000  O
  O8       1.0000 0.03797  0.82160  0.65857  Biso   1.000  O
  O9       1.0000 0.14026  0.82510  0.13956  Biso   1.000  O
  O10      1.0000 0.85974  0.32510  0.36044  Biso   1.000  O
  O11      1.0000 0.85974  0.17490  0.86044  Biso   1.000  O
  O12      1.0000 0.14026  0.67490  0.63956  Biso   1.000  O
  H177     1.0000 0.11070  0.77470  0.15020  Biso   1.000  H
  H178     1.0000 0.88930  0.27470  0.34980  Biso   1.000  H
  H179     1.0000 0.88930  0.22530  0.84980  Biso   1.000  H
  H180     1.0000 0.11070  0.72530  0.65020  Biso   1.000  H
  O13      1.0000 0.20607  0.98680  0.18652  Biso   1.000  O
  O14      1.0000 0.79393  0.48680  0.31348  Biso   1.000  O
  O15      1.0000 0.79393  0.01320  0.81348  Biso   1.000  O
  O16      1.0000 0.20607  0.51320  0.68652  Biso   1.000  O
  O17      1.0000 0.41619  0.00000  0.32051  Biso   1.000  O
  O18      1.0000 0.58381  0.50000  0.17949  Biso   1.000  O
  O19      1.0000 0.58381  0.00000  0.67949  Biso   1.000  O
  O20      1.0000 0.41619  0.50000  0.82051  Biso   1.000  O
  O21      1.0000 0.42178  0.80710  0.37274  Biso   1.000  O
  O22      1.0000 0.57822  0.30710  0.12726  Biso   1.000  O
  O23      1.0000 0.57822  0.19290  0.62726  Biso   1.000  O
  O24      1.0000 0.42178  0.69290  0.87274  Biso   1.000  O
  O25      1.0000 0.45087  0.56260  0.37742  Biso   1.000  O
  O26      1.0000 0.54913  0.06260  0.12258  Biso   1.000  O
  O27      1.0000 0.54913  0.43740  0.62258  Biso   1.000  O
  O28      1.0000 0.45087  0.93740  0.87742  Biso   1.000  O
  H181     1.0000 0.43560  0.63760  0.36980  Biso   1.000  H
  H182     1.0000 0.56440  0.13760  0.13020  Biso   1.000  H
  H183     1.0000 0.56440  0.36240  0.63020  Biso   1.000  H
  H184     1.0000 0.43560  0.86240  0.86980  Biso   1.000  H
  O29      1.0000 0.48025  0.39520  0.31858  Biso   1.000  O
  O30      1.0000 0.51975  0.89520  0.18142  Biso   1.000  O
  O31      1.0000 0.51975  0.60480  0.68142  Biso   1.000  O
  O32      1.0000 0.48025  0.10480  0.81858  Biso   1.000  O
  O33      1.0000 0.29492  0.23670  0.15712  Biso   1.000  O
  O34      1.0000 0.70508  0.73670  0.34288  Biso   1.000  O
  O35      1.0000 0.70508  0.76330  0.84288  Biso   1.000  O
  O36      1.0000 0.29492  0.26330  0.65712  Biso   1.000  O
  O37      1.0000 0.38245  0.12230  0.21360  Biso   1.000  O
  O38      1.0000 0.61755  0.62230  0.28640  Biso   1.000  O
  O39      1.0000 0.61755  0.87770  0.78640  Biso   1.000  O
  O40      1.0000 0.38245  0.37770  0.71360  Biso   1.000  O
  H185     1.0000 0.39210  0.08850  0.25140  Biso   1.000  H
  H186     1.0000 0.60790  0.58850  0.24860  Biso   1.000  H
  H187     1.0000 0.60790  0.91150  0.74860  Biso   1.000  H
  H188     1.0000 0.39210  0.41150  0.75140  Biso   1.000  H
  O41      1.0000 0.22769  0.24260  0.40295  Biso   1.000  O
  O42      1.0000 0.77231  0.74260  0.09705  Biso   1.000  O
  O43      1.0000 0.77231  0.75740  0.59705  Biso   1.000  O
  O44      1.0000 0.22769  0.25740  0.90295  Biso   1.000  O
  O45      1.0000 0.13099  0.12860  0.37501  Biso   1.000  O
  O46      1.0000 0.86901  0.62860  0.12499  Biso   1.000  O
  O47      1.0000 0.86901  0.87140  0.62499  Biso   1.000  O
  O48      1.0000 0.13099  0.37140  0.87501  Biso   1.000  O
  H189     1.0000 0.10060  0.11800  0.34130  Biso   1.000  H
  H190     1.0000 0.89940  0.61800  0.15870  Biso   1.000  H
  H191     1.0000 0.89940  0.88200  0.65870  Biso   1.000  H
  H192     1.0000 0.10060  0.38200  0.84130  Biso   1.000  H
  O49      1.0000 0.50790  0.18140  0.40460  Biso   1.000  O
  O50      1.0000 0.49210  0.68140  0.09540  Biso   1.000  O
  O51      1.0000 0.49210  0.81860  0.59540  Biso   1.000  O
  O52      1.0000 0.50790  0.31860  0.90460  Biso   1.000  O
