data_image0
_cell_length_a       6.3112
_cell_length_b       13.249
_cell_length_c       14.06
_cell_angle_alpha    100.88
_cell_angle_beta     90.48
_cell_angle_gamma    97.54

_symmetry_space_group_name_H-M    "P 1"
_symmetry_int_tables_number       1

loop_
  _symmetry_equiv_pos_as_xyz
  'x, y, z'

loop_
  _atom_site_label
  _atom_site_occupancy
  _atom_site_fract_x
  _atom_site_fract_y
  _atom_site_fract_z
  _atom_site_thermal_displace_type
  _atom_site_B_iso_or_equiv
  _atom_site_type_symbol
  Se1      1.0000 0.18353  0.43880  0.40689  Biso   1.000  Se
  Se2      1.0000 0.81647  0.56120  0.59311  Biso   1.000  Se
  Se3      1.0000 0.64628  0.05674  0.40665  Biso   1.000  Se
  Se4      1.0000 0.35372  0.94326  0.59335  Biso   1.000  Se
  Se5      1.0000 0.48540  0.28203  0.58976  Biso   1.000  Se
  Se6      1.0000 0.51460  0.71797  0.41024  Biso   1.000  Se
  Cu1      1.0000 0.43821  0.33621  0.22510  Biso   1.000  Cu
  Cu2      1.0000 0.56179  0.66379  0.77490  Biso   1.000  Cu
  V1       1.0000 0.12609  0.18275  0.41270  Biso   1.000  V
  V2       1.0000 0.87391  0.81725  0.58730  Biso   1.000  V
  V3       1.0000 0.97530  0.64067  0.38195  Biso   1.000  V
  V4       1.0000 0.02470  0.35933  0.61805  Biso   1.000  V
  V5       1.0000 0.95743  0.08831  0.60069  Biso   1.000  V
  V6       1.0000 0.04257  0.91169  0.39931  Biso   1.000  V
  O1       1.0000 0.21260  0.16842  0.30512  Biso   1.000  O
  O2       1.0000 0.78740  0.83158  0.69488  Biso   1.000  O
  O3       1.0000 0.00770  0.62866  0.26752  Biso   1.000  O
  O4       1.0000 0.99230  0.37134  0.73248  Biso   1.000  O
  O5       1.0000 0.72300  0.34785  0.57252  Biso   1.000  O
  O6       1.0000 0.27700  0.65215  0.42748  Biso   1.000  O
  O7       1.0000 0.68360  0.07958  0.52915  Biso   1.000  O
  O8       1.0000 0.31640  0.92042  0.47085  Biso   1.000  O
  O9       1.0000 0.41460  0.23508  0.46966  Biso   1.000  O
  O10      1.0000 0.58540  0.76492  0.53034  Biso   1.000  O
  O11      1.0000 0.20670  0.39750  0.28767  Biso   1.000  O
  O12      1.0000 0.79330  0.60250  0.71233  Biso   1.000  O
  O13      1.0000 0.04330  0.21253  0.57836  Biso   1.000  O
  O14      1.0000 0.95670  0.78747  0.42164  Biso   1.000  O
  O15      1.0000 0.06410  0.32834  0.44431  Biso   1.000  O
  O16      1.0000 0.93590  0.67166  0.55569  Biso   1.000  O
  O17      1.0000 0.10550  0.06204  0.44465  Biso   1.000  O
  O18      1.0000 0.89450  0.93796  0.55535  Biso   1.000  O
  O19      1.0000 0.86350  0.10760  0.70643  Biso   1.000  O
  O20      1.0000 0.13650  0.89240  0.29357  Biso   1.000  O
  O21      1.0000 0.34200  0.38352  0.61513  Biso   1.000  O
  O22      1.0000 0.65800  0.61648  0.38487  Biso   1.000  O
  O23      1.0000 0.95440  0.49441  0.39954  Biso   1.000  O
  O24      1.0000 0.04560  0.50559  0.60046  Biso   1.000  O
  O25      1.0000 0.81910  0.15494  0.37702  Biso   1.000  O
  O26      1.0000 0.18090  0.84506  0.62298  Biso   1.000  O
  O27      1.0000 0.76420  0.94761  0.36699  Biso   1.000  O
  O28      1.0000 0.23580  0.05239  0.63301  Biso   1.000  O
  O29      1.0000 0.63930  0.47680  0.18030  Biso   1.000  O
  O30      1.0000 0.36070  0.52320  0.81970  Biso   1.000  O
  O31      1.0000 0.61390  0.34906  0.34315  Biso   1.000  O
  O32      1.0000 0.38610  0.65094  0.65685  Biso   1.000  O
  O33      1.0000 0.37800  0.62150  0.16550  Biso   1.000  O
  O34      1.0000 0.62200  0.37850  0.83450  Biso   1.000  O
  N1       1.0000 0.60460  0.23350  0.14460  Biso   1.000  N
  N2       1.0000 0.39540  0.76650  0.85540  Biso   1.000  N
  N3       1.0000 0.27040  0.31740  0.09970  Biso   1.000  N
  N4       1.0000 0.72960  0.68260  0.90030  Biso   1.000  N
  C1       1.0000 0.77390  0.19460  0.17090  Biso   1.000  C
  C2       1.0000 0.22610  0.80540  0.82910  Biso   1.000  C
  H1       1.0000 0.83080  0.21650  0.23380  Biso   1.000  H
  H2       1.0000 0.16920  0.78350  0.76620  Biso   1.000  H
  C3       1.0000 0.86970  0.12120  0.10630  Biso   1.000  C
  C4       1.0000 0.13030  0.87880  0.89370  Biso   1.000  C
  H3       1.0000 0.98610  0.09360  0.12690  Biso   1.000  H
  H4       1.0000 0.01390  0.90640  0.87310  Biso   1.000  H
  C5       1.0000 0.79130  0.09050  0.01310  Biso   1.000  C
  C6       1.0000 0.20870  0.90950  0.98690  Biso   1.000  C
  H5       1.0000 0.85500  0.04220  0.96990  Biso   1.000  H
  H6       1.0000 0.14500  0.95780  0.03010  Biso   1.000  H
  C7       1.0000 0.61400  0.13180  0.98240  Biso   1.000  C
  C8       1.0000 0.38600  0.86820  0.01760  Biso   1.000  C
  C9       1.0000 0.52630  0.20290  0.05230  Biso   1.000  C
  C10      1.0000 0.47370  0.79710  0.94770  Biso   1.000  C
  C11      1.0000 0.34700  0.24910  0.02710  Biso   1.000  C
  C12      1.0000 0.65300  0.75090  0.97290  Biso   1.000  C
  C13      1.0000 0.25850  0.22460  0.93290  Biso   1.000  C
  C14      1.0000 0.74150  0.77540  0.06710  Biso   1.000  C
  C15      1.0000 0.08570  0.27590  0.91370  Biso   1.000  C
  C16      1.0000 0.91430  0.72410  0.08630  Biso   1.000  C
  H7       1.0000 0.02150  0.26250  0.85200  Biso   1.000  H
  H8       1.0000 0.97850  0.73750  0.14800  Biso   1.000  H
  C17      1.0000 0.01280  0.34540  0.98610  Biso   1.000  C
  C18      1.0000 0.98720  0.65460  0.01390  Biso   1.000  C
  H9       1.0000 0.90050  0.38050  0.97370  Biso   1.000  H
  H10      1.0000 0.09950  0.61950  0.02630  Biso   1.000  H
  C19      1.0000 0.10740  0.36370  0.07920  Biso   1.000  C
  C20      1.0000 0.89260  0.63630  0.92080  Biso   1.000  C
  H11      1.0000 0.05390  0.41010  0.12830  Biso   1.000  H
  H12      1.0000 0.94610  0.58990  0.87170  Biso   1.000  H
  C21      1.0000 0.52250  0.10720  0.88570  Biso   1.000  C
  C22      1.0000 0.47750  0.89280  0.11430  Biso   1.000  C
  H13      1.0000 0.58050  0.06050  0.83860  Biso   1.000  H
  H14      1.0000 0.41950  0.93950  0.16140  Biso   1.000  H
  C23      1.0000 0.35240  0.15150  0.86230  Biso   1.000  C
  C24      1.0000 0.64760  0.84850  0.13770  Biso   1.000  C
  H15      1.0000 0.29510  0.13420  0.79930  Biso   1.000  H
  H16      1.0000 0.70490  0.86580  0.20070  Biso   1.000  H
