data_image0
_cell_length_a       31.769
_cell_length_b       10.6641
_cell_length_c       14.846
_cell_angle_alpha    90
_cell_angle_beta     115.363
_cell_angle_gamma    90

_symmetry_space_group_name_H-M    "P 1"
_symmetry_int_tables_number       1

loop_
  _symmetry_equiv_pos_as_xyz
  'x, y, z'

loop_
  _atom_site_label
  _atom_site_occupancy
  _atom_site_fract_x
  _atom_site_fract_y
  _atom_site_fract_z
  _atom_site_thermal_displace_type
  _atom_site_B_iso_or_equiv
  _atom_site_type_symbol
  Cu1      1.0000 0.83015  0.88203  0.12456  Biso   1.000  Cu
  Cu2      1.0000 0.16985  0.88203  0.37544  Biso   1.000  Cu
  Cu3      1.0000 0.33016  0.38203  0.12456  Biso   1.000  Cu
  Cu4      1.0000 0.66985  0.38203  0.37544  Biso   1.000  Cu
  Cu5      1.0000 0.16985  0.11797  0.87544  Biso   1.000  Cu
  Cu6      1.0000 0.83015  0.11797  0.62456  Biso   1.000  Cu
  Cu7      1.0000 0.66985  0.61797  0.87544  Biso   1.000  Cu
  Cu8      1.0000 0.33016  0.61797  0.62456  Biso   1.000  Cu
  C1       1.0000 0.85241  0.86730  0.35390  Biso   1.000  C
  C2       1.0000 0.14759  0.86730  0.14610  Biso   1.000  C
  C3       1.0000 0.35241  0.36730  0.35390  Biso   1.000  C
  C4       1.0000 0.64759  0.36730  0.14610  Biso   1.000  C
  C5       1.0000 0.14759  0.13270  0.64610  Biso   1.000  C
  C6       1.0000 0.85241  0.13270  0.85390  Biso   1.000  C
  C7       1.0000 0.64759  0.63270  0.64610  Biso   1.000  C
  C8       1.0000 0.35241  0.63270  0.85390  Biso   1.000  C
  C9       1.0000 0.84087  0.73190  0.36490  Biso   1.000  C
  C10      1.0000 0.15913  0.73190  0.13510  Biso   1.000  C
  C11      1.0000 0.34087  0.23190  0.36490  Biso   1.000  C
  C12      1.0000 0.65913  0.23190  0.13510  Biso   1.000  C
  C13      1.0000 0.15913  0.26810  0.63510  Biso   1.000  C
  C14      1.0000 0.84087  0.26810  0.86490  Biso   1.000  C
  C15      1.0000 0.65913  0.76810  0.63510  Biso   1.000  C
  C16      1.0000 0.34087  0.76810  0.86490  Biso   1.000  C
  C17      1.0000 0.86921  0.63610  0.36040  Biso   1.000  C
  C18      1.0000 0.13079  0.63610  0.13960  Biso   1.000  C
  C19      1.0000 0.36921  0.13610  0.36040  Biso   1.000  C
  C20      1.0000 0.63079  0.13610  0.13960  Biso   1.000  C
  C21      1.0000 0.13079  0.36390  0.63960  Biso   1.000  C
  C22      1.0000 0.86921  0.36390  0.86040  Biso   1.000  C
  C23      1.0000 0.63079  0.86390  0.63960  Biso   1.000  C
  C24      1.0000 0.36921  0.86390  0.86040  Biso   1.000  C
  H1       1.0000 0.89590  0.65470  0.35200  Biso   1.000  H
  H2       1.0000 0.10410  0.65470  0.14800  Biso   1.000  H
  H3       1.0000 0.39590  0.15470  0.35200  Biso   1.000  H
  H4       1.0000 0.60410  0.15470  0.14800  Biso   1.000  H
  H5       1.0000 0.10410  0.34530  0.64800  Biso   1.000  H
  H6       1.0000 0.89590  0.34530  0.85200  Biso   1.000  H
  H7       1.0000 0.60410  0.84530  0.64800  Biso   1.000  H
  H8       1.0000 0.39590  0.84530  0.85200  Biso   1.000  H
  C25      1.0000 0.85777  0.51120  0.36850  Biso   1.000  C
  C26      1.0000 0.14223  0.51120  0.13150  Biso   1.000  C
  C27      1.0000 0.35777  0.01120  0.36850  Biso   1.000  C
  C28      1.0000 0.64223  0.01120  0.13150  Biso   1.000  C
  C29      1.0000 0.14223  0.48880  0.63150  Biso   1.000  C
  C30      1.0000 0.85777  0.48880  0.86850  Biso   1.000  C
  C31      1.0000 0.64223  0.98880  0.63150  Biso   1.000  C
  C32      1.0000 0.35777  0.98880  0.86850  Biso   1.000  C
  C33      1.0000 0.81622  0.48440  0.37430  Biso   1.000  C
  C34      1.0000 0.18378  0.48440  0.12570  Biso   1.000  C
  C35      1.0000 0.31622  0.98440  0.37430  Biso   1.000  C
  C36      1.0000 0.68378  0.98440  0.12570  Biso   1.000  C
  C37      1.0000 0.18378  0.51560  0.62570  Biso   1.000  C
  C38      1.0000 0.81622  0.51560  0.87430  Biso   1.000  C
  C39      1.0000 0.68378  0.01560  0.62570  Biso   1.000  C
  C40      1.0000 0.31622  0.01560  0.87430  Biso   1.000  C
  H9       1.0000 0.80790  0.40150  0.37740  Biso   1.000  H
  H10      1.0000 0.19210  0.40150  0.12260  Biso   1.000  H
  H11      1.0000 0.30790  0.90150  0.37740  Biso   1.000  H
  H12      1.0000 0.69210  0.90150  0.12260  Biso   1.000  H
  H13      1.0000 0.19210  0.59850  0.62260  Biso   1.000  H
  H14      1.0000 0.80790  0.59850  0.87740  Biso   1.000  H
  H15      1.0000 0.69210  0.09850  0.62260  Biso   1.000  H
  H16      1.0000 0.30790  0.09850  0.87740  Biso   1.000  H
  C41      1.0000 0.78714  0.58070  0.37550  Biso   1.000  C
  C42      1.0000 0.21286  0.58070  0.12450  Biso   1.000  C
  C43      1.0000 0.28714  0.08070  0.37550  Biso   1.000  C
  C44      1.0000 0.71286  0.08070  0.12450  Biso   1.000  C
  C45      1.0000 0.21286  0.41930  0.62450  Biso   1.000  C
  C46      1.0000 0.78714  0.41930  0.87550  Biso   1.000  C
  C47      1.0000 0.71286  0.91930  0.62450  Biso   1.000  C
  C48      1.0000 0.28714  0.91930  0.87550  Biso   1.000  C
  C49      1.0000 0.80025  0.70440  0.37360  Biso   1.000  C
  C50      1.0000 0.19975  0.70440  0.12640  Biso   1.000  C
  C51      1.0000 0.30025  0.20440  0.37360  Biso   1.000  C
  C52      1.0000 0.69975  0.20440  0.12640  Biso   1.000  C
  C53      1.0000 0.19975  0.29560  0.62640  Biso   1.000  C
  C54      1.0000 0.80025  0.29560  0.87360  Biso   1.000  C
  C55      1.0000 0.69975  0.79560  0.62640  Biso   1.000  C
  C56      1.0000 0.30025  0.79560  0.87360  Biso   1.000  C
  H17      1.0000 0.78160  0.76910  0.37820  Biso   1.000  H
  H18      1.0000 0.21840  0.76910  0.12180  Biso   1.000  H
  H19      1.0000 0.28160  0.26910  0.37820  Biso   1.000  H
  H20      1.0000 0.71840  0.26910  0.12180  Biso   1.000  H
  H21      1.0000 0.21840  0.23090  0.62180  Biso   1.000  H
  H22      1.0000 0.78160  0.23090  0.87820  Biso   1.000  H
  H23      1.0000 0.71840  0.73090  0.62180  Biso   1.000  H
  H24      1.0000 0.28160  0.73090  0.87820  Biso   1.000  H
  C57      1.0000 0.74041  0.55490  0.37570  Biso   1.000  C
  C58      1.0000 0.25959  0.55490  0.12430  Biso   1.000  C
  C59      1.0000 0.24041  0.05490  0.37570  Biso   1.000  C
  C60      1.0000 0.75959  0.05490  0.12430  Biso   1.000  C
  C61      1.0000 0.25959  0.44510  0.62430  Biso   1.000  C
  C62      1.0000 0.74041  0.44510  0.87570  Biso   1.000  C
  C63      1.0000 0.75959  0.94510  0.62430  Biso   1.000  C
  C64      1.0000 0.24041  0.94510  0.87570  Biso   1.000  C
  C65      1.0000 0.92990  0.41240  0.37680  Biso   1.000  C
  C66      1.0000 0.07010  0.41240  0.12320  Biso   1.000  C
  C67      1.0000 0.42990  0.91240  0.37680  Biso   1.000  C
  C68      1.0000 0.57010  0.91240  0.12320  Biso   1.000  C
  C69      1.0000 0.07010  0.58760  0.62320  Biso   1.000  C
  C70      1.0000 0.92990  0.58760  0.87680  Biso   1.000  C
  C71      1.0000 0.57010  0.08760  0.62320  Biso   1.000  C
  C72      1.0000 0.42990  0.08760  0.87680  Biso   1.000  C
  C73      1.0000 0.95283  0.28830  0.37910  Biso   1.000  C
  C74      1.0000 0.04717  0.28830  0.12090  Biso   1.000  C
  C75      1.0000 0.45283  0.78830  0.37910  Biso   1.000  C
  C76      1.0000 0.54717  0.78830  0.12090  Biso   1.000  C
  C77      1.0000 0.04717  0.71170  0.62090  Biso   1.000  C
  C78      1.0000 0.95283  0.71170  0.87910  Biso   1.000  C
  C79      1.0000 0.54717  0.21170  0.62090  Biso   1.000  C
  C80      1.0000 0.45283  0.21170  0.87910  Biso   1.000  C
  C81      1.0000 0.00099  0.28190  0.43280  Biso   1.000  C
  C82      1.0000 0.99901  0.28190  0.06720  Biso   1.000  C
  C83      1.0000 0.50099  0.78190  0.43280  Biso   1.000  C
  C84      1.0000 0.49901  0.78190  0.06720  Biso   1.000  C
  C85      1.0000 0.99901  0.71810  0.56720  Biso   1.000  C
  C86      1.0000 0.00099  0.71810  0.93280  Biso   1.000  C
  C87      1.0000 0.49901  0.21810  0.56720  Biso   1.000  C
  C88      1.0000 0.50099  0.21810  0.93280  Biso   1.000  C
  H25      1.0000 0.01790  0.35140  0.46750  Biso   1.000  H
  H26      1.0000 0.98210  0.35140  0.03250  Biso   1.000  H
  H27      1.0000 0.51790  0.85140  0.46750  Biso   1.000  H
  H28      1.0000 0.48210  0.85140  0.03250  Biso   1.000  H
  H29      1.0000 0.98210  0.64860  0.53250  Biso   1.000  H
  H30      1.0000 0.01790  0.64860  0.96750  Biso   1.000  H
  H31      1.0000 0.48210  0.14860  0.53250  Biso   1.000  H
  H32      1.0000 0.51790  0.14860  0.96750  Biso   1.000  H
  C89      1.0000 0.02318  0.17080  0.43370  Biso   1.000  C
  C90      1.0000 0.97682  0.17080  0.06630  Biso   1.000  C
  C91      1.0000 0.52318  0.67080  0.43370  Biso   1.000  C
  C92      1.0000 0.47682  0.67080  0.06630  Biso   1.000  C
  C93      1.0000 0.97682  0.82920  0.56630  Biso   1.000  C
  C94      1.0000 0.02318  0.82920  0.93370  Biso   1.000  C
  C95      1.0000 0.47682  0.32920  0.56630  Biso   1.000  C
  C96      1.0000 0.52318  0.32920  0.93370  Biso   1.000  C
  H33      1.0000 0.05540  0.16790  0.47010  Biso   1.000  H
  H34      1.0000 0.94460  0.16790  0.02990  Biso   1.000  H
  H35      1.0000 0.55540  0.66790  0.47010  Biso   1.000  H
  H36      1.0000 0.44460  0.66790  0.02990  Biso   1.000  H
  H37      1.0000 0.94460  0.83210  0.52990  Biso   1.000  H
  H38      1.0000 0.05540  0.83210  0.97010  Biso   1.000  H
  H39      1.0000 0.44460  0.33210  0.52990  Biso   1.000  H
  H40      1.0000 0.55540  0.33210  0.97010  Biso   1.000  H
  C97      1.0000 0.95604  0.07580  0.33730  Biso   1.000  C
  C98      1.0000 0.04396  0.07580  0.16270  Biso   1.000  C
  C99      1.0000 0.45604  0.57580  0.33730  Biso   1.000  C
  C100     1.0000 0.54396  0.57580  0.16270  Biso   1.000  C
  C101     1.0000 0.04396  0.92420  0.66270  Biso   1.000  C
  C102     1.0000 0.95604  0.92420  0.83730  Biso   1.000  C
  C103     1.0000 0.54396  0.42420  0.66270  Biso   1.000  C
  C104     1.0000 0.45604  0.42420  0.83730  Biso   1.000  C
  H41      1.0000 0.94010  0.00450  0.30400  Biso   1.000  H
  H42      1.0000 0.05990  0.00450  0.19600  Biso   1.000  H
  H43      1.0000 0.44010  0.50450  0.30400  Biso   1.000  H
  H44      1.0000 0.55990  0.50450  0.19600  Biso   1.000  H
  H45      1.0000 0.05990  0.99550  0.69600  Biso   1.000  H
  H46      1.0000 0.94010  0.99550  0.80400  Biso   1.000  H
  H47      1.0000 0.55990  0.49550  0.69600  Biso   1.000  H
  H48      1.0000 0.44010  0.49550  0.80400  Biso   1.000  H
  C105     1.0000 0.93028  0.18130  0.33170  Biso   1.000  C
  C106     1.0000 0.06972  0.18130  0.16830  Biso   1.000  C
  C107     1.0000 0.43028  0.68130  0.33170  Biso   1.000  C
  C108     1.0000 0.56972  0.68130  0.16830  Biso   1.000  C
  C109     1.0000 0.06972  0.81870  0.66830  Biso   1.000  C
  C110     1.0000 0.93028  0.81870  0.83170  Biso   1.000  C
  C111     1.0000 0.56972  0.31870  0.66830  Biso   1.000  C
  C112     1.0000 0.43028  0.31870  0.83170  Biso   1.000  C
  H49      1.0000 0.89800  0.18020  0.29620  Biso   1.000  H
  H50      1.0000 0.10200  0.18020  0.20380  Biso   1.000  H
  H51      1.0000 0.39800  0.68020  0.29620  Biso   1.000  H
  H52      1.0000 0.60200  0.68020  0.20380  Biso   1.000  H
  H53      1.0000 0.10200  0.81980  0.70380  Biso   1.000  H
  H54      1.0000 0.89800  0.81980  0.79620  Biso   1.000  H
  H55      1.0000 0.60200  0.31980  0.70380  Biso   1.000  H
  H56      1.0000 0.39800  0.31980  0.79620  Biso   1.000  H
  C113     1.0000 0.92276  0.84900  0.11480  Biso   1.000  C
  C114     1.0000 0.07724  0.84900  0.38520  Biso   1.000  C
  C115     1.0000 0.42276  0.34900  0.11480  Biso   1.000  C
  C116     1.0000 0.57724  0.34900  0.38520  Biso   1.000  C
  C117     1.0000 0.07724  0.15100  0.88520  Biso   1.000  C
  C118     1.0000 0.92276  0.15100  0.61480  Biso   1.000  C
  C119     1.0000 0.57724  0.65100  0.88520  Biso   1.000  C
  C120     1.0000 0.42276  0.65100  0.61480  Biso   1.000  C
  H57      1.0000 0.92480  0.93580  0.11230  Biso   1.000  H
  H58      1.0000 0.07520  0.93580  0.38770  Biso   1.000  H
  H59      1.0000 0.42480  0.43580  0.11230  Biso   1.000  H
  H60      1.0000 0.57520  0.43580  0.38770  Biso   1.000  H
  H61      1.0000 0.07520  0.06420  0.88770  Biso   1.000  H
  H62      1.0000 0.92480  0.06420  0.61230  Biso   1.000  H
  H63      1.0000 0.57520  0.56420  0.88770  Biso   1.000  H
  H64      1.0000 0.42480  0.56420  0.61230  Biso   1.000  H
  C121     1.0000 0.95983  0.77690  0.11830  Biso   1.000  C
  C122     1.0000 0.04017  0.77690  0.38170  Biso   1.000  C
  C123     1.0000 0.45983  0.27690  0.11830  Biso   1.000  C
  C124     1.0000 0.54017  0.27690  0.38170  Biso   1.000  C
  C125     1.0000 0.04017  0.22310  0.88170  Biso   1.000  C
  C126     1.0000 0.95983  0.22310  0.61830  Biso   1.000  C
  C127     1.0000 0.54017  0.72310  0.88170  Biso   1.000  C
  C128     1.0000 0.45983  0.72310  0.61830  Biso   1.000  C
  H65      1.0000 0.98600  0.81560  0.11810  Biso   1.000  H
  H66      1.0000 0.01400  0.81560  0.38190  Biso   1.000  H
  H67      1.0000 0.48600  0.31560  0.11810  Biso   1.000  H
  H68      1.0000 0.51400  0.31560  0.38190  Biso   1.000  H
  H69      1.0000 0.01400  0.18440  0.88190  Biso   1.000  H
  H70      1.0000 0.98600  0.18440  0.61810  Biso   1.000  H
  H71      1.0000 0.51400  0.68440  0.88190  Biso   1.000  H
  H72      1.0000 0.48600  0.68440  0.61810  Biso   1.000  H
  C129     1.0000 0.95786  0.64940  0.12210  Biso   1.000  C
  C130     1.0000 0.04214  0.64940  0.37790  Biso   1.000  C
  C131     1.0000 0.45786  0.14940  0.12210  Biso   1.000  C
  C132     1.0000 0.54214  0.14940  0.37790  Biso   1.000  C
  C133     1.0000 0.04214  0.35060  0.87790  Biso   1.000  C
  C134     1.0000 0.95786  0.35060  0.62210  Biso   1.000  C
  C135     1.0000 0.54214  0.85060  0.87790  Biso   1.000  C
  C136     1.0000 0.45786  0.85060  0.62210  Biso   1.000  C
  H73      1.0000 0.98260  0.60070  0.12450  Biso   1.000  H
  H74      1.0000 0.01740  0.60070  0.37550  Biso   1.000  H
  H75      1.0000 0.48260  0.10070  0.12450  Biso   1.000  H
  H76      1.0000 0.51740  0.10070  0.37550  Biso   1.000  H
  H77      1.0000 0.01740  0.39930  0.87550  Biso   1.000  H
  H78      1.0000 0.98260  0.39930  0.62450  Biso   1.000  H
  H79      1.0000 0.51740  0.89930  0.87550  Biso   1.000  H
  H80      1.0000 0.48260  0.89930  0.62450  Biso   1.000  H
  C137     1.0000 0.91822  0.59290  0.12240  Biso   1.000  C
  C138     1.0000 0.08178  0.59290  0.37760  Biso   1.000  C
  C139     1.0000 0.41822  0.09290  0.12240  Biso   1.000  C
  C140     1.0000 0.58178  0.09290  0.37760  Biso   1.000  C
  C141     1.0000 0.08178  0.40710  0.87760  Biso   1.000  C
  C142     1.0000 0.91822  0.40710  0.62240  Biso   1.000  C
  C143     1.0000 0.58178  0.90710  0.87760  Biso   1.000  C
  C144     1.0000 0.41822  0.90710  0.62240  Biso   1.000  C
  C145     1.0000 0.91160  0.46080  0.12540  Biso   1.000  C
  C146     1.0000 0.08840  0.46080  0.37460  Biso   1.000  C
  C147     1.0000 0.41160  0.96080  0.12540  Biso   1.000  C
  C148     1.0000 0.58840  0.96080  0.37460  Biso   1.000  C
  C149     1.0000 0.08840  0.53920  0.87460  Biso   1.000  C
  C150     1.0000 0.91160  0.53920  0.62540  Biso   1.000  C
  C151     1.0000 0.58840  0.03920  0.87460  Biso   1.000  C
  C152     1.0000 0.41160  0.03920  0.62540  Biso   1.000  C
  H81      1.0000 0.93500  0.40680  0.12790  Biso   1.000  H
  H82      1.0000 0.06500  0.40680  0.37210  Biso   1.000  H
  H83      1.0000 0.43500  0.90680  0.12790  Biso   1.000  H
  H84      1.0000 0.56500  0.90680  0.37210  Biso   1.000  H
  H85      1.0000 0.06500  0.59320  0.87210  Biso   1.000  H
  H86      1.0000 0.93500  0.59320  0.62790  Biso   1.000  H
  H87      1.0000 0.56500  0.09320  0.87210  Biso   1.000  H
  H88      1.0000 0.43500  0.09320  0.62790  Biso   1.000  H
  C153     1.0000 0.87202  0.41200  0.12470  Biso   1.000  C
  C154     1.0000 0.12798  0.41200  0.37530  Biso   1.000  C
  C155     1.0000 0.37202  0.91200  0.12470  Biso   1.000  C
  C156     1.0000 0.62798  0.91200  0.37530  Biso   1.000  C
  C157     1.0000 0.12798  0.58800  0.87530  Biso   1.000  C
  C158     1.0000 0.87202  0.58800  0.62470  Biso   1.000  C
  C159     1.0000 0.62798  0.08800  0.87530  Biso   1.000  C
  C160     1.0000 0.37202  0.08800  0.62470  Biso   1.000  C
  H89      1.0000 0.86900  0.32550  0.12730  Biso   1.000  H
  H90      1.0000 0.13100  0.32550  0.37270  Biso   1.000  H
  H91      1.0000 0.36900  0.82550  0.12730  Biso   1.000  H
  H92      1.0000 0.63100  0.82550  0.37270  Biso   1.000  H
  H93      1.0000 0.13100  0.67450  0.87270  Biso   1.000  H
  H94      1.0000 0.86900  0.67450  0.62730  Biso   1.000  H
  H95      1.0000 0.63100  0.17450  0.87270  Biso   1.000  H
  H96      1.0000 0.36900  0.17450  0.62730  Biso   1.000  H
  C161     1.0000 0.83522  0.49070  0.12020  Biso   1.000  C
  C162     1.0000 0.16478  0.49070  0.37980  Biso   1.000  C
  C163     1.0000 0.33522  0.99070  0.12020  Biso   1.000  C
  C164     1.0000 0.66478  0.99070  0.37980  Biso   1.000  C
  C165     1.0000 0.16478  0.50930  0.87980  Biso   1.000  C
  C166     1.0000 0.83522  0.50930  0.62020  Biso   1.000  C
  C167     1.0000 0.66478  0.00930  0.87980  Biso   1.000  C
  C168     1.0000 0.33522  0.00930  0.62020  Biso   1.000  C
  C169     1.0000 0.79387  0.44880  0.12140  Biso   1.000  C
  C170     1.0000 0.20613  0.44880  0.37860  Biso   1.000  C
  C171     1.0000 0.29387  0.94880  0.12140  Biso   1.000  C
  C172     1.0000 0.70613  0.94880  0.37860  Biso   1.000  C
  C173     1.0000 0.20613  0.55120  0.87860  Biso   1.000  C
  C174     1.0000 0.79387  0.55120  0.62140  Biso   1.000  C
  C175     1.0000 0.70613  0.05120  0.87860  Biso   1.000  C
  C176     1.0000 0.29387  0.05120  0.62140  Biso   1.000  C
  H97      1.0000 0.78820  0.36330  0.12150  Biso   1.000  H
  H98      1.0000 0.21180  0.36330  0.37850  Biso   1.000  H
  H99      1.0000 0.28820  0.86330  0.12150  Biso   1.000  H
  H100     1.0000 0.71180  0.86330  0.37850  Biso   1.000  H
  H101     1.0000 0.21180  0.63670  0.87850  Biso   1.000  H
  H102     1.0000 0.78820  0.63670  0.62150  Biso   1.000  H
  H103     1.0000 0.71180  0.13670  0.87850  Biso   1.000  H
  H104     1.0000 0.28820  0.13670  0.62150  Biso   1.000  H
  C177     1.0000 0.76178  0.53310  0.12240  Biso   1.000  C
  C178     1.0000 0.23822  0.53310  0.37760  Biso   1.000  C
  C179     1.0000 0.26178  0.03310  0.12240  Biso   1.000  C
  C180     1.0000 0.73822  0.03310  0.37760  Biso   1.000  C
  C181     1.0000 0.23822  0.46690  0.87760  Biso   1.000  C
  C182     1.0000 0.76178  0.46690  0.62240  Biso   1.000  C
  C183     1.0000 0.73822  0.96690  0.87760  Biso   1.000  C
  C184     1.0000 0.26178  0.96690  0.62240  Biso   1.000  C
  H105     1.0000 0.73470  0.50520  0.12540  Biso   1.000  H
  H106     1.0000 0.26530  0.50520  0.37460  Biso   1.000  H
  H107     1.0000 0.23470  0.00520  0.12540  Biso   1.000  H
  H108     1.0000 0.76530  0.00520  0.37460  Biso   1.000  H
  H109     1.0000 0.26530  0.49480  0.87460  Biso   1.000  H
  H110     1.0000 0.73470  0.49480  0.62540  Biso   1.000  H
  H111     1.0000 0.76530  0.99480  0.87460  Biso   1.000  H
  H112     1.0000 0.23470  0.99480  0.62540  Biso   1.000  H
  C185     1.0000 0.76973  0.66090  0.11890  Biso   1.000  C
  C186     1.0000 0.23027  0.66090  0.38110  Biso   1.000  C
  C187     1.0000 0.26973  0.16090  0.11890  Biso   1.000  C
  C188     1.0000 0.73027  0.16090  0.38110  Biso   1.000  C
  C189     1.0000 0.23027  0.33910  0.88110  Biso   1.000  C
  C190     1.0000 0.76973  0.33910  0.61890  Biso   1.000  C
  C191     1.0000 0.73027  0.83910  0.88110  Biso   1.000  C
  C192     1.0000 0.26973  0.83910  0.61890  Biso   1.000  C
  H113     1.0000 0.74730  0.71730  0.11860  Biso   1.000  H
  H114     1.0000 0.25270  0.71730  0.38140  Biso   1.000  H
  H115     1.0000 0.24730  0.21730  0.11860  Biso   1.000  H
  H116     1.0000 0.75270  0.21730  0.38140  Biso   1.000  H
  H117     1.0000 0.25270  0.28270  0.88140  Biso   1.000  H
  H118     1.0000 0.74730  0.28270  0.61860  Biso   1.000  H
  H119     1.0000 0.75270  0.78270  0.88140  Biso   1.000  H
  H120     1.0000 0.24730  0.78270  0.61860  Biso   1.000  H
  C193     1.0000 0.84082  0.62130  0.11760  Biso   1.000  C
  C194     1.0000 0.15918  0.62130  0.38240  Biso   1.000  C
  C195     1.0000 0.34082  0.12130  0.11760  Biso   1.000  C
  C196     1.0000 0.65918  0.12130  0.38240  Biso   1.000  C
  C197     1.0000 0.15918  0.37870  0.88240  Biso   1.000  C
  C198     1.0000 0.84082  0.37870  0.61760  Biso   1.000  C
  C199     1.0000 0.65918  0.87870  0.88240  Biso   1.000  C
  C200     1.0000 0.34082  0.87870  0.61760  Biso   1.000  C
  C201     1.0000 0.88207  0.67140  0.11750  Biso   1.000  C
  C202     1.0000 0.11793  0.67140  0.38250  Biso   1.000  C
  C203     1.0000 0.38207  0.17140  0.11750  Biso   1.000  C
  C204     1.0000 0.61793  0.17140  0.38250  Biso   1.000  C
  C205     1.0000 0.11793  0.32860  0.88250  Biso   1.000  C
  C206     1.0000 0.88207  0.32860  0.61750  Biso   1.000  C
  C207     1.0000 0.61793  0.82860  0.88250  Biso   1.000  C
  C208     1.0000 0.38207  0.82860  0.61750  Biso   1.000  C
  N1       1.0000 0.88578  0.40730  0.36840  Biso   1.000  N
  N2       1.0000 0.11422  0.40730  0.13160  Biso   1.000  N
  N3       1.0000 0.38578  0.90730  0.36840  Biso   1.000  N
  N4       1.0000 0.61422  0.90730  0.13160  Biso   1.000  N
  N5       1.0000 0.11422  0.59270  0.63160  Biso   1.000  N
  N6       1.0000 0.88578  0.59270  0.86840  Biso   1.000  N
  N7       1.0000 0.61422  0.09270  0.63160  Biso   1.000  N
  N8       1.0000 0.38578  0.09270  0.86840  Biso   1.000  N
  H121     1.0000 0.87350  0.33410  0.36240  Biso   1.000  H
  H122     1.0000 0.12650  0.33410  0.13760  Biso   1.000  H
  H123     1.0000 0.37350  0.83410  0.36240  Biso   1.000  H
  H124     1.0000 0.62650  0.83410  0.13760  Biso   1.000  H
  H125     1.0000 0.12650  0.66590  0.63760  Biso   1.000  H
  H126     1.0000 0.87350  0.66590  0.86240  Biso   1.000  H
  H127     1.0000 0.62650  0.16590  0.63760  Biso   1.000  H
  H128     1.0000 0.37350  0.16590  0.86240  Biso   1.000  H
  N9       1.0000 0.00198  0.06790  0.38650  Biso   1.000  N
  N10      1.0000 0.99802  0.06790  0.11350  Biso   1.000  N
  N11      1.0000 0.50198  0.56790  0.38650  Biso   1.000  N
  N12      1.0000 0.49802  0.56790  0.11350  Biso   1.000  N
  N13      1.0000 0.99802  0.93210  0.61350  Biso   1.000  N
  N14      1.0000 0.00198  0.93210  0.88650  Biso   1.000  N
  N15      1.0000 0.49802  0.43210  0.61350  Biso   1.000  N
  N16      1.0000 0.50198  0.43210  0.88650  Biso   1.000  N
  N17      1.0000 0.80830  0.70560  0.11600  Biso   1.000  N
  N18      1.0000 0.19170  0.70560  0.38400  Biso   1.000  N
  N19      1.0000 0.30830  0.20560  0.11600  Biso   1.000  N
  N20      1.0000 0.69170  0.20560  0.38400  Biso   1.000  N
  N21      1.0000 0.19170  0.29440  0.88400  Biso   1.000  N
  N22      1.0000 0.80830  0.29440  0.61600  Biso   1.000  N
  N23      1.0000 0.69170  0.79440  0.88400  Biso   1.000  N
  N24      1.0000 0.30830  0.79440  0.61600  Biso   1.000  N
  N25      1.0000 0.88477  0.79880  0.11480  Biso   1.000  N
  N26      1.0000 0.11523  0.79880  0.38520  Biso   1.000  N
  N27      1.0000 0.38477  0.29880  0.11480  Biso   1.000  N
  N28      1.0000 0.61523  0.29880  0.38520  Biso   1.000  N
  N29      1.0000 0.11523  0.20120  0.88520  Biso   1.000  N
  N30      1.0000 0.88477  0.20120  0.61480  Biso   1.000  N
  N31      1.0000 0.61523  0.70120  0.88520  Biso   1.000  N
  N32      1.0000 0.38477  0.70120  0.61480  Biso   1.000  N
  O1       1.0000 0.86545  0.89430  0.28940  Biso   1.000  O
  O2       1.0000 0.13455  0.89430  0.21060  Biso   1.000  O
  O3       1.0000 0.36545  0.39430  0.28940  Biso   1.000  O
  O4       1.0000 0.63455  0.39430  0.21060  Biso   1.000  O
  O5       1.0000 0.13455  0.10570  0.71060  Biso   1.000  O
  O6       1.0000 0.86545  0.10570  0.78940  Biso   1.000  O
  O7       1.0000 0.63455  0.60570  0.71060  Biso   1.000  O
  O8       1.0000 0.36545  0.60570  0.78940  Biso   1.000  O
  O9       1.0000 0.84786  0.94470  0.41370  Biso   1.000  O
  O10      1.0000 0.15214  0.94470  0.08630  Biso   1.000  O
  O11      1.0000 0.34786  0.44470  0.41370  Biso   1.000  O
  O12      1.0000 0.65214  0.44470  0.08630  Biso   1.000  O
  O13      1.0000 0.15214  0.05530  0.58630  Biso   1.000  O
  O14      1.0000 0.84786  0.05530  0.91370  Biso   1.000  O
  O15      1.0000 0.65214  0.55530  0.58630  Biso   1.000  O
  O16      1.0000 0.34786  0.55530  0.91370  Biso   1.000  O
  O17      1.0000 0.71441  0.64600  0.36650  Biso   1.000  O
  O18      1.0000 0.28559  0.64600  0.13350  Biso   1.000  O
  O19      1.0000 0.21441  0.14600  0.36650  Biso   1.000  O
  O20      1.0000 0.78559  0.14600  0.13350  Biso   1.000  O
  O21      1.0000 0.28559  0.35400  0.63350  Biso   1.000  O
  O22      1.0000 0.71441  0.35400  0.86650  Biso   1.000  O
  O23      1.0000 0.78559  0.85400  0.63350  Biso   1.000  O
  O24      1.0000 0.21441  0.85400  0.86650  Biso   1.000  O
  O25      1.0000 0.72974  0.44140  0.38160  Biso   1.000  O
  O26      1.0000 0.27026  0.44140  0.11840  Biso   1.000  O
  O27      1.0000 0.22974  0.94140  0.38160  Biso   1.000  O
  O28      1.0000 0.77026  0.94140  0.11840  Biso   1.000  O
  O29      1.0000 0.27026  0.55860  0.61840  Biso   1.000  O
  O30      1.0000 0.72974  0.55860  0.88160  Biso   1.000  O
  O31      1.0000 0.77026  0.05860  0.61840  Biso   1.000  O
  O32      1.0000 0.22974  0.05860  0.88160  Biso   1.000  O
  O33      1.0000 0.95132  0.50890  0.38360  Biso   1.000  O
  O34      1.0000 0.04868  0.50890  0.11640  Biso   1.000  O
  O35      1.0000 0.45132  0.00890  0.38360  Biso   1.000  O
  O36      1.0000 0.54868  0.00890  0.11640  Biso   1.000  O
  O37      1.0000 0.04868  0.49110  0.61640  Biso   1.000  O
  O38      1.0000 0.95132  0.49110  0.88360  Biso   1.000  O
  O39      1.0000 0.54868  0.99110  0.61640  Biso   1.000  O
  O40      1.0000 0.45132  0.99110  0.88360  Biso   1.000  O
  O41      1.0000 0.84942  0.04680  0.09420  Biso   1.000  O
  O42      1.0000 0.15058  0.04680  0.40580  Biso   1.000  O
  O43      1.0000 0.34942  0.54680  0.09420  Biso   1.000  O
  O44      1.0000 0.65058  0.54680  0.40580  Biso   1.000  O
  O45      1.0000 0.15058  0.95320  0.90580  Biso   1.000  O
  O46      1.0000 0.84942  0.95320  0.59420  Biso   1.000  O
  O47      1.0000 0.65058  0.45320  0.90580  Biso   1.000  O
  O48      1.0000 0.34942  0.45320  0.59420  Biso   1.000  O
  H129     1.0000 0.82970  0.10220  0.09170  Biso   1.000  H
  H130     1.0000 0.17030  0.10220  0.40830  Biso   1.000  H
  H131     1.0000 0.32970  0.60220  0.09170  Biso   1.000  H
  H132     1.0000 0.67030  0.60220  0.40830  Biso   1.000  H
  H133     1.0000 0.17030  0.89780  0.90830  Biso   1.000  H
  H134     1.0000 0.82970  0.89780  0.59170  Biso   1.000  H
  H135     1.0000 0.67030  0.39780  0.90830  Biso   1.000  H
  H136     1.0000 0.32970  0.39780  0.59170  Biso   1.000  H
  H137     1.0000 0.85000  0.04370  0.03750  Biso   1.000  H
  H138     1.0000 0.15000  0.04370  0.46250  Biso   1.000  H
  H139     1.0000 0.35000  0.54370  0.03750  Biso   1.000  H
  H140     1.0000 0.65000  0.54370  0.46250  Biso   1.000  H
  H141     1.0000 0.15000  0.95630  0.96250  Biso   1.000  H
  H142     1.0000 0.85000  0.95630  0.53750  Biso   1.000  H
  H143     1.0000 0.65000  0.45630  0.96250  Biso   1.000  H
  H144     1.0000 0.35000  0.45630  0.53750  Biso   1.000  H
  O49      1.0000 0.17019  0.18820  0.14950  Biso   1.000  O
  O50      1.0000 0.82981  0.18820  0.35050  Biso   1.000  O
  O51      1.0000 0.67019  0.68820  0.14950  Biso   1.000  O
  O52      1.0000 0.32981  0.68820  0.35050  Biso   1.000  O
  O53      1.0000 0.82981  0.81180  0.85050  Biso   1.000  O
  O54      1.0000 0.17019  0.81180  0.64950  Biso   1.000  O
  O55      1.0000 0.32981  0.31180  0.85050  Biso   1.000  O
  O56      1.0000 0.67019  0.31180  0.64950  Biso   1.000  O
  H145     1.0000 0.16360  0.11480  0.12510  Biso   1.000  H
  H146     1.0000 0.83640  0.11480  0.37490  Biso   1.000  H
  H147     1.0000 0.66360  0.61480  0.12510  Biso   1.000  H
  H148     1.0000 0.33640  0.61480  0.37490  Biso   1.000  H
  H149     1.0000 0.83640  0.88520  0.87490  Biso   1.000  H
  H150     1.0000 0.16360  0.88520  0.62510  Biso   1.000  H
  H151     1.0000 0.33640  0.38520  0.87490  Biso   1.000  H
  H152     1.0000 0.66360  0.38520  0.62510  Biso   1.000  H
  H153     1.0000 0.18320  0.18200  0.21270  Biso   1.000  H
  H154     1.0000 0.81680  0.18200  0.28730  Biso   1.000  H
  H155     1.0000 0.68320  0.68200  0.21270  Biso   1.000  H
  H156     1.0000 0.31680  0.68200  0.28730  Biso   1.000  H
  H157     1.0000 0.81680  0.81800  0.78730  Biso   1.000  H
  H158     1.0000 0.18320  0.81800  0.71270  Biso   1.000  H
  H159     1.0000 0.31680  0.31800  0.78730  Biso   1.000  H
  H160     1.0000 0.68320  0.31800  0.71270  Biso   1.000  H
