data_image0
_cell_length_a       28.039
_cell_length_b       10.2064
_cell_length_c       22.716
_cell_angle_alpha    90
_cell_angle_beta     123.037
_cell_angle_gamma    90

_symmetry_space_group_name_H-M    "P 1"
_symmetry_int_tables_number       1

loop_
  _symmetry_equiv_pos_as_xyz
  'x, y, z'

loop_
  _atom_site_label
  _atom_site_occupancy
  _atom_site_fract_x
  _atom_site_fract_y
  _atom_site_fract_z
  _atom_site_thermal_displace_type
  _atom_site_B_iso_or_equiv
  _atom_site_type_symbol
  Cu1      1.0000 0.70003  0.59839  0.51204  Biso   1.000  Cu
  Cu2      1.0000 0.29997  0.59839  0.98796  Biso   1.000  Cu
  Cu3      1.0000 0.20003  0.09839  0.51204  Biso   1.000  Cu
  Cu4      1.0000 0.79997  0.09839  0.98796  Biso   1.000  Cu
  Cu5      1.0000 0.29997  0.40161  0.48796  Biso   1.000  Cu
  Cu6      1.0000 0.70003  0.40161  0.01204  Biso   1.000  Cu
  Cu7      1.0000 0.79997  0.90161  0.48796  Biso   1.000  Cu
  Cu8      1.0000 0.20003  0.90161  0.01204  Biso   1.000  Cu
  C1       1.0000 0.64315  0.22970  0.52486  Biso   1.000  C
  C2       1.0000 0.35685  0.22970  0.97514  Biso   1.000  C
  C3       1.0000 0.14315  0.72970  0.52486  Biso   1.000  C
  C4       1.0000 0.85685  0.72970  0.97514  Biso   1.000  C
  C5       1.0000 0.35685  0.77030  0.47514  Biso   1.000  C
  C6       1.0000 0.64315  0.77030  0.02486  Biso   1.000  C
  C7       1.0000 0.85685  0.27030  0.47514  Biso   1.000  C
  C8       1.0000 0.14315  0.27030  0.02486  Biso   1.000  C
  C9       1.0000 0.66721  0.12780  0.50920  Biso   1.000  C
  C10      1.0000 0.33279  0.12780  0.99080  Biso   1.000  C
  C11      1.0000 0.16721  0.62780  0.50920  Biso   1.000  C
  C12      1.0000 0.83279  0.62780  0.99080  Biso   1.000  C
  C13      1.0000 0.33279  0.87220  0.49080  Biso   1.000  C
  C14      1.0000 0.66721  0.87220  0.00920  Biso   1.000  C
  C15      1.0000 0.83279  0.37220  0.49080  Biso   1.000  C
  C16      1.0000 0.16721  0.37220  0.00920  Biso   1.000  C
  H1       1.0000 0.68950  0.14610  0.49140  Biso   1.000  H
  H2       1.0000 0.31050  0.14610  0.00860  Biso   1.000  H
  H3       1.0000 0.18950  0.64610  0.49140  Biso   1.000  H
  H4       1.0000 0.81050  0.64610  0.00860  Biso   1.000  H
  H5       1.0000 0.31050  0.85390  0.50860  Biso   1.000  H
  H6       1.0000 0.68950  0.85390  0.99140  Biso   1.000  H
  H7       1.0000 0.81050  0.35390  0.50860  Biso   1.000  H
  H8       1.0000 0.18950  0.35390  0.99140  Biso   1.000  H
  C17      1.0000 0.65825  0.99880  0.51995  Biso   1.000  C
  C18      1.0000 0.34175  0.99880  0.98005  Biso   1.000  C
  C19      1.0000 0.15825  0.49880  0.51995  Biso   1.000  C
  C20      1.0000 0.84175  0.49880  0.98005  Biso   1.000  C
  C21      1.0000 0.34175  0.00120  0.48005  Biso   1.000  C
  C22      1.0000 0.65825  0.00120  0.01995  Biso   1.000  C
  C23      1.0000 0.84175  0.50120  0.48005  Biso   1.000  C
  C24      1.0000 0.15825  0.50120  0.01995  Biso   1.000  C
  C25      1.0000 0.62415  0.97220  0.54551  Biso   1.000  C
  C26      1.0000 0.37585  0.97220  0.95449  Biso   1.000  C
  C27      1.0000 0.12415  0.47220  0.54551  Biso   1.000  C
  C28      1.0000 0.87585  0.47220  0.95449  Biso   1.000  C
  C29      1.0000 0.37585  0.02780  0.45449  Biso   1.000  C
  C30      1.0000 0.62415  0.02780  0.04551  Biso   1.000  C
  C31      1.0000 0.87585  0.52780  0.45449  Biso   1.000  C
  C32      1.0000 0.12415  0.52780  0.04551  Biso   1.000  C
  H9       1.0000 0.61800  0.88600  0.55290  Biso   1.000  H
  H10      1.0000 0.38200  0.88600  0.94710  Biso   1.000  H
  H11      1.0000 0.11800  0.38600  0.55290  Biso   1.000  H
  H12      1.0000 0.88200  0.38600  0.94710  Biso   1.000  H
  H13      1.0000 0.38200  0.11400  0.44710  Biso   1.000  H
  H14      1.0000 0.61800  0.11400  0.05290  Biso   1.000  H
  H15      1.0000 0.88200  0.61400  0.44710  Biso   1.000  H
  H16      1.0000 0.11800  0.61400  0.05290  Biso   1.000  H
  C33      1.0000 0.59909  0.07420  0.56011  Biso   1.000  C
  C34      1.0000 0.40091  0.07420  0.93989  Biso   1.000  C
  C35      1.0000 0.09909  0.57420  0.56011  Biso   1.000  C
  C36      1.0000 0.90091  0.57420  0.93989  Biso   1.000  C
  C37      1.0000 0.40091  0.92580  0.43989  Biso   1.000  C
  C38      1.0000 0.59909  0.92580  0.06011  Biso   1.000  C
  C39      1.0000 0.90091  0.42580  0.43989  Biso   1.000  C
  C40      1.0000 0.09909  0.42580  0.06011  Biso   1.000  C
  C41      1.0000 0.60894  0.20330  0.54986  Biso   1.000  C
  C42      1.0000 0.39106  0.20330  0.95014  Biso   1.000  C
  C43      1.0000 0.10894  0.70330  0.54986  Biso   1.000  C
  C44      1.0000 0.89106  0.70330  0.95014  Biso   1.000  C
  C45      1.0000 0.39106  0.79670  0.45014  Biso   1.000  C
  C46      1.0000 0.60894  0.79670  0.04986  Biso   1.000  C
  C47      1.0000 0.89106  0.29670  0.45014  Biso   1.000  C
  C48      1.0000 0.10894  0.29670  0.04986  Biso   1.000  C
  H17      1.0000 0.59250  0.27170  0.55980  Biso   1.000  H
  H18      1.0000 0.40750  0.27170  0.94020  Biso   1.000  H
  H19      1.0000 0.09250  0.77170  0.55980  Biso   1.000  H
  H20      1.0000 0.90750  0.77170  0.94020  Biso   1.000  H
  H21      1.0000 0.40750  0.72830  0.44020  Biso   1.000  H
  H22      1.0000 0.59250  0.72830  0.05980  Biso   1.000  H
  H23      1.0000 0.90750  0.22830  0.44020  Biso   1.000  H
  H24      1.0000 0.09250  0.22830  0.05980  Biso   1.000  H
  C49      1.0000 0.65404  0.37040  0.51647  Biso   1.000  C
  C50      1.0000 0.34596  0.37040  0.98353  Biso   1.000  C
  C51      1.0000 0.15404  0.87040  0.51647  Biso   1.000  C
  C52      1.0000 0.84596  0.87040  0.98353  Biso   1.000  C
  C53      1.0000 0.34596  0.62960  0.48353  Biso   1.000  C
  C54      1.0000 0.65404  0.62960  0.01647  Biso   1.000  C
  C55      1.0000 0.84596  0.12960  0.48353  Biso   1.000  C
  C56      1.0000 0.15404  0.12960  0.01647  Biso   1.000  C
  C57      1.0000 0.68644  0.88750  0.50568  Biso   1.000  C
  C58      1.0000 0.31356  0.88750  0.99432  Biso   1.000  C
  C59      1.0000 0.18644  0.38750  0.50568  Biso   1.000  C
  C60      1.0000 0.81356  0.38750  0.99432  Biso   1.000  C
  C61      1.0000 0.31356  0.11250  0.49432  Biso   1.000  C
  C62      1.0000 0.68644  0.11250  0.00568  Biso   1.000  C
  C63      1.0000 0.81356  0.61250  0.49432  Biso   1.000  C
  C64      1.0000 0.18644  0.61250  0.00568  Biso   1.000  C
  C65      1.0000 0.52467  0.11230  0.58541  Biso   1.000  C
  C66      1.0000 0.47533  0.11230  0.91459  Biso   1.000  C
  C67      1.0000 0.02467  0.61230  0.58541  Biso   1.000  C
  C68      1.0000 0.97533  0.61230  0.91459  Biso   1.000  C
  C69      1.0000 0.47533  0.88770  0.41459  Biso   1.000  C
  C70      1.0000 0.52467  0.88770  0.08541  Biso   1.000  C
  C71      1.0000 0.97533  0.38770  0.41459  Biso   1.000  C
  C72      1.0000 0.02467  0.38770  0.08541  Biso   1.000  C
  C73      1.0000 0.49455  0.05100  0.61634  Biso   1.000  C
  C74      1.0000 0.50545  0.05100  0.88366  Biso   1.000  C
  C75      1.0000 0.99455  0.55100  0.61634  Biso   1.000  C
  C76      1.0000 0.00545  0.55100  0.88366  Biso   1.000  C
  C77      1.0000 0.50545  0.94900  0.38366  Biso   1.000  C
  C78      1.0000 0.49455  0.94900  0.11634  Biso   1.000  C
  C79      1.0000 0.00545  0.44900  0.38366  Biso   1.000  C
  C80      1.0000 0.99455  0.44900  0.11634  Biso   1.000  C
  C81      1.0000 0.49035  0.91850  0.62301  Biso   1.000  C
  C82      1.0000 0.50965  0.91850  0.87699  Biso   1.000  C
  C83      1.0000 0.99035  0.41850  0.62301  Biso   1.000  C
  C84      1.0000 0.00965  0.41850  0.87699  Biso   1.000  C
  C85      1.0000 0.50965  0.08150  0.37699  Biso   1.000  C
  C86      1.0000 0.49035  0.08150  0.12301  Biso   1.000  C
  C87      1.0000 0.00965  0.58150  0.37699  Biso   1.000  C
  C88      1.0000 0.99035  0.58150  0.12301  Biso   1.000  C
  H25      1.0000 0.50700  0.85950  0.60810  Biso   1.000  H
  H26      1.0000 0.49300  0.85950  0.89190  Biso   1.000  H
  H27      1.0000 0.00700  0.35950  0.60810  Biso   1.000  H
  H28      1.0000 0.99300  0.35950  0.89190  Biso   1.000  H
  H29      1.0000 0.49300  0.14050  0.39190  Biso   1.000  H
  H30      1.0000 0.50700  0.14050  0.10810  Biso   1.000  H
  H31      1.0000 0.99300  0.64050  0.39190  Biso   1.000  H
  H32      1.0000 0.00700  0.64050  0.10810  Biso   1.000  H
  C89      1.0000 0.46109  0.87410  0.65215  Biso   1.000  C
  C90      1.0000 0.53891  0.87410  0.84785  Biso   1.000  C
  C91      1.0000 0.96109  0.37410  0.65215  Biso   1.000  C
  C92      1.0000 0.03891  0.37410  0.84785  Biso   1.000  C
  C93      1.0000 0.53891  0.12590  0.34785  Biso   1.000  C
  C94      1.0000 0.46109  0.12590  0.15215  Biso   1.000  C
  C95      1.0000 0.03891  0.62590  0.34785  Biso   1.000  C
  C96      1.0000 0.96109  0.62590  0.15215  Biso   1.000  C
  H33      1.0000 0.45870  0.78420  0.65650  Biso   1.000  H
  H34      1.0000 0.54130  0.78420  0.84350  Biso   1.000  H
  H35      1.0000 0.95870  0.28420  0.65650  Biso   1.000  H
  H36      1.0000 0.04130  0.28420  0.84350  Biso   1.000  H
  H37      1.0000 0.54130  0.21580  0.34350  Biso   1.000  H
  H38      1.0000 0.45870  0.21580  0.15650  Biso   1.000  H
  H39      1.0000 0.04130  0.71580  0.34350  Biso   1.000  H
  H40      1.0000 0.95870  0.71580  0.15650  Biso   1.000  H
  C97      1.0000 0.44013  0.07960  0.66658  Biso   1.000  C
  C98      1.0000 0.55987  0.07960  0.83342  Biso   1.000  C
  C99      1.0000 0.94013  0.57960  0.66658  Biso   1.000  C
  C100     1.0000 0.05987  0.57960  0.83342  Biso   1.000  C
  C101     1.0000 0.55987  0.92040  0.33342  Biso   1.000  C
  C102     1.0000 0.44013  0.92040  0.16658  Biso   1.000  C
  C103     1.0000 0.05987  0.42040  0.33342  Biso   1.000  C
  C104     1.0000 0.94013  0.42040  0.16658  Biso   1.000  C
  H41      1.0000 0.42270  0.13630  0.68130  Biso   1.000  H
  H42      1.0000 0.57730  0.13630  0.81870  Biso   1.000  H
  H43      1.0000 0.92270  0.63630  0.68130  Biso   1.000  H
  H44      1.0000 0.07730  0.63630  0.81870  Biso   1.000  H
  H45      1.0000 0.57730  0.86370  0.31870  Biso   1.000  H
  H46      1.0000 0.42270  0.86370  0.18130  Biso   1.000  H
  H47      1.0000 0.07730  0.36370  0.31870  Biso   1.000  H
  H48      1.0000 0.92270  0.36370  0.18130  Biso   1.000  H
  C105     1.0000 0.46813  0.13350  0.63854  Biso   1.000  C
  C106     1.0000 0.53187  0.13350  0.86146  Biso   1.000  C
  C107     1.0000 0.96813  0.63350  0.63854  Biso   1.000  C
  C108     1.0000 0.03187  0.63350  0.86146  Biso   1.000  C
  C109     1.0000 0.53187  0.86650  0.36146  Biso   1.000  C
  C110     1.0000 0.46813  0.86650  0.13854  Biso   1.000  C
  C111     1.0000 0.03187  0.36650  0.36146  Biso   1.000  C
  C112     1.0000 0.96813  0.36650  0.13854  Biso   1.000  C
  H49      1.0000 0.46940  0.22390  0.63450  Biso   1.000  H
  H50      1.0000 0.53060  0.22390  0.86550  Biso   1.000  H
  H51      1.0000 0.96940  0.72390  0.63450  Biso   1.000  H
  H52      1.0000 0.03060  0.72390  0.86550  Biso   1.000  H
  H53      1.0000 0.53060  0.77610  0.36550  Biso   1.000  H
  H54      1.0000 0.46940  0.77610  0.13450  Biso   1.000  H
  H55      1.0000 0.03060  0.27610  0.36550  Biso   1.000  H
  H56      1.0000 0.96940  0.27610  0.13450  Biso   1.000  H
  C113     1.0000 0.72382  0.62970  0.65393  Biso   1.000  C
  C114     1.0000 0.27618  0.62970  0.84607  Biso   1.000  C
  C115     1.0000 0.22382  0.12970  0.65393  Biso   1.000  C
  C116     1.0000 0.77618  0.12970  0.84607  Biso   1.000  C
  C117     1.0000 0.27618  0.37030  0.34607  Biso   1.000  C
  C118     1.0000 0.72382  0.37030  0.15393  Biso   1.000  C
  C119     1.0000 0.77618  0.87030  0.34607  Biso   1.000  C
  C120     1.0000 0.22382  0.87030  0.15393  Biso   1.000  C
  H57      1.0000 0.69240  0.68400  0.63720  Biso   1.000  H
  H58      1.0000 0.30760  0.68400  0.86280  Biso   1.000  H
  H59      1.0000 0.19240  0.18400  0.63720  Biso   1.000  H
  H60      1.0000 0.80760  0.18400  0.86280  Biso   1.000  H
  H61      1.0000 0.30760  0.31600  0.36280  Biso   1.000  H
  H62      1.0000 0.69240  0.31600  0.13720  Biso   1.000  H
  H63      1.0000 0.80760  0.81600  0.36280  Biso   1.000  H
  H64      1.0000 0.19240  0.81600  0.13720  Biso   1.000  H
  C121     1.0000 0.74536  0.60940  0.77595  Biso   1.000  C
  C122     1.0000 0.25464  0.60940  0.72405  Biso   1.000  C
  C123     1.0000 0.24536  0.10940  0.77595  Biso   1.000  C
  C124     1.0000 0.75464  0.10940  0.72405  Biso   1.000  C
  C125     1.0000 0.25464  0.39060  0.22405  Biso   1.000  C
  C126     1.0000 0.74536  0.39060  0.27595  Biso   1.000  C
  C127     1.0000 0.75464  0.89060  0.22405  Biso   1.000  C
  C128     1.0000 0.24536  0.89060  0.27595  Biso   1.000  C
  H65      1.0000 0.71940  0.68260  0.76280  Biso   1.000  H
  H66      1.0000 0.28060  0.68260  0.73720  Biso   1.000  H
  H67      1.0000 0.21940  0.18260  0.76280  Biso   1.000  H
  H68      1.0000 0.78060  0.18260  0.73720  Biso   1.000  H
  H69      1.0000 0.28060  0.31740  0.23720  Biso   1.000  H
  H70      1.0000 0.71940  0.31740  0.26280  Biso   1.000  H
  H71      1.0000 0.78060  0.81740  0.23720  Biso   1.000  H
  H72      1.0000 0.21940  0.81740  0.26280  Biso   1.000  H
  H73      1.0000 0.78090  0.63280  0.81880  Biso   1.000  H
  H74      1.0000 0.21910  0.63280  0.68120  Biso   1.000  H
  H75      1.0000 0.28090  0.13280  0.81880  Biso   1.000  H
  H76      1.0000 0.71910  0.13280  0.68120  Biso   1.000  H
  H77      1.0000 0.21910  0.36720  0.18120  Biso   1.000  H
  H78      1.0000 0.78090  0.36720  0.31880  Biso   1.000  H
  H79      1.0000 0.71910  0.86720  0.18120  Biso   1.000  H
  H80      1.0000 0.28090  0.86720  0.31880  Biso   1.000  H
  C129     1.0000 0.72061  0.49050  0.78931  Biso   1.000  C
  C130     1.0000 0.27939  0.49050  0.71069  Biso   1.000  C
  C131     1.0000 0.22061  0.99050  0.78931  Biso   1.000  C
  C132     1.0000 0.77939  0.99050  0.71069  Biso   1.000  C
  C133     1.0000 0.27939  0.50950  0.21069  Biso   1.000  C
  C134     1.0000 0.72061  0.50950  0.28931  Biso   1.000  C
  C135     1.0000 0.77939  0.00950  0.21069  Biso   1.000  C
  C136     1.0000 0.22061  0.00950  0.28931  Biso   1.000  C
  H81      1.0000 0.74680  0.41780  0.80230  Biso   1.000  H
  H82      1.0000 0.25320  0.41780  0.69770  Biso   1.000  H
  H83      1.0000 0.24680  0.91780  0.80230  Biso   1.000  H
  H84      1.0000 0.75320  0.91780  0.69770  Biso   1.000  H
  H85      1.0000 0.25320  0.58220  0.19770  Biso   1.000  H
  H86      1.0000 0.74680  0.58220  0.30230  Biso   1.000  H
  H87      1.0000 0.75320  0.08220  0.19770  Biso   1.000  H
  H88      1.0000 0.24680  0.08220  0.30230  Biso   1.000  H
  H89      1.0000 0.71720  0.50850  0.82880  Biso   1.000  H
  H90      1.0000 0.28280  0.50850  0.67120  Biso   1.000  H
  H91      1.0000 0.21720  0.00850  0.82880  Biso   1.000  H
  H92      1.0000 0.78280  0.00850  0.67120  Biso   1.000  H
  H93      1.0000 0.28280  0.49150  0.17120  Biso   1.000  H
  H94      1.0000 0.71720  0.49150  0.32880  Biso   1.000  H
  H95      1.0000 0.78280  0.99150  0.17120  Biso   1.000  H
  H96      1.0000 0.21720  0.99150  0.32880  Biso   1.000  H
  C137     1.0000 0.66330  0.45040  0.72736  Biso   1.000  C
  C138     1.0000 0.33670  0.45040  0.77264  Biso   1.000  C
  C139     1.0000 0.16330  0.95040  0.72736  Biso   1.000  C
  C140     1.0000 0.83670  0.95040  0.77264  Biso   1.000  C
  C141     1.0000 0.33670  0.54960  0.27264  Biso   1.000  C
  C142     1.0000 0.66330  0.54960  0.22736  Biso   1.000  C
  C143     1.0000 0.83670  0.04960  0.27264  Biso   1.000  C
  C144     1.0000 0.16330  0.04960  0.22736  Biso   1.000  C
  H97      1.0000 0.66730  0.42650  0.68890  Biso   1.000  H
  H98      1.0000 0.33270  0.42650  0.81110  Biso   1.000  H
  H99      1.0000 0.16730  0.92650  0.68890  Biso   1.000  H
  H100     1.0000 0.83270  0.92650  0.81110  Biso   1.000  H
  H101     1.0000 0.33270  0.57350  0.31110  Biso   1.000  H
  H102     1.0000 0.66730  0.57350  0.18890  Biso   1.000  H
  H103     1.0000 0.83270  0.07350  0.31110  Biso   1.000  H
  H104     1.0000 0.16730  0.07350  0.18890  Biso   1.000  H
  H105     1.0000 0.63780  0.52490  0.71230  Biso   1.000  H
  H106     1.0000 0.36220  0.52490  0.78770  Biso   1.000  H
  H107     1.0000 0.13780  0.02490  0.71230  Biso   1.000  H
  H108     1.0000 0.86220  0.02490  0.78770  Biso   1.000  H
  H109     1.0000 0.36220  0.47510  0.28770  Biso   1.000  H
  H110     1.0000 0.63780  0.47510  0.21230  Biso   1.000  H
  H111     1.0000 0.86220  0.97510  0.28770  Biso   1.000  H
  H112     1.0000 0.13780  0.97510  0.21230  Biso   1.000  H
  C145     1.0000 0.63673  0.33630  0.74257  Biso   1.000  C
  C146     1.0000 0.36327  0.33630  0.75743  Biso   1.000  C
  C147     1.0000 0.13673  0.83630  0.74257  Biso   1.000  C
  C148     1.0000 0.86327  0.83630  0.75743  Biso   1.000  C
  C149     1.0000 0.36327  0.66370  0.25743  Biso   1.000  C
  C150     1.0000 0.63673  0.66370  0.24257  Biso   1.000  C
  C151     1.0000 0.86327  0.16370  0.25743  Biso   1.000  C
  C152     1.0000 0.13673  0.16370  0.24257  Biso   1.000  C
  H113     1.0000 0.59980  0.31660  0.70080  Biso   1.000  H
  H114     1.0000 0.40020  0.31660  0.79920  Biso   1.000  H
  H115     1.0000 0.09980  0.81660  0.70080  Biso   1.000  H
  H116     1.0000 0.90020  0.81660  0.79920  Biso   1.000  H
  H117     1.0000 0.40020  0.68340  0.29920  Biso   1.000  H
  H118     1.0000 0.59980  0.68340  0.20080  Biso   1.000  H
  H119     1.0000 0.90020  0.18340  0.29920  Biso   1.000  H
  H120     1.0000 0.09980  0.18340  0.20080  Biso   1.000  H
  H121     1.0000 0.66060  0.25940  0.75410  Biso   1.000  H
  H122     1.0000 0.33940  0.25940  0.74590  Biso   1.000  H
  H123     1.0000 0.16060  0.75940  0.75410  Biso   1.000  H
  H124     1.0000 0.83940  0.75940  0.74590  Biso   1.000  H
  H125     1.0000 0.33940  0.74060  0.24590  Biso   1.000  H
  H126     1.0000 0.66060  0.74060  0.25410  Biso   1.000  H
  H127     1.0000 0.83940  0.24060  0.24590  Biso   1.000  H
  H128     1.0000 0.16060  0.24060  0.25410  Biso   1.000  H
  C153     1.0000 0.58793  0.43890  0.79720  Biso   1.000  C
  C154     1.0000 0.41207  0.43890  0.70280  Biso   1.000  C
  C155     1.0000 0.08793  0.93890  0.79720  Biso   1.000  C
  C156     1.0000 0.91207  0.93890  0.70280  Biso   1.000  C
  C157     1.0000 0.41207  0.56110  0.20280  Biso   1.000  C
  C158     1.0000 0.58793  0.56110  0.29720  Biso   1.000  C
  C159     1.0000 0.91207  0.06110  0.20280  Biso   1.000  C
  C160     1.0000 0.08793  0.06110  0.29720  Biso   1.000  C
  H129     1.0000 0.55560  0.47110  0.75680  Biso   1.000  H
  H130     1.0000 0.44440  0.47110  0.74320  Biso   1.000  H
  H131     1.0000 0.05560  0.97110  0.75680  Biso   1.000  H
  H132     1.0000 0.94440  0.97110  0.74320  Biso   1.000  H
  H133     1.0000 0.44440  0.52890  0.24320  Biso   1.000  H
  H134     1.0000 0.55560  0.52890  0.25680  Biso   1.000  H
  H135     1.0000 0.94440  0.02890  0.24320  Biso   1.000  H
  H136     1.0000 0.05560  0.02890  0.25680  Biso   1.000  H
  C161     1.0000 0.60224  0.45630  0.86342  Biso   1.000  C
  C162     1.0000 0.39776  0.45630  0.63658  Biso   1.000  C
  C163     1.0000 0.10224  0.95630  0.86342  Biso   1.000  C
  C164     1.0000 0.89776  0.95630  0.63658  Biso   1.000  C
  C165     1.0000 0.39776  0.54370  0.13658  Biso   1.000  C
  C166     1.0000 0.60224  0.54370  0.36342  Biso   1.000  C
  C167     1.0000 0.89776  0.04370  0.13658  Biso   1.000  C
  C168     1.0000 0.10224  0.04370  0.36342  Biso   1.000  C
  H137     1.0000 0.58090  0.50230  0.87660  Biso   1.000  H
  H138     1.0000 0.41910  0.50230  0.62340  Biso   1.000  H
  H139     1.0000 0.08090  0.00230  0.87660  Biso   1.000  H
  H140     1.0000 0.91910  0.00230  0.62340  Biso   1.000  H
  H141     1.0000 0.41910  0.49770  0.12340  Biso   1.000  H
  H142     1.0000 0.58090  0.49770  0.37660  Biso   1.000  H
  H143     1.0000 0.91910  0.99770  0.12340  Biso   1.000  H
  H144     1.0000 0.08090  0.99770  0.37660  Biso   1.000  H
  C169     1.0000 0.66817  0.34110  0.86864  Biso   1.000  C
  C170     1.0000 0.33183  0.34110  0.63136  Biso   1.000  C
  C171     1.0000 0.16817  0.84110  0.86864  Biso   1.000  C
  C172     1.0000 0.83183  0.84110  0.63136  Biso   1.000  C
  C173     1.0000 0.33183  0.65890  0.13136  Biso   1.000  C
  C174     1.0000 0.66817  0.65890  0.36864  Biso   1.000  C
  C175     1.0000 0.83183  0.15890  0.13136  Biso   1.000  C
  C176     1.0000 0.16817  0.15890  0.36864  Biso   1.000  C
  H145     1.0000 0.70110  0.29220  0.88530  Biso   1.000  H
  H146     1.0000 0.29890  0.29220  0.61470  Biso   1.000  H
  H147     1.0000 0.20110  0.79220  0.88530  Biso   1.000  H
  H148     1.0000 0.79890  0.79220  0.61470  Biso   1.000  H
  H149     1.0000 0.29890  0.70780  0.11470  Biso   1.000  H
  H150     1.0000 0.70110  0.70780  0.38530  Biso   1.000  H
  H151     1.0000 0.79890  0.20780  0.11470  Biso   1.000  H
  H152     1.0000 0.20110  0.20780  0.38530  Biso   1.000  H
  C177     1.0000 0.79752  0.50940  0.72411  Biso   1.000  C
  C178     1.0000 0.20248  0.50940  0.77589  Biso   1.000  C
  C179     1.0000 0.29752  0.00940  0.72411  Biso   1.000  C
  C180     1.0000 0.70248  0.00940  0.77589  Biso   1.000  C
  C181     1.0000 0.20248  0.49060  0.27589  Biso   1.000  C
  C182     1.0000 0.79752  0.49060  0.22411  Biso   1.000  C
  C183     1.0000 0.70248  0.99060  0.27589  Biso   1.000  C
  C184     1.0000 0.29752  0.99060  0.22411  Biso   1.000  C
  H153     1.0000 0.82610  0.46520  0.76350  Biso   1.000  H
  H154     1.0000 0.17390  0.46520  0.73650  Biso   1.000  H
  H155     1.0000 0.32610  0.96520  0.76350  Biso   1.000  H
  H156     1.0000 0.67390  0.96520  0.73650  Biso   1.000  H
  H157     1.0000 0.17390  0.53480  0.23650  Biso   1.000  H
  H158     1.0000 0.82610  0.53480  0.26350  Biso   1.000  H
  H159     1.0000 0.67390  0.03480  0.23650  Biso   1.000  H
  H160     1.0000 0.32610  0.03480  0.26350  Biso   1.000  H
  C185     1.0000 0.78898  0.51080  0.65965  Biso   1.000  C
  C186     1.0000 0.21102  0.51080  0.84035  Biso   1.000  C
  C187     1.0000 0.28898  0.01080  0.65965  Biso   1.000  C
  C188     1.0000 0.71102  0.01080  0.84035  Biso   1.000  C
  C189     1.0000 0.21102  0.48920  0.34035  Biso   1.000  C
  C190     1.0000 0.78898  0.48920  0.15965  Biso   1.000  C
  C191     1.0000 0.71102  0.98920  0.34035  Biso   1.000  C
  C192     1.0000 0.28898  0.98920  0.15965  Biso   1.000  C
  H161     1.0000 0.81130  0.46720  0.64710  Biso   1.000  H
  H162     1.0000 0.18870  0.46720  0.85290  Biso   1.000  H
  H163     1.0000 0.31130  0.96720  0.64710  Biso   1.000  H
  H164     1.0000 0.68870  0.96720  0.85290  Biso   1.000  H
  H165     1.0000 0.18870  0.53280  0.35290  Biso   1.000  H
  H166     1.0000 0.81130  0.53280  0.14710  Biso   1.000  H
  H167     1.0000 0.68870  0.03280  0.35290  Biso   1.000  H
  H168     1.0000 0.31130  0.03280  0.14710  Biso   1.000  H
  N1       1.0000 0.43616  0.95230  0.67427  Biso   1.000  N
  N2       1.0000 0.56384  0.95230  0.82573  Biso   1.000  N
  N3       1.0000 0.93616  0.45230  0.67427  Biso   1.000  N
  N4       1.0000 0.06384  0.45230  0.82573  Biso   1.000  N
  N5       1.0000 0.56384  0.04770  0.32573  Biso   1.000  N
  N6       1.0000 0.43616  0.04770  0.17427  Biso   1.000  N
  N7       1.0000 0.06384  0.54770  0.32573  Biso   1.000  N
  N8       1.0000 0.93616  0.54770  0.17427  Biso   1.000  N
  N9       1.0000 0.56551  0.03990  0.58707  Biso   1.000  N
  N10      1.0000 0.43449  0.03990  0.91293  Biso   1.000  N
  N11      1.0000 0.06551  0.53990  0.58707  Biso   1.000  N
  N12      1.0000 0.93449  0.53990  0.91293  Biso   1.000  N
  N13      1.0000 0.43449  0.96010  0.41293  Biso   1.000  N
  N14      1.0000 0.56551  0.96010  0.08707  Biso   1.000  N
  N15      1.0000 0.93449  0.46010  0.41293  Biso   1.000  N
  N16      1.0000 0.06551  0.46010  0.08707  Biso   1.000  N
  H169     1.0000 0.57200  0.96420  0.60670  Biso   1.000  H
  H170     1.0000 0.42800  0.96420  0.89330  Biso   1.000  H
  H171     1.0000 0.07200  0.46420  0.60670  Biso   1.000  H
  H172     1.0000 0.92800  0.46420  0.89330  Biso   1.000  H
  H173     1.0000 0.42800  0.03580  0.39330  Biso   1.000  H
  H174     1.0000 0.57200  0.03580  0.10670  Biso   1.000  H
  H175     1.0000 0.92800  0.53580  0.39330  Biso   1.000  H
  H176     1.0000 0.07200  0.53580  0.10670  Biso   1.000  H
  N17      1.0000 0.74267  0.58590  0.61565  Biso   1.000  N
  N18      1.0000 0.25733  0.58590  0.88435  Biso   1.000  N
  N19      1.0000 0.24267  0.08590  0.61565  Biso   1.000  N
  N20      1.0000 0.75733  0.08590  0.88435  Biso   1.000  N
  N21      1.0000 0.25733  0.41410  0.38435  Biso   1.000  N
  N22      1.0000 0.74267  0.41410  0.11565  Biso   1.000  N
  N23      1.0000 0.75733  0.91410  0.38435  Biso   1.000  N
  N24      1.0000 0.24267  0.91410  0.11565  Biso   1.000  N
  N25      1.0000 0.75575  0.58590  0.71975  Biso   1.000  N
  N26      1.0000 0.24425  0.58590  0.78025  Biso   1.000  N
  N27      1.0000 0.25575  0.08590  0.71975  Biso   1.000  N
  N28      1.0000 0.74425  0.08590  0.78025  Biso   1.000  N
  N29      1.0000 0.24425  0.41410  0.28025  Biso   1.000  N
  N30      1.0000 0.75575  0.41410  0.21975  Biso   1.000  N
  N31      1.0000 0.74425  0.91410  0.28025  Biso   1.000  N
  N32      1.0000 0.25575  0.91410  0.21975  Biso   1.000  N
  N33      1.0000 0.65352  0.39550  0.90897  Biso   1.000  N
  N34      1.0000 0.34648  0.39550  0.59103  Biso   1.000  N
  N35      1.0000 0.15352  0.89550  0.90897  Biso   1.000  N
  N36      1.0000 0.84648  0.89550  0.59103  Biso   1.000  N
  N37      1.0000 0.34648  0.60450  0.09103  Biso   1.000  N
  N38      1.0000 0.65352  0.60450  0.40897  Biso   1.000  N
  N39      1.0000 0.84648  0.10450  0.09103  Biso   1.000  N
  N40      1.0000 0.15352  0.10450  0.40897  Biso   1.000  N
  N41      1.0000 0.62980  0.36490  0.80051  Biso   1.000  N
  N42      1.0000 0.37020  0.36490  0.69949  Biso   1.000  N
  N43      1.0000 0.12980  0.86490  0.80051  Biso   1.000  N
  N44      1.0000 0.87020  0.86490  0.69949  Biso   1.000  N
  N45      1.0000 0.37020  0.63510  0.19949  Biso   1.000  N
  N46      1.0000 0.62980  0.63510  0.30051  Biso   1.000  N
  N47      1.0000 0.87020  0.13510  0.19949  Biso   1.000  N
  N48      1.0000 0.12980  0.13510  0.30051  Biso   1.000  N
  O1       1.0000 0.69553  0.39526  0.50972  Biso   1.000  O
  O2       1.0000 0.30447  0.39526  0.99028  Biso   1.000  O
  O3       1.0000 0.19553  0.89526  0.50972  Biso   1.000  O
  O4       1.0000 0.80447  0.89526  0.99028  Biso   1.000  O
  O5       1.0000 0.30447  0.60474  0.49028  Biso   1.000  O
  O6       1.0000 0.69553  0.60474  0.00972  Biso   1.000  O
  O7       1.0000 0.80447  0.10474  0.49028  Biso   1.000  O
  O8       1.0000 0.19553  0.10474  0.00972  Biso   1.000  O
  O9       1.0000 0.62329  0.45680  0.51655  Biso   1.000  O
  O10      1.0000 0.37671  0.45680  0.98345  Biso   1.000  O
  O11      1.0000 0.12329  0.95680  0.51655  Biso   1.000  O
  O12      1.0000 0.87671  0.95680  0.98345  Biso   1.000  O
  O13      1.0000 0.37671  0.54320  0.48345  Biso   1.000  O
  O14      1.0000 0.62329  0.54320  0.01655  Biso   1.000  O
  O15      1.0000 0.87671  0.04320  0.48345  Biso   1.000  O
  O16      1.0000 0.12329  0.04320  0.01655  Biso   1.000  O
  O17      1.0000 0.71515  0.91300  0.48080  Biso   1.000  O
  O18      1.0000 0.28485  0.91300  0.01920  Biso   1.000  O
  O19      1.0000 0.21515  0.41300  0.48080  Biso   1.000  O
  O20      1.0000 0.78485  0.41300  0.01920  Biso   1.000  O
  O21      1.0000 0.28485  0.08700  0.51920  Biso   1.000  O
  O22      1.0000 0.71515  0.08700  0.98080  Biso   1.000  O
  O23      1.0000 0.78485  0.58700  0.51920  Biso   1.000  O
  O24      1.0000 0.21515  0.58700  0.98080  Biso   1.000  O
  O25      1.0000 0.67821  0.77571  0.52211  Biso   1.000  O
  O26      1.0000 0.32179  0.77571  0.97789  Biso   1.000  O
  O27      1.0000 0.17821  0.27571  0.52211  Biso   1.000  O
  O28      1.0000 0.82179  0.27571  0.97789  Biso   1.000  O
  O29      1.0000 0.32179  0.22429  0.47789  Biso   1.000  O
  O30      1.0000 0.67821  0.22429  0.02211  Biso   1.000  O
  O31      1.0000 0.82179  0.72429  0.47789  Biso   1.000  O
  O32      1.0000 0.17821  0.72429  0.02211  Biso   1.000  O
  O33      1.0000 0.51193  0.22180  0.56020  Biso   1.000  O
  O34      1.0000 0.48807  0.22180  0.93980  Biso   1.000  O
  O35      1.0000 0.01193  0.72180  0.56020  Biso   1.000  O
  O36      1.0000 0.98807  0.72180  0.93980  Biso   1.000  O
  O37      1.0000 0.48807  0.77820  0.43980  Biso   1.000  O
  O38      1.0000 0.51193  0.77820  0.06020  Biso   1.000  O
  O39      1.0000 0.98807  0.27820  0.43980  Biso   1.000  O
  O40      1.0000 0.01193  0.27820  0.06020  Biso   1.000  O
  O41      1.0000 0.56269  0.61080  0.55240  Biso   1.000  O
  O42      1.0000 0.43731  0.61080  0.94760  Biso   1.000  O
  O43      1.0000 0.06269  0.11080  0.55240  Biso   1.000  O
  O44      1.0000 0.93731  0.11080  0.94760  Biso   1.000  O
  O45      1.0000 0.43731  0.38920  0.44760  Biso   1.000  O
  O46      1.0000 0.56269  0.38920  0.05240  Biso   1.000  O
  O47      1.0000 0.93731  0.88920  0.44760  Biso   1.000  O
  O48      1.0000 0.06269  0.88920  0.05240  Biso   1.000  O
  O49      1.0000 0.61404  0.79500  0.65657  Biso   1.000  O
  O50      1.0000 0.38596  0.79500  0.84343  Biso   1.000  O
  O51      1.0000 0.11404  0.29500  0.65657  Biso   1.000  O
  O52      1.0000 0.88596  0.29500  0.84343  Biso   1.000  O
  O53      1.0000 0.38596  0.20500  0.34343  Biso   1.000  O
  O54      1.0000 0.61404  0.20500  0.15657  Biso   1.000  O
  O55      1.0000 0.88596  0.70500  0.34343  Biso   1.000  O
  O56      1.0000 0.11404  0.70500  0.15657  Biso   1.000  O
  H177     1.0000 0.60890  0.77970  0.68950  Biso   1.000  H
  H178     1.0000 0.39110  0.77970  0.81050  Biso   1.000  H
  H179     1.0000 0.10890  0.27970  0.68950  Biso   1.000  H
  H180     1.0000 0.89110  0.27970  0.81050  Biso   1.000  H
  H181     1.0000 0.39110  0.22030  0.31050  Biso   1.000  H
  H182     1.0000 0.60890  0.22030  0.18950  Biso   1.000  H
  H183     1.0000 0.89110  0.72030  0.31050  Biso   1.000  H
  H184     1.0000 0.10890  0.72030  0.18950  Biso   1.000  H
  H185     1.0000 0.59880  0.73610  0.62510  Biso   1.000  H
  H186     1.0000 0.40120  0.73610  0.87490  Biso   1.000  H
  H187     1.0000 0.09880  0.23610  0.62510  Biso   1.000  H
  H188     1.0000 0.90120  0.23610  0.87490  Biso   1.000  H
  H189     1.0000 0.40120  0.26390  0.37490  Biso   1.000  H
  H190     1.0000 0.59880  0.26390  0.12510  Biso   1.000  H
  H191     1.0000 0.90120  0.76390  0.37490  Biso   1.000  H
  H192     1.0000 0.09880  0.76390  0.12510  Biso   1.000  H
  O57      1.0000 0.50645  0.54220  0.62110  Biso   1.000  O
  O58      1.0000 0.49355  0.54220  0.87890  Biso   1.000  O
  O59      1.0000 0.00645  0.04220  0.62110  Biso   1.000  O
  O60      1.0000 0.99355  0.04220  0.87890  Biso   1.000  O
  O61      1.0000 0.49355  0.45780  0.37890  Biso   1.000  O
  O62      1.0000 0.50645  0.45780  0.12110  Biso   1.000  O
  O63      1.0000 0.99355  0.95780  0.37890  Biso   1.000  O
  O64      1.0000 0.00645  0.95780  0.12110  Biso   1.000  O
  H193     1.0000 0.47360  0.54080  0.58770  Biso   1.000  H
  H194     1.0000 0.52640  0.54080  0.91230  Biso   1.000  H
  H195     1.0000 0.97360  0.04080  0.58770  Biso   1.000  H
  H196     1.0000 0.02640  0.04080  0.91230  Biso   1.000  H
  H197     1.0000 0.52640  0.45920  0.41230  Biso   1.000  H
  H198     1.0000 0.47360  0.45920  0.08770  Biso   1.000  H
  H199     1.0000 0.02640  0.95920  0.41230  Biso   1.000  H
  H200     1.0000 0.97360  0.95920  0.08770  Biso   1.000  H
  H201     1.0000 0.52600  0.56280  0.60420  Biso   1.000  H
  H202     1.0000 0.47400  0.56280  0.89580  Biso   1.000  H
  H203     1.0000 0.02600  0.06280  0.60420  Biso   1.000  H
  H204     1.0000 0.97400  0.06280  0.89580  Biso   1.000  H
  H205     1.0000 0.47400  0.43720  0.39580  Biso   1.000  H
  H206     1.0000 0.52600  0.43720  0.10420  Biso   1.000  H
  H207     1.0000 0.97400  0.93720  0.39580  Biso   1.000  H
  H208     1.0000 0.02600  0.93720  0.10420  Biso   1.000  H
  O65      1.0000 0.29840  0.70880  0.60455  Biso   1.000  O
  O66      1.0000 0.70160  0.70880  0.89545  Biso   1.000  O
  O67      1.0000 0.79840  0.20880  0.60455  Biso   1.000  O
  O68      1.0000 0.20160  0.20880  0.89545  Biso   1.000  O
  O69      1.0000 0.70160  0.29120  0.39545  Biso   1.000  O
  O70      1.0000 0.29840  0.29120  0.10455  Biso   1.000  O
  O71      1.0000 0.20160  0.79120  0.39545  Biso   1.000  O
  O72      1.0000 0.79840  0.79120  0.10455  Biso   1.000  O
  O73      1.0000 0.39564  0.76870  0.73321  Biso   1.000  O
  O74      1.0000 0.60436  0.76870  0.76679  Biso   1.000  O
  O75      1.0000 0.89564  0.26870  0.73321  Biso   1.000  O
  O76      1.0000 0.10436  0.26870  0.76679  Biso   1.000  O
  O77      1.0000 0.60436  0.23130  0.26679  Biso   1.000  O
  O78      1.0000 0.39564  0.23130  0.23321  Biso   1.000  O
  O79      1.0000 0.10436  0.73130  0.26679  Biso   1.000  O
  O80      1.0000 0.89564  0.73130  0.23321  Biso   1.000  O
  H209     1.0000 0.36990  0.74700  0.69750  Biso   1.000  H
  H210     1.0000 0.63010  0.74700  0.80250  Biso   1.000  H
  H211     1.0000 0.86990  0.24700  0.69750  Biso   1.000  H
  H212     1.0000 0.13010  0.24700  0.80250  Biso   1.000  H
  H213     1.0000 0.63010  0.25300  0.30250  Biso   1.000  H
  H214     1.0000 0.36990  0.25300  0.19750  Biso   1.000  H
  H215     1.0000 0.13010  0.75300  0.30250  Biso   1.000  H
  H216     1.0000 0.86990  0.75300  0.19750  Biso   1.000  H
  H217     1.0000 0.40900  0.82900  0.72300  Biso   1.000  H
  H218     1.0000 0.59100  0.82900  0.77700  Biso   1.000  H
  H219     1.0000 0.90900  0.32900  0.72300  Biso   1.000  H
  H220     1.0000 0.09100  0.32900  0.77700  Biso   1.000  H
  H221     1.0000 0.59100  0.17100  0.27700  Biso   1.000  H
  H222     1.0000 0.40900  0.17100  0.22300  Biso   1.000  H
  H223     1.0000 0.09100  0.67100  0.27700  Biso   1.000  H
  H224     1.0000 0.90900  0.67100  0.22300  Biso   1.000  H
  H225     1.0000 0.58380  0.56300  0.54400  Biso   1.000  H
  H226     1.0000 0.41620  0.56300  0.95600  Biso   1.000  H
  H227     1.0000 0.08380  0.06300  0.54400  Biso   1.000  H
  H228     1.0000 0.91620  0.06300  0.95600  Biso   1.000  H
  H229     1.0000 0.41620  0.43700  0.45600  Biso   1.000  H
  H230     1.0000 0.58380  0.43700  0.04400  Biso   1.000  H
  H231     1.0000 0.91620  0.93700  0.45600  Biso   1.000  H
  H232     1.0000 0.08380  0.93700  0.04400  Biso   1.000  H
  H233     1.0000 0.29810  0.66600  0.57600  Biso   1.000  H
  H234     1.0000 0.70190  0.66600  0.92400  Biso   1.000  H
  H235     1.0000 0.79810  0.16600  0.57600  Biso   1.000  H
  H236     1.0000 0.20190  0.16600  0.92400  Biso   1.000  H
  H237     1.0000 0.70190  0.33400  0.42400  Biso   1.000  H
  H238     1.0000 0.29810  0.33400  0.07600  Biso   1.000  H
  H239     1.0000 0.20190  0.83400  0.42400  Biso   1.000  H
  H240     1.0000 0.79810  0.83400  0.07600  Biso   1.000  H
  H241     1.0000 0.54340  0.63800  0.52100  Biso   1.000  H
  H242     1.0000 0.45660  0.63800  0.97900  Biso   1.000  H
  H243     1.0000 0.04340  0.13800  0.52100  Biso   1.000  H
  H244     1.0000 0.95660  0.13800  0.97900  Biso   1.000  H
  H245     1.0000 0.45660  0.36200  0.47900  Biso   1.000  H
  H246     1.0000 0.54340  0.36200  0.02100  Biso   1.000  H
  H247     1.0000 0.95660  0.86200  0.47900  Biso   1.000  H
  H248     1.0000 0.04340  0.86200  0.02100  Biso   1.000  H
  H249     1.0000 0.26600  0.76100  0.58200  Biso   1.000  H
  H250     1.0000 0.73400  0.76100  0.91800  Biso   1.000  H
  H251     1.0000 0.76600  0.26100  0.58200  Biso   1.000  H
  H252     1.0000 0.23400  0.26100  0.91800  Biso   1.000  H
  H253     1.0000 0.73400  0.23900  0.41800  Biso   1.000  H
  H254     1.0000 0.26600  0.23900  0.08200  Biso   1.000  H
  H255     1.0000 0.23400  0.73900  0.41800  Biso   1.000  H
  H256     1.0000 0.76600  0.73900  0.08200  Biso   1.000  H
