data_image0
_cell_length_a       7.185
_cell_length_b       9.46
_cell_length_c       10.627
_cell_angle_alpha    106.35
_cell_angle_beta     96.51
_cell_angle_gamma    109.28

_symmetry_space_group_name_H-M    "P 1"
_symmetry_int_tables_number       1

loop_
  _symmetry_equiv_pos_as_xyz
  'x, y, z'

loop_
  _atom_site_label
  _atom_site_occupancy
  _atom_site_fract_x
  _atom_site_fract_y
  _atom_site_fract_z
  _atom_site_thermal_displace_type
  _atom_site_B_iso_or_equiv
  _atom_site_type_symbol
  Hg1      1.0000 0.00000  0.00000  0.00000  Biso   1.000  Hg
  Cu1      1.0000 0.51762  0.98925  0.13533  Biso   1.000  Cu
  Cu2      1.0000 0.48238  0.01075  0.86467  Biso   1.000  Cu
  Cl1      1.0000 0.33056  0.17661  0.24850  Biso   1.000  Cl
  Cl2      1.0000 0.66944  0.82339  0.75150  Biso   1.000  Cl
  O1       1.0000 0.30300  0.56970  0.81630  Biso   1.000  O
  O2       1.0000 0.69700  0.43030  0.18370  Biso   1.000  O
  O3       1.0000 0.32720  0.88360  0.96120  Biso   1.000  O
  O4       1.0000 0.67280  0.11640  0.03880  Biso   1.000  O
  N1       1.0000 0.72610  0.08670  0.31000  Biso   1.000  N
  N2       1.0000 0.27390  0.91330  0.69000  Biso   1.000  N
  N3       1.0000 0.41960  0.81480  0.21300  Biso   1.000  N
  N4       1.0000 0.58040  0.18520  0.78700  Biso   1.000  N
  N5       1.0000 0.21350  0.28100  0.89640  Biso   1.000  N
  N6       1.0000 0.78650  0.71900  0.10360  Biso   1.000  N
  C1       1.0000 0.87210  0.23290  0.35570  Biso   1.000  C
  C2       1.0000 0.12790  0.76710  0.64430  Biso   1.000  C
  C3       1.0000 0.99330  0.29680  0.48400  Biso   1.000  C
  C4       1.0000 0.00670  0.70320  0.51600  Biso   1.000  C
  C5       1.0000 0.96260  0.20910  0.56900  Biso   1.000  C
  C6       1.0000 0.03740  0.79090  0.43100  Biso   1.000  C
  C7       1.0000 0.81130  0.05850  0.52310  Biso   1.000  C
  C8       1.0000 0.18870  0.94150  0.47690  Biso   1.000  C
  C9       1.0000 0.69680  0.00010  0.39310  Biso   1.000  C
  C10      1.0000 0.30320  0.99990  0.60690  Biso   1.000  C
  C11      1.0000 0.53350  0.84130  0.33300  Biso   1.000  C
  C12      1.0000 0.46650  0.15870  0.66700  Biso   1.000  C
  C13      1.0000 0.50140  0.72510  0.39270  Biso   1.000  C
  C14      1.0000 0.49860  0.27490  0.60730  Biso   1.000  C
  C15      1.0000 0.34680  0.57880  0.32660  Biso   1.000  C
  C16      1.0000 0.65320  0.42120  0.67340  Biso   1.000  C
  C17      1.0000 0.22910  0.55290  0.20610  Biso   1.000  C
  C18      1.0000 0.77090  0.44710  0.79390  Biso   1.000  C
  C19      1.0000 0.26800  0.67290  0.15190  Biso   1.000  C
  C20      1.0000 0.73200  0.32710  0.84810  Biso   1.000  C
  C21      1.0000 0.14010  0.18220  0.92830  Biso   1.000  C
  C22      1.0000 0.85990  0.81780  0.07170  Biso   1.000  C
  H1       1.0000 0.89230  0.29380  0.29740  Biso   1.000  H
  H2       1.0000 0.10770  0.70620  0.70260  Biso   1.000  H
  H3       1.0000 0.09620  0.40050  0.51370  Biso   1.000  H
  H4       1.0000 0.90380  0.59950  0.48630  Biso   1.000  H
  H5       1.0000 0.04450  0.25130  0.65780  Biso   1.000  H
  H6       1.0000 0.95550  0.74870  0.34220  Biso   1.000  H
  H7       1.0000 0.78630  0.99580  0.57980  Biso   1.000  H
  H8       1.0000 0.21370  0.00420  0.42020  Biso   1.000  H
  H9       1.0000 0.58520  0.74650  0.47710  Biso   1.000  H
  H10      1.0000 0.41480  0.25350  0.52290  Biso   1.000  H
  H11      1.0000 0.32230  0.49680  0.36480  Biso   1.000  H
  H12      1.0000 0.67770  0.50320  0.63520  Biso   1.000  H
  H13      1.0000 0.12080  0.45340  0.16000  Biso   1.000  H
  H14      1.0000 0.87920  0.54660  0.84000  Biso   1.000  H
  H15      1.0000 0.18510  0.65450  0.06810  Biso   1.000  H
  H16      1.0000 0.81490  0.34550  0.93190  Biso   1.000  H
  H17      1.0000 0.32500  0.51600  0.85300  Biso   1.000  H
  H18      1.0000 0.67500  0.48400  0.14700  Biso   1.000  H
  H19      1.0000 0.38500  0.62300  0.79700  Biso   1.000  H
  H20      1.0000 0.61500  0.37700  0.20300  Biso   1.000  H
  H21      1.0000 0.31300  0.80400  0.93000  Biso   1.000  H
  H22      1.0000 0.68700  0.19600  0.07000  Biso   1.000  H
