data_image0
_cell_length_a       7.913
_cell_length_b       8.384
_cell_length_c       13.584
_cell_angle_alpha    81.35
_cell_angle_beta     73.33
_cell_angle_gamma    75.6

_symmetry_space_group_name_H-M    "P 1"
_symmetry_int_tables_number       1

loop_
  _symmetry_equiv_pos_as_xyz
  'x, y, z'

loop_
  _atom_site_label
  _atom_site_occupancy
  _atom_site_fract_x
  _atom_site_fract_y
  _atom_site_fract_z
  _atom_site_thermal_displace_type
  _atom_site_B_iso_or_equiv
  _atom_site_type_symbol
  Hg1      1.0000 0.02796  0.83861  0.85450  Biso   1.000  Hg
  Hg2      1.0000 0.97204  0.16139  0.14550  Biso   1.000  Hg
  Hg3      1.0000 0.50000  0.50000  0.00000  Biso   1.000  Hg
  Cu1      1.0000 0.14669  0.40562  0.77095  Biso   1.000  Cu
  Cu2      1.0000 0.85331  0.59438  0.22905  Biso   1.000  Cu
  Cl1      1.0000 0.33490  0.58510  0.80875  Biso   1.000  Cl
  Cl2      1.0000 0.66510  0.41490  0.19125  Biso   1.000  Cl
  Cl3      1.0000 0.86830  0.58637  0.80633  Biso   1.000  Cl
  Cl4      1.0000 0.13170  0.41363  0.19367  Biso   1.000  Cl
  N1       1.0000 0.20060  0.46280  0.61890  Biso   1.000  N
  N2       1.0000 0.79940  0.53720  0.38110  Biso   1.000  N
  N3       1.0000 0.35230  0.21590  0.72520  Biso   1.000  N
  N4       1.0000 0.64770  0.78410  0.27480  Biso   1.000  N
  N5       1.0000 0.10070  0.03350  0.63550  Biso   1.000  N
  N6       1.0000 0.89930  0.96650  0.36450  Biso   1.000  N
  N7       1.0000 0.91890  0.70200  0.08860  Biso   1.000  N
  N8       1.0000 0.08110  0.29800  0.91140  Biso   1.000  N
  N9       1.0000 0.67200  0.12800  0.95770  Biso   1.000  N
  N10      1.0000 0.32800  0.87200  0.04230  Biso   1.000  N
  C1       1.0000 0.33570  0.35410  0.56270  Biso   1.000  C
  C2       1.0000 0.66430  0.64590  0.43730  Biso   1.000  C
  C3       1.0000 0.38370  0.37930  0.45540  Biso   1.000  C
  C4       1.0000 0.61630  0.62070  0.54460  Biso   1.000  C
  C5       1.0000 0.29500  0.51560  0.40680  Biso   1.000  C
  C6       1.0000 0.70500  0.48440  0.59320  Biso   1.000  C
  C7       1.0000 0.16300  0.62510  0.46490  Biso   1.000  C
  C8       1.0000 0.83700  0.37490  0.53510  Biso   1.000  C
  C9       1.0000 0.11680  0.59610  0.57080  Biso   1.000  C
  C10      1.0000 0.88320  0.40390  0.42920  Biso   1.000  C
  C11      1.0000 0.42360  0.21540  0.62230  Biso   1.000  C
  C12      1.0000 0.57640  0.78460  0.37770  Biso   1.000  C
  C13      1.0000 0.56930  0.09410  0.58060  Biso   1.000  C
  C14      1.0000 0.43070  0.90590  0.41940  Biso   1.000  C
  C15      1.0000 0.64200  0.97050  0.64460  Biso   1.000  C
  C16      1.0000 0.35800  0.02950  0.35540  Biso   1.000  C
  C17      1.0000 0.57000  0.96820  0.74870  Biso   1.000  C
  C18      1.0000 0.43000  0.03180  0.25130  Biso   1.000  C
  C19      1.0000 0.42480  0.09390  0.78770  Biso   1.000  C
  C20      1.0000 0.57520  0.90610  0.21230  Biso   1.000  C
  C21      1.0000 0.07320  0.96950  0.71340  Biso   1.000  C
  C22      1.0000 0.92680  0.03050  0.28660  Biso   1.000  C
  C23      1.0000 0.95770  0.75750  0.00710  Biso   1.000  C
  C24      1.0000 0.04230  0.24250  0.99290  Biso   1.000  C
  C25      1.0000 0.60700  0.26260  0.97250  Biso   1.000  C
  C26      1.0000 0.39300  0.73740  0.02750  Biso   1.000  C
  H1       1.0000 0.47770  0.30100  0.41620  Biso   1.000  H
  H2       1.0000 0.52230  0.69900  0.58380  Biso   1.000  H
  H3       1.0000 0.32600  0.53230  0.33370  Biso   1.000  H
  H4       1.0000 0.67400  0.46770  0.66630  Biso   1.000  H
  H5       1.0000 0.10200  0.72160  0.43230  Biso   1.000  H
  H6       1.0000 0.89800  0.27840  0.56770  Biso   1.000  H
  H7       1.0000 0.02410  0.67410  0.61100  Biso   1.000  H
  H8       1.0000 0.97590  0.32590  0.38900  Biso   1.000  H
  H9       1.0000 0.61940  0.09620  0.50810  Biso   1.000  H
  H10      1.0000 0.38060  0.90380  0.49190  Biso   1.000  H
  H11      1.0000 0.74200  0.88610  0.61640  Biso   1.000  H
  H12      1.0000 0.25800  0.11390  0.38360  Biso   1.000  H
  H13      1.0000 0.62000  0.88370  0.79390  Biso   1.000  H
  H14      1.0000 0.38000  0.11630  0.20610  Biso   1.000  H
  H15      1.0000 0.37330  0.09370  0.86010  Biso   1.000  H
  H16      1.0000 0.62670  0.90630  0.13990  Biso   1.000  H
