data_image0
_cell_length_a       27.211
_cell_length_b       9.567
_cell_length_c       18.565
_cell_angle_alpha    90
_cell_angle_beta     111.818
_cell_angle_gamma    90

_symmetry_space_group_name_H-M    "P 1"
_symmetry_int_tables_number       1

loop_
  _symmetry_equiv_pos_as_xyz
  'x, y, z'

loop_
  _atom_site_label
  _atom_site_occupancy
  _atom_site_fract_x
  _atom_site_fract_y
  _atom_site_fract_z
  _atom_site_thermal_displace_type
  _atom_site_B_iso_or_equiv
  _atom_site_type_symbol
  Cu1      1.0000 0.07830  0.61848  0.18138  Biso   1.000  Cu
  Cu2      1.0000 0.57830  0.11848  0.18138  Biso   1.000  Cu
  Cu3      1.0000 0.07830  0.38152  0.68138  Biso   1.000  Cu
  Cu4      1.0000 0.57830  0.88152  0.68138  Biso   1.000  Cu
  Cu5      1.0000 0.92170  0.38152  0.81862  Biso   1.000  Cu
  Cu6      1.0000 0.42170  0.88152  0.81862  Biso   1.000  Cu
  Cu7      1.0000 0.92170  0.61848  0.31862  Biso   1.000  Cu
  Cu8      1.0000 0.42170  0.11848  0.31862  Biso   1.000  Cu
  Cu9      1.0000 0.07719  0.11201  0.11782  Biso   1.000  Cu
  Cu10     1.0000 0.57719  0.61201  0.11782  Biso   1.000  Cu
  Cu11     1.0000 0.07719  0.88799  0.61782  Biso   1.000  Cu
  Cu12     1.0000 0.57719  0.38799  0.61782  Biso   1.000  Cu
  Cu13     1.0000 0.92281  0.88799  0.88218  Biso   1.000  Cu
  Cu14     1.0000 0.42281  0.38799  0.88218  Biso   1.000  Cu
  Cu15     1.0000 0.92281  0.11201  0.38218  Biso   1.000  Cu
  Cu16     1.0000 0.42281  0.61201  0.38218  Biso   1.000  Cu
  Cu17     1.0000 0.25250  0.89660  0.85889  Biso   1.000  Cu
  Cu18     1.0000 0.75250  0.39660  0.85889  Biso   1.000  Cu
  Cu19     1.0000 0.25250  0.10340  0.35889  Biso   1.000  Cu
  Cu20     1.0000 0.75250  0.60340  0.35889  Biso   1.000  Cu
  Cu21     1.0000 0.74750  0.10340  0.14111  Biso   1.000  Cu
  Cu22     1.0000 0.24750  0.60340  0.14111  Biso   1.000  Cu
  Cu23     1.0000 0.74750  0.89660  0.64111  Biso   1.000  Cu
  Cu24     1.0000 0.24750  0.39660  0.64111  Biso   1.000  Cu
  O1       1.0000 0.07420  0.67930  0.07930  Biso   1.000  O
  O2       1.0000 0.57420  0.17930  0.07930  Biso   1.000  O
  O3       1.0000 0.07420  0.32070  0.57930  Biso   1.000  O
  O4       1.0000 0.57420  0.82070  0.57930  Biso   1.000  O
  O5       1.0000 0.92580  0.32070  0.92070  Biso   1.000  O
  O6       1.0000 0.42580  0.82070  0.92070  Biso   1.000  O
  O7       1.0000 0.92580  0.67930  0.42070  Biso   1.000  O
  O8       1.0000 0.42580  0.17930  0.42070  Biso   1.000  O
  O9       1.0000 0.14250  0.54280  0.09860  Biso   1.000  O
  O10      1.0000 0.64250  0.04280  0.09860  Biso   1.000  O
  O11      1.0000 0.14250  0.45720  0.59860  Biso   1.000  O
  O12      1.0000 0.64250  0.95720  0.59860  Biso   1.000  O
  O13      1.0000 0.85750  0.45720  0.90140  Biso   1.000  O
  O14      1.0000 0.35750  0.95720  0.90140  Biso   1.000  O
  O15      1.0000 0.85750  0.54280  0.40140  Biso   1.000  O
  O16      1.0000 0.35750  0.04280  0.40140  Biso   1.000  O
  O17      1.0000 0.07490  0.00300  0.02670  Biso   1.000  O
  O18      1.0000 0.57490  0.50300  0.02670  Biso   1.000  O
  O19      1.0000 0.07490  0.99700  0.52670  Biso   1.000  O
  O20      1.0000 0.57490  0.49700  0.52670  Biso   1.000  O
  O21      1.0000 0.92510  0.99700  0.97330  Biso   1.000  O
  O22      1.0000 0.42510  0.49700  0.97330  Biso   1.000  O
  O23      1.0000 0.92510  0.00300  0.47330  Biso   1.000  O
  O24      1.0000 0.42510  0.50300  0.47330  Biso   1.000  O
  O25      1.0000 0.14970  0.91510  0.11080  Biso   1.000  O
  O26      1.0000 0.64970  0.41510  0.11080  Biso   1.000  O
  O27      1.0000 0.14970  0.08490  0.61080  Biso   1.000  O
  O28      1.0000 0.64970  0.58490  0.61080  Biso   1.000  O
  O29      1.0000 0.85030  0.08490  0.88920  Biso   1.000  O
  O30      1.0000 0.35030  0.58490  0.88920  Biso   1.000  O
  O31      1.0000 0.85030  0.91510  0.38920  Biso   1.000  O
  O32      1.0000 0.35030  0.41510  0.38920  Biso   1.000  O
  O33      1.0000 0.10050  0.09900  0.83900  Biso   1.000  O
  O34      1.0000 0.60050  0.59900  0.83900  Biso   1.000  O
  O35      1.0000 0.10050  0.90100  0.33900  Biso   1.000  O
  O36      1.0000 0.60050  0.40100  0.33900  Biso   1.000  O
  O37      1.0000 0.89950  0.90100  0.16100  Biso   1.000  O
  O38      1.0000 0.39950  0.40100  0.16100  Biso   1.000  O
  O39      1.0000 0.89950  0.09900  0.66100  Biso   1.000  O
  O40      1.0000 0.39950  0.59900  0.66100  Biso   1.000  O
  O41      1.0000 0.15450  0.10790  0.96210  Biso   1.000  O
  O42      1.0000 0.65450  0.60790  0.96210  Biso   1.000  O
  O43      1.0000 0.15450  0.89210  0.46210  Biso   1.000  O
  O44      1.0000 0.65450  0.39210  0.46210  Biso   1.000  O
  O45      1.0000 0.84550  0.89210  0.03790  Biso   1.000  O
  O46      1.0000 0.34550  0.39210  0.03790  Biso   1.000  O
  O47      1.0000 0.84550  0.10790  0.53790  Biso   1.000  O
  O48      1.0000 0.34550  0.60790  0.53790  Biso   1.000  O
  O49      1.0000 0.08560  0.82620  0.72020  Biso   1.000  O
  O50      1.0000 0.58560  0.32620  0.72020  Biso   1.000  O
  O51      1.0000 0.08560  0.17380  0.22020  Biso   1.000  O
  O52      1.0000 0.58560  0.67380  0.22020  Biso   1.000  O
  O53      1.0000 0.91440  0.17380  0.27980  Biso   1.000  O
  O54      1.0000 0.41440  0.67380  0.27980  Biso   1.000  O
  O55      1.0000 0.91440  0.82620  0.77980  Biso   1.000  O
  O56      1.0000 0.41440  0.32620  0.77980  Biso   1.000  O
  O57      1.0000 0.16490  0.91890  0.77770  Biso   1.000  O
  O58      1.0000 0.66490  0.41890  0.77770  Biso   1.000  O
  O59      1.0000 0.16490  0.08110  0.27770  Biso   1.000  O
  O60      1.0000 0.66490  0.58110  0.27770  Biso   1.000  O
  O61      1.0000 0.83510  0.08110  0.22230  Biso   1.000  O
  O62      1.0000 0.33510  0.58110  0.22230  Biso   1.000  O
  O63      1.0000 0.83510  0.91890  0.72230  Biso   1.000  O
  O64      1.0000 0.33510  0.41890  0.72230  Biso   1.000  O
  O65      1.0000 0.09080  0.45870  0.78310  Biso   1.000  O
  O66      1.0000 0.59080  0.95870  0.78310  Biso   1.000  O
  O67      1.0000 0.09080  0.54130  0.28310  Biso   1.000  O
  O68      1.0000 0.59080  0.04130  0.28310  Biso   1.000  O
  O69      1.0000 0.90920  0.54130  0.21690  Biso   1.000  O
  O70      1.0000 0.40920  0.04130  0.21690  Biso   1.000  O
  O71      1.0000 0.90920  0.45870  0.71690  Biso   1.000  O
  O72      1.0000 0.40920  0.95870  0.71690  Biso   1.000  O
  O73      1.0000 0.15480  0.58060  0.76560  Biso   1.000  O
  O74      1.0000 0.65480  0.08060  0.76560  Biso   1.000  O
  O75      1.0000 0.15480  0.41940  0.26560  Biso   1.000  O
  O76      1.0000 0.65480  0.91940  0.26560  Biso   1.000  O
  O77      1.0000 0.84520  0.41940  0.23440  Biso   1.000  O
  O78      1.0000 0.34520  0.91940  0.23440  Biso   1.000  O
  O79      1.0000 0.84520  0.58060  0.73440  Biso   1.000  O
  O80      1.0000 0.34520  0.08060  0.73440  Biso   1.000  O
  O81      1.0000 0.07420  0.39290  0.93790  Biso   1.000  O
  O82      1.0000 0.57420  0.89290  0.93790  Biso   1.000  O
  O83      1.0000 0.07420  0.60710  0.43790  Biso   1.000  O
  O84      1.0000 0.57420  0.10710  0.43790  Biso   1.000  O
  O85      1.0000 0.92580  0.60710  0.06210  Biso   1.000  O
  O86      1.0000 0.42580  0.10710  0.06210  Biso   1.000  O
  O87      1.0000 0.92580  0.39290  0.56210  Biso   1.000  O
  O88      1.0000 0.42580  0.89290  0.56210  Biso   1.000  O
  O89      1.0000 0.15810  0.37250  0.95140  Biso   1.000  O
  O90      1.0000 0.65810  0.87250  0.95140  Biso   1.000  O
  O91      1.0000 0.15810  0.62750  0.45140  Biso   1.000  O
  O92      1.0000 0.65810  0.12750  0.45140  Biso   1.000  O
  O93      1.0000 0.84190  0.62750  0.04860  Biso   1.000  O
  O94      1.0000 0.34190  0.12750  0.04860  Biso   1.000  O
  O95      1.0000 0.84190  0.37250  0.54860  Biso   1.000  O
  O96      1.0000 0.34190  0.87250  0.54860  Biso   1.000  O
  O97      1.0000 0.13130  0.76440  0.23130  Biso   1.000  O
  O98      1.0000 0.63130  0.26440  0.23130  Biso   1.000  O
  O99      1.0000 0.13130  0.23560  0.73130  Biso   1.000  O
  O100     1.0000 0.63130  0.73560  0.73130  Biso   1.000  O
  O101     1.0000 0.86870  0.23560  0.76870  Biso   1.000  O
  O102     1.0000 0.36870  0.73560  0.76870  Biso   1.000  O
  O103     1.0000 0.86870  0.76440  0.26870  Biso   1.000  O
  O104     1.0000 0.36870  0.26440  0.26870  Biso   1.000  O
  O105     1.0000 0.00720  0.75980  0.17830  Biso   1.000  O
  O106     1.0000 0.50720  0.25980  0.17830  Biso   1.000  O
  O107     1.0000 0.00720  0.24020  0.67830  Biso   1.000  O
  O108     1.0000 0.50720  0.74020  0.67830  Biso   1.000  O
  O109     1.0000 0.99280  0.24020  0.82170  Biso   1.000  O
  O110     1.0000 0.49280  0.74020  0.82170  Biso   1.000  O
  O111     1.0000 0.99280  0.75980  0.32170  Biso   1.000  O
  O112     1.0000 0.49280  0.25980  0.32170  Biso   1.000  O
  O113     1.0000 0.02520  0.47340  0.13710  Biso   1.000  O
  O114     1.0000 0.52520  0.97340  0.13710  Biso   1.000  O
  O115     1.0000 0.02520  0.52660  0.63710  Biso   1.000  O
  O116     1.0000 0.52520  0.02660  0.63710  Biso   1.000  O
  O117     1.0000 0.97480  0.52660  0.86290  Biso   1.000  O
  O118     1.0000 0.47480  0.02660  0.86290  Biso   1.000  O
  O119     1.0000 0.97480  0.47340  0.36290  Biso   1.000  O
  O120     1.0000 0.47480  0.97340  0.36290  Biso   1.000  O
  O121     1.0000 0.00850  0.02090  0.11190  Biso   1.000  O
  O122     1.0000 0.50850  0.52090  0.11190  Biso   1.000  O
  O123     1.0000 0.00850  0.97910  0.61190  Biso   1.000  O
  O124     1.0000 0.50850  0.47910  0.61190  Biso   1.000  O
  O125     1.0000 0.99150  0.97910  0.88810  Biso   1.000  O
  O126     1.0000 0.49150  0.47910  0.88810  Biso   1.000  O
  O127     1.0000 0.99150  0.02090  0.38810  Biso   1.000  O
  O128     1.0000 0.49150  0.52090  0.38810  Biso   1.000  O
  O129     1.0000 0.13650  0.23190  0.11790  Biso   1.000  O
  O130     1.0000 0.63650  0.73190  0.11790  Biso   1.000  O
  O131     1.0000 0.13650  0.76810  0.61790  Biso   1.000  O
  O132     1.0000 0.63650  0.26810  0.61790  Biso   1.000  O
  O133     1.0000 0.86350  0.76810  0.88210  Biso   1.000  O
  O134     1.0000 0.36350  0.26810  0.88210  Biso   1.000  O
  O135     1.0000 0.86350  0.23190  0.38210  Biso   1.000  O
  O136     1.0000 0.36350  0.73190  0.38210  Biso   1.000  O
  O137     1.0000 0.02580  0.28100  0.02890  Biso   1.000  O
  O138     1.0000 0.52580  0.78100  0.02890  Biso   1.000  O
  O139     1.0000 0.02580  0.71900  0.52890  Biso   1.000  O
  O140     1.0000 0.52580  0.21900  0.52890  Biso   1.000  O
  O141     1.0000 0.97420  0.71900  0.97110  Biso   1.000  O
  O142     1.0000 0.47420  0.21900  0.97110  Biso   1.000  O
  O143     1.0000 0.97420  0.28100  0.47110  Biso   1.000  O
  O144     1.0000 0.47420  0.78100  0.47110  Biso   1.000  O
  O145     1.0000 0.25590  0.72570  0.80680  Biso   1.000  O
  O146     1.0000 0.75590  0.22570  0.80680  Biso   1.000  O
  O147     1.0000 0.25590  0.27430  0.30680  Biso   1.000  O
  O148     1.0000 0.75590  0.77430  0.30680  Biso   1.000  O
  O149     1.0000 0.74410  0.27430  0.19320  Biso   1.000  O
  O150     1.0000 0.24410  0.77430  0.19320  Biso   1.000  O
  O151     1.0000 0.74410  0.72570  0.69320  Biso   1.000  O
  O152     1.0000 0.24410  0.22570  0.69320  Biso   1.000  O
  O153     1.0000 0.25000  0.80510  0.94430  Biso   1.000  O
  O154     1.0000 0.75000  0.30510  0.94430  Biso   1.000  O
  O155     1.0000 0.25000  0.19490  0.44430  Biso   1.000  O
  O156     1.0000 0.75000  0.69490  0.44430  Biso   1.000  O
  O157     1.0000 0.75000  0.19490  0.05570  Biso   1.000  O
  O158     1.0000 0.25000  0.69490  0.05570  Biso   1.000  O
  O159     1.0000 0.75000  0.80510  0.55570  Biso   1.000  O
  O160     1.0000 0.25000  0.30510  0.55570  Biso   1.000  O
  O161     1.0000 0.25250  0.06340  0.89550  Biso   1.000  O
  O162     1.0000 0.75250  0.56340  0.89550  Biso   1.000  O
  O163     1.0000 0.25250  0.93660  0.39550  Biso   1.000  O
  O164     1.0000 0.75250  0.43660  0.39550  Biso   1.000  O
  O165     1.0000 0.74750  0.93660  0.10450  Biso   1.000  O
  O166     1.0000 0.24750  0.43660  0.10450  Biso   1.000  O
  O167     1.0000 0.74750  0.06340  0.60450  Biso   1.000  O
  O168     1.0000 0.24750  0.56340  0.60450  Biso   1.000  O
  O169     1.0000 0.26170  0.98290  0.76920  Biso   1.000  O
  O170     1.0000 0.76170  0.48290  0.76920  Biso   1.000  O
  O171     1.0000 0.26170  0.01710  0.26920  Biso   1.000  O
  O172     1.0000 0.76170  0.51710  0.26920  Biso   1.000  O
  O173     1.0000 0.73830  0.01710  0.23080  Biso   1.000  O
  O174     1.0000 0.23830  0.51710  0.23080  Biso   1.000  O
  O175     1.0000 0.73830  0.98290  0.73080  Biso   1.000  O
  O176     1.0000 0.23830  0.48290  0.73080  Biso   1.000  O
  O177     1.0000 0.24290  0.17030  0.14370  Biso   1.000  O
  O178     1.0000 0.74290  0.67030  0.14370  Biso   1.000  O
  O179     1.0000 0.24290  0.82970  0.64370  Biso   1.000  O
  O180     1.0000 0.74290  0.32970  0.64370  Biso   1.000  O
  O181     1.0000 0.75710  0.82970  0.85630  Biso   1.000  O
  O182     1.0000 0.25710  0.32970  0.85630  Biso   1.000  O
  O183     1.0000 0.75710  0.17030  0.35630  Biso   1.000  O
  O184     1.0000 0.25710  0.67030  0.35630  Biso   1.000  O
  O185     1.0000 0.25330  0.99150  0.05120  Biso   1.000  O
  O186     1.0000 0.75330  0.49150  0.05120  Biso   1.000  O
  O187     1.0000 0.25330  0.00850  0.55120  Biso   1.000  O
  O188     1.0000 0.75330  0.50850  0.55120  Biso   1.000  O
  O189     1.0000 0.74670  0.00850  0.94880  Biso   1.000  O
  O190     1.0000 0.24670  0.50850  0.94880  Biso   1.000  O
  O191     1.0000 0.74670  0.99150  0.44880  Biso   1.000  O
  O192     1.0000 0.24670  0.49150  0.44880  Biso   1.000  O
  C1       1.0000 0.11770  0.68820  0.98890  Biso   1.000  C
  C2       1.0000 0.61770  0.18820  0.98890  Biso   1.000  C
  C3       1.0000 0.11770  0.31180  0.48890  Biso   1.000  C
  C4       1.0000 0.61770  0.81180  0.48890  Biso   1.000  C
  C5       1.0000 0.88230  0.31180  0.01110  Biso   1.000  C
  C6       1.0000 0.38230  0.81180  0.01110  Biso   1.000  C
  C7       1.0000 0.88230  0.68820  0.51110  Biso   1.000  C
  C8       1.0000 0.38230  0.18820  0.51110  Biso   1.000  C
  C9       1.0000 0.11900  0.83010  0.98010  Biso   1.000  C
  C10      1.0000 0.61900  0.33010  0.98010  Biso   1.000  C
  C11      1.0000 0.11900  0.16990  0.48010  Biso   1.000  C
  C12      1.0000 0.61900  0.66990  0.48010  Biso   1.000  C
  C13      1.0000 0.88100  0.16990  0.01990  Biso   1.000  C
  C14      1.0000 0.38100  0.66990  0.01990  Biso   1.000  C
  C15      1.0000 0.88100  0.83010  0.51990  Biso   1.000  C
  C16      1.0000 0.38100  0.33010  0.51990  Biso   1.000  C
  C17      1.0000 0.12200  0.88590  0.91050  Biso   1.000  C
  C18      1.0000 0.62200  0.38590  0.91050  Biso   1.000  C
  C19      1.0000 0.12200  0.11410  0.41050  Biso   1.000  C
  C20      1.0000 0.62200  0.61410  0.41050  Biso   1.000  C
  C21      1.0000 0.87800  0.11410  0.08950  Biso   1.000  C
  C22      1.0000 0.37800  0.61410  0.08950  Biso   1.000  C
  C23      1.0000 0.87800  0.88590  0.58950  Biso   1.000  C
  C24      1.0000 0.37800  0.38590  0.58950  Biso   1.000  C
  C25      1.0000 0.12660  0.80280  0.85530  Biso   1.000  C
  C26      1.0000 0.62660  0.30280  0.85530  Biso   1.000  C
  C27      1.0000 0.12660  0.19720  0.35530  Biso   1.000  C
  C28      1.0000 0.62660  0.69720  0.35530  Biso   1.000  C
  C29      1.0000 0.87340  0.19720  0.14470  Biso   1.000  C
  C30      1.0000 0.37340  0.69720  0.14470  Biso   1.000  C
  C31      1.0000 0.87340  0.80280  0.64470  Biso   1.000  C
  C32      1.0000 0.37340  0.30280  0.64470  Biso   1.000  C
  C33      1.0000 0.12330  0.65120  0.86480  Biso   1.000  C
  C34      1.0000 0.62330  0.15120  0.86480  Biso   1.000  C
  C35      1.0000 0.12330  0.34880  0.36480  Biso   1.000  C
  C36      1.0000 0.62330  0.84880  0.36480  Biso   1.000  C
  C37      1.0000 0.87670  0.34880  0.13520  Biso   1.000  C
  C38      1.0000 0.37670  0.84880  0.13520  Biso   1.000  C
  C39      1.0000 0.87670  0.65120  0.63520  Biso   1.000  C
  C40      1.0000 0.37670  0.15120  0.63520  Biso   1.000  C
  C41      1.0000 0.11980  0.59390  0.92970  Biso   1.000  C
  C42      1.0000 0.61980  0.09390  0.92970  Biso   1.000  C
  C43      1.0000 0.11980  0.40610  0.42970  Biso   1.000  C
  C44      1.0000 0.61980  0.90610  0.42970  Biso   1.000  C
  C45      1.0000 0.88020  0.40610  0.07030  Biso   1.000  C
  C46      1.0000 0.38020  0.90610  0.07030  Biso   1.000  C
  C47      1.0000 0.88020  0.59390  0.57030  Biso   1.000  C
  C48      1.0000 0.38020  0.09390  0.57030  Biso   1.000  C
  C49      1.0000 0.11150  0.62670  0.06180  Biso   1.000  C
  C50      1.0000 0.61150  0.12670  0.06180  Biso   1.000  C
  C51      1.0000 0.11150  0.37330  0.56180  Biso   1.000  C
  C52      1.0000 0.61150  0.87330  0.56180  Biso   1.000  C
  C53      1.0000 0.88850  0.37330  0.93820  Biso   1.000  C
  C54      1.0000 0.38850  0.87330  0.93820  Biso   1.000  C
  C55      1.0000 0.88850  0.62670  0.43820  Biso   1.000  C
  C56      1.0000 0.38850  0.12670  0.43820  Biso   1.000  C
  C57      1.0000 0.11690  0.92610  0.04300  Biso   1.000  C
  C58      1.0000 0.61690  0.42610  0.04300  Biso   1.000  C
  C59      1.0000 0.11690  0.07390  0.54300  Biso   1.000  C
  C60      1.0000 0.61690  0.57390  0.54300  Biso   1.000  C
  C61      1.0000 0.88310  0.07390  0.95700  Biso   1.000  C
  C62      1.0000 0.38310  0.57390  0.95700  Biso   1.000  C
  C63      1.0000 0.88310  0.92610  0.45700  Biso   1.000  C
  C64      1.0000 0.38310  0.42610  0.45700  Biso   1.000  C
  C65      1.0000 0.12520  0.04580  0.90270  Biso   1.000  C
  C66      1.0000 0.62520  0.54580  0.90270  Biso   1.000  C
  C67      1.0000 0.12520  0.95420  0.40270  Biso   1.000  C
  C68      1.0000 0.62520  0.45420  0.40270  Biso   1.000  C
  C69      1.0000 0.87480  0.95420  0.09730  Biso   1.000  C
  C70      1.0000 0.37480  0.45420  0.09730  Biso   1.000  C
  C71      1.0000 0.87480  0.04580  0.59730  Biso   1.000  C
  C72      1.0000 0.37480  0.54580  0.59730  Biso   1.000  C
  C73      1.0000 0.12740  0.85610  0.77960  Biso   1.000  C
  C74      1.0000 0.62740  0.35610  0.77960  Biso   1.000  C
  C75      1.0000 0.12740  0.14390  0.27960  Biso   1.000  C
  C76      1.0000 0.62740  0.64390  0.27960  Biso   1.000  C
  C77      1.0000 0.87260  0.14390  0.22040  Biso   1.000  C
  C78      1.0000 0.37260  0.64390  0.22040  Biso   1.000  C
  C79      1.0000 0.87260  0.85610  0.72040  Biso   1.000  C
  C80      1.0000 0.37260  0.35610  0.72040  Biso   1.000  C
  C81      1.0000 0.12530  0.55660  0.80060  Biso   1.000  C
  C82      1.0000 0.62530  0.05660  0.80060  Biso   1.000  C
  C83      1.0000 0.12530  0.44340  0.30060  Biso   1.000  C
  C84      1.0000 0.62530  0.94340  0.30060  Biso   1.000  C
  C85      1.0000 0.87470  0.44340  0.19940  Biso   1.000  C
  C86      1.0000 0.37470  0.94340  0.19940  Biso   1.000  C
  C87      1.0000 0.87470  0.55660  0.69940  Biso   1.000  C
  C88      1.0000 0.37470  0.05660  0.69940  Biso   1.000  C
  C89      1.0000 0.11530  0.44580  0.93780  Biso   1.000  C
  C90      1.0000 0.61530  0.94580  0.93780  Biso   1.000  C
  C91      1.0000 0.11530  0.55420  0.43780  Biso   1.000  C
  C92      1.0000 0.61530  0.05420  0.43780  Biso   1.000  C
  C93      1.0000 0.88470  0.55420  0.06220  Biso   1.000  C
  C94      1.0000 0.38470  0.05420  0.06220  Biso   1.000  C
  C95      1.0000 0.88470  0.44580  0.56220  Biso   1.000  C
  C96      1.0000 0.38470  0.94580  0.56220  Biso   1.000  C
