data_image0
_cell_length_a       10.99
_cell_length_b       7.09
_cell_length_c       16.997
_cell_angle_alpha    90
_cell_angle_beta     102.431
_cell_angle_gamma    90

_symmetry_space_group_name_H-M    "P 1"
_symmetry_int_tables_number       1

loop_
  _symmetry_equiv_pos_as_xyz
  'x, y, z'

loop_
  _atom_site_label
  _atom_site_occupancy
  _atom_site_fract_x
  _atom_site_fract_y
  _atom_site_fract_z
  _atom_site_thermal_displace_type
  _atom_site_B_iso_or_equiv
  _atom_site_type_symbol
  Cu1      1.0000 0.75000  0.26419  0.75000  Biso   1.000  Cu
  Cu2      1.0000 0.25000  0.73581  0.25000  Biso   1.000  Cu
  N1       1.0000 0.66020  0.26310  0.63315  Biso   1.000  N
  N2       1.0000 0.83980  0.26310  0.86685  Biso   1.000  N
  N3       1.0000 0.33980  0.73690  0.36685  Biso   1.000  N
  N4       1.0000 0.16020  0.73690  0.13315  Biso   1.000  N
  N5       1.0000 0.34030  0.18680  0.52819  Biso   1.000  N
  N6       1.0000 0.15970  0.18680  0.97181  Biso   1.000  N
  N7       1.0000 0.65970  0.81320  0.47181  Biso   1.000  N
  N8       1.0000 0.84030  0.81320  0.02819  Biso   1.000  N
  H1       1.0000 0.31820  0.15850  0.57230  Biso   1.000  H
  H2       1.0000 0.18180  0.15850  0.92770  Biso   1.000  H
  H3       1.0000 0.68180  0.84150  0.42770  Biso   1.000  H
  H4       1.0000 0.81820  0.84150  0.07230  Biso   1.000  H
  C1       1.0000 0.46730  0.22780  0.53660  Biso   1.000  C
  C2       1.0000 0.03270  0.22780  0.96340  Biso   1.000  C
  C3       1.0000 0.53270  0.77220  0.46340  Biso   1.000  C
  C4       1.0000 0.96730  0.77220  0.03660  Biso   1.000  C
  C5       1.0000 0.53860  0.22690  0.61410  Biso   1.000  C
  C6       1.0000 0.96140  0.22690  0.88590  Biso   1.000  C
  C7       1.0000 0.46140  0.77310  0.38590  Biso   1.000  C
  C8       1.0000 0.03860  0.77310  0.11410  Biso   1.000  C
  H5       1.0000 0.49890  0.19920  0.65580  Biso   1.000  H
  H6       1.0000 0.00110  0.19920  0.84420  Biso   1.000  H
  H7       1.0000 0.50110  0.80080  0.34420  Biso   1.000  H
  H8       1.0000 0.99890  0.80080  0.15580  Biso   1.000  H
  C9       1.0000 0.71750  0.29750  0.57220  Biso   1.000  C
  C10      1.0000 0.78250  0.29750  0.92780  Biso   1.000  C
  C11      1.0000 0.28250  0.70250  0.42780  Biso   1.000  C
  C12      1.0000 0.21750  0.70250  0.07220  Biso   1.000  C
  H9       1.0000 0.80280  0.32010  0.58370  Biso   1.000  H
  H10      1.0000 0.69720  0.32010  0.91630  Biso   1.000  H
  H11      1.0000 0.19720  0.67990  0.41630  Biso   1.000  H
  H12      1.0000 0.30280  0.67990  0.08370  Biso   1.000  H
  C13      1.0000 0.65330  0.30000  0.49310  Biso   1.000  C
  C14      1.0000 0.84670  0.30000  0.00690  Biso   1.000  C
  C15      1.0000 0.34670  0.70000  0.50690  Biso   1.000  C
  C16      1.0000 0.15330  0.70000  0.99310  Biso   1.000  C
  H13      1.0000 0.69570  0.32560  0.45250  Biso   1.000  H
  H14      1.0000 0.80430  0.32560  0.04750  Biso   1.000  H
  H15      1.0000 0.30430  0.67440  0.54750  Biso   1.000  H
  H16      1.0000 0.19570  0.67440  0.95250  Biso   1.000  H
  C17      1.0000 0.52590  0.26470  0.47320  Biso   1.000  C
  C18      1.0000 0.97410  0.26470  0.02680  Biso   1.000  C
  C19      1.0000 0.47410  0.73530  0.52680  Biso   1.000  C
  C20      1.0000 0.02590  0.73530  0.97320  Biso   1.000  C
  H17      1.0000 0.48180  0.26570  0.41990  Biso   1.000  H
  H18      1.0000 0.01820  0.26570  0.08010  Biso   1.000  H
  H19      1.0000 0.51820  0.73430  0.58010  Biso   1.000  H
  H20      1.0000 0.98180  0.73430  0.91990  Biso   1.000  H
  O1       1.0000 0.26240  0.22050  0.39414  Biso   1.000  O
  O2       1.0000 0.23760  0.22050  0.10586  Biso   1.000  O
  O3       1.0000 0.73760  0.77950  0.60586  Biso   1.000  O
  O4       1.0000 0.76240  0.77950  0.89414  Biso   1.000  O
  C21      1.0000 0.24760  0.18470  0.46220  Biso   1.000  C
  C22      1.0000 0.25240  0.18470  0.03780  Biso   1.000  C
  C23      1.0000 0.75240  0.81530  0.53780  Biso   1.000  C
  C24      1.0000 0.74760  0.81530  0.96220  Biso   1.000  C
  C25      1.0000 0.12090  0.14170  0.47960  Biso   1.000  C
  C26      1.0000 0.37910  0.14170  0.02040  Biso   1.000  C
  C27      1.0000 0.87910  0.85830  0.52040  Biso   1.000  C
  C28      1.0000 0.62090  0.85830  0.97960  Biso   1.000  C
  H21      1.0000 0.13070  0.06590  0.52800  Biso   1.000  H
  H22      1.0000 0.36930  0.06590  0.97200  Biso   1.000  H
  H23      1.0000 0.86930  0.93410  0.47200  Biso   1.000  H
  H24      1.0000 0.63070  0.93410  0.02800  Biso   1.000  H
  H25      1.0000 0.07130  0.07070  0.43520  Biso   1.000  H
  H26      1.0000 0.42870  0.07070  0.06480  Biso   1.000  H
  H27      1.0000 0.92870  0.92930  0.56480  Biso   1.000  H
  H28      1.0000 0.57130  0.92930  0.93520  Biso   1.000  H
  C29      1.0000 0.05490  0.32600  0.49070  Biso   1.000  C
  C30      1.0000 0.44510  0.32600  0.00930  Biso   1.000  C
  C31      1.0000 0.94510  0.67400  0.50930  Biso   1.000  C
  C32      1.0000 0.55490  0.67400  0.99070  Biso   1.000  C
  C33      1.0000 0.08280  0.42080  0.56370  Biso   1.000  C
  C34      1.0000 0.41720  0.42080  0.93630  Biso   1.000  C
  C35      1.0000 0.91720  0.57920  0.43630  Biso   1.000  C
  C36      1.0000 0.58280  0.57920  0.06370  Biso   1.000  C
  H29      1.0000 0.13820  0.36770  0.60710  Biso   1.000  H
  H30      1.0000 0.36180  0.36770  0.89290  Biso   1.000  H
  H31      1.0000 0.86180  0.63230  0.39290  Biso   1.000  H
  H32      1.0000 0.63820  0.63230  0.10710  Biso   1.000  H
  C37      1.0000 0.97130  0.40580  0.42750  Biso   1.000  C
  C38      1.0000 0.52870  0.40580  0.07250  Biso   1.000  C
  C39      1.0000 0.02870  0.59420  0.57250  Biso   1.000  C
  C40      1.0000 0.47130  0.59420  0.92750  Biso   1.000  C
  H33      1.0000 0.95080  0.34300  0.37840  Biso   1.000  H
  H34      1.0000 0.54920  0.34300  0.12160  Biso   1.000  H
  H35      1.0000 0.04920  0.65700  0.62160  Biso   1.000  H
  H36      1.0000 0.45080  0.65700  0.87840  Biso   1.000  H
  O5       1.0000 0.86630  0.48770  0.72430  Biso   1.000  O
  O6       1.0000 0.63370  0.48770  0.77570  Biso   1.000  O
  O7       1.0000 0.13370  0.51230  0.27570  Biso   1.000  O
  O8       1.0000 0.36630  0.51230  0.22430  Biso   1.000  O
  O9       1.0000 0.86770  0.03280  0.72417  Biso   1.000  O
  O10      1.0000 0.63230  0.03280  0.77583  Biso   1.000  O
  O11      1.0000 0.13230  0.96720  0.27583  Biso   1.000  O
  O12      1.0000 0.36770  0.96720  0.22417  Biso   1.000  O
  O13      1.0000 0.60160  0.46690  0.29690  Biso   1.000  O
  O14      1.0000 0.89840  0.46690  0.20310  Biso   1.000  O
  O15      1.0000 0.39840  0.53310  0.70310  Biso   1.000  O
  O16      1.0000 0.10160  0.53310  0.79690  Biso   1.000  O
  Si1      1.0000 0.25000  0.02460  0.75000  Biso   1.000  Si
  Si2      1.0000 0.75000  0.97540  0.25000  Biso   1.000  Si
  F1       1.0000 0.29690  0.04000  0.66900  Biso   1.000  F
  F2       1.0000 0.20310  0.04000  0.83100  Biso   1.000  F
  F3       1.0000 0.70310  0.96000  0.33100  Biso   1.000  F
  F4       1.0000 0.79690  0.96000  0.16900  Biso   1.000  F
  F5       1.0000 0.25000  0.25380  0.75000  Biso   1.000  F
  F6       1.0000 0.75000  0.74620  0.25000  Biso   1.000  F
  F7       1.0000 0.25000  0.79850  0.75000  Biso   1.000  F
  F8       1.0000 0.75000  0.20150  0.25000  Biso   1.000  F
  F9       1.0000 0.10360  0.02840  0.69660  Biso   1.000  F
  F10      1.0000 0.39640  0.02840  0.80340  Biso   1.000  F
  F11      1.0000 0.89640  0.97160  0.30340  Biso   1.000  F
  F12      1.0000 0.60360  0.97160  0.19660  Biso   1.000  F
