data_image0
_cell_length_a       13.1824
_cell_length_b       18.315
_cell_length_c       9.6286
_cell_angle_alpha    90
_cell_angle_beta     90
_cell_angle_gamma    90

_symmetry_space_group_name_H-M    "P 1"
_symmetry_int_tables_number       1

loop_
  _symmetry_equiv_pos_as_xyz
  'x, y, z'

loop_
  _atom_site_label
  _atom_site_occupancy
  _atom_site_fract_x
  _atom_site_fract_y
  _atom_site_fract_z
  _atom_site_thermal_displace_type
  _atom_site_B_iso_or_equiv
  _atom_site_type_symbol
  Cu1      1.0000 0.00000  0.50000  0.52083  Biso   1.000  Cu
  Cu2      1.0000 0.50000  0.00000  0.47917  Biso   1.000  Cu
  N1       1.0000 0.02140  0.42371  0.37100  Biso   1.000  N
  N2       1.0000 0.97860  0.57629  0.37100  Biso   1.000  N
  N3       1.0000 0.47860  0.92371  0.62900  Biso   1.000  N
  N4       1.0000 0.52140  0.07629  0.62900  Biso   1.000  N
  N5       1.0000 0.19460  0.40790  0.08010  Biso   1.000  N
  N6       1.0000 0.80540  0.59210  0.08010  Biso   1.000  N
  N7       1.0000 0.30540  0.90790  0.91990  Biso   1.000  N
  N8       1.0000 0.69460  0.09210  0.91990  Biso   1.000  N
  H1       1.0000 0.19570  0.45390  0.06160  Biso   1.000  H
  H2       1.0000 0.80430  0.54610  0.06160  Biso   1.000  H
  H3       1.0000 0.30430  0.95390  0.93840  Biso   1.000  H
  H4       1.0000 0.69570  0.04610  0.93840  Biso   1.000  H
  C1       1.0000 0.12170  0.38510  0.17700  Biso   1.000  C
  C2       1.0000 0.87830  0.61490  0.17700  Biso   1.000  C
  C3       1.0000 0.37830  0.88510  0.82300  Biso   1.000  C
  C4       1.0000 0.62170  0.11490  0.82300  Biso   1.000  C
  C5       1.0000 0.09090  0.43720  0.27370  Biso   1.000  C
  C6       1.0000 0.90910  0.56280  0.27370  Biso   1.000  C
  C7       1.0000 0.40910  0.93720  0.72630  Biso   1.000  C
  C8       1.0000 0.59090  0.06280  0.72630  Biso   1.000  C
  H5       1.0000 0.12020  0.48330  0.27030  Biso   1.000  H
  H6       1.0000 0.87980  0.51670  0.27030  Biso   1.000  H
  H7       1.0000 0.37980  0.98330  0.72970  Biso   1.000  H
  H8       1.0000 0.62020  0.01670  0.72970  Biso   1.000  H
  C9       1.0000 0.97820  0.35770  0.37280  Biso   1.000  C
  C10      1.0000 0.02180  0.64230  0.37280  Biso   1.000  C
  C11      1.0000 0.52180  0.85770  0.62720  Biso   1.000  C
  C12      1.0000 0.47820  0.14230  0.62720  Biso   1.000  C
  H9       1.0000 0.92860  0.34780  0.43880  Biso   1.000  H
  H10      1.0000 0.07140  0.65220  0.43880  Biso   1.000  H
  H11      1.0000 0.57140  0.84780  0.56120  Biso   1.000  H
  H12      1.0000 0.42860  0.15220  0.56120  Biso   1.000  H
  C13      1.0000 0.00470  0.30430  0.28070  Biso   1.000  C
  C14      1.0000 0.99530  0.69570  0.28070  Biso   1.000  C
  C15      1.0000 0.49530  0.80430  0.71930  Biso   1.000  C
  C16      1.0000 0.50470  0.19570  0.71930  Biso   1.000  C
  H13      1.0000 0.97260  0.25910  0.28450  Biso   1.000  H
  H14      1.0000 0.02740  0.74090  0.28450  Biso   1.000  H
  H15      1.0000 0.52740  0.75910  0.71550  Biso   1.000  H
  H16      1.0000 0.47260  0.24090  0.71550  Biso   1.000  H
  C17      1.0000 0.07860  0.31670  0.18230  Biso   1.000  C
  C18      1.0000 0.92140  0.68330  0.18230  Biso   1.000  C
  C19      1.0000 0.42140  0.81670  0.81770  Biso   1.000  C
  C20      1.0000 0.57860  0.18330  0.81770  Biso   1.000  C
  H17      1.0000 0.09870  0.28010  0.12150  Biso   1.000  H
  H18      1.0000 0.90130  0.71990  0.12150  Biso   1.000  H
  H19      1.0000 0.40130  0.78010  0.87850  Biso   1.000  H
  H20      1.0000 0.59870  0.21990  0.87850  Biso   1.000  H
  N9       1.0000 0.01960  0.42156  0.66680  Biso   1.000  N
  N10      1.0000 0.98040  0.57844  0.66680  Biso   1.000  N
  N11      1.0000 0.48040  0.92156  0.33320  Biso   1.000  N
  N12      1.0000 0.51960  0.07844  0.33320  Biso   1.000  N
  N13      1.0000 0.87210  0.33475  0.94270  Biso   1.000  N
  N14      1.0000 0.12790  0.66525  0.94270  Biso   1.000  N
  N15      1.0000 0.62790  0.83475  0.05730  Biso   1.000  N
  N16      1.0000 0.37210  0.16525  0.05730  Biso   1.000  N
  H21      1.0000 0.85030  0.29070  0.95130  Biso   1.000  H
  H22      1.0000 0.14970  0.70930  0.95130  Biso   1.000  H
  H23      1.0000 0.64970  0.79070  0.04870  Biso   1.000  H
  H24      1.0000 0.35030  0.20930  0.04870  Biso   1.000  H
  C21      1.0000 0.94830  0.34770  0.84540  Biso   1.000  C
  C22      1.0000 0.05170  0.65230  0.84540  Biso   1.000  C
  C23      1.0000 0.55170  0.84770  0.15460  Biso   1.000  C
  C24      1.0000 0.44830  0.15230  0.15460  Biso   1.000  C
  C25      1.0000 0.94790  0.40940  0.76200  Biso   1.000  C
  C26      1.0000 0.05210  0.59060  0.76200  Biso   1.000  C
  C27      1.0000 0.55210  0.90940  0.23800  Biso   1.000  C
  C28      1.0000 0.44790  0.09060  0.23800  Biso   1.000  C
  H25      1.0000 0.89610  0.44340  0.77270  Biso   1.000  H
  H26      1.0000 0.10390  0.55660  0.77270  Biso   1.000  H
  H27      1.0000 0.60390  0.94340  0.22730  Biso   1.000  H
  H28      1.0000 0.39610  0.05660  0.22730  Biso   1.000  H
  C29      1.0000 0.09650  0.37340  0.65540  Biso   1.000  C
  C30      1.0000 0.90350  0.62660  0.65540  Biso   1.000  C
  C31      1.0000 0.40350  0.87340  0.34460  Biso   1.000  C
  C32      1.0000 0.59650  0.12660  0.34460  Biso   1.000  C
  H29      1.0000 0.14860  0.38290  0.59280  Biso   1.000  H
  H30      1.0000 0.85140  0.61710  0.59280  Biso   1.000  H
  H31      1.0000 0.35140  0.88290  0.40720  Biso   1.000  H
  H32      1.0000 0.64860  0.11710  0.40720  Biso   1.000  H
  C33      1.0000 0.10020  0.31170  0.73260  Biso   1.000  C
  C34      1.0000 0.89980  0.68830  0.73260  Biso   1.000  C
  C35      1.0000 0.39980  0.81170  0.26740  Biso   1.000  C
  C36      1.0000 0.60020  0.18830  0.26740  Biso   1.000  C
  H33      1.0000 0.15320  0.27870  0.72070  Biso   1.000  H
  H34      1.0000 0.84680  0.72130  0.72070  Biso   1.000  H
  H35      1.0000 0.34680  0.77870  0.27930  Biso   1.000  H
  H36      1.0000 0.65320  0.22130  0.27930  Biso   1.000  H
  C37      1.0000 0.02510  0.29770  0.82870  Biso   1.000  C
  C38      1.0000 0.97490  0.70230  0.82870  Biso   1.000  C
  C39      1.0000 0.47490  0.79770  0.17130  Biso   1.000  C
  C40      1.0000 0.52510  0.20230  0.17130  Biso   1.000  C
  H37      1.0000 0.02640  0.25520  0.88140  Biso   1.000  H
  H38      1.0000 0.97360  0.74480  0.88140  Biso   1.000  H
  H39      1.0000 0.47360  0.75520  0.11860  Biso   1.000  H
  H40      1.0000 0.52640  0.24480  0.11860  Biso   1.000  H
  O1       1.0000 0.26620  0.30041  0.02330  Biso   1.000  O
  O2       1.0000 0.73380  0.69959  0.02330  Biso   1.000  O
  O3       1.0000 0.23380  0.80041  0.97670  Biso   1.000  O
  O4       1.0000 0.76620  0.19959  0.97670  Biso   1.000  O
  O5       1.0000 0.85690  0.44970  0.01840  Biso   1.000  O
  O6       1.0000 0.14310  0.55030  0.01840  Biso   1.000  O
  O7       1.0000 0.64310  0.94970  0.98160  Biso   1.000  O
  O8       1.0000 0.35690  0.05030  0.98160  Biso   1.000  O
  C41      1.0000 0.26330  0.36630  0.01240  Biso   1.000  C
  C42      1.0000 0.73670  0.63370  0.01240  Biso   1.000  C
  C43      1.0000 0.23670  0.86630  0.98760  Biso   1.000  C
  C44      1.0000 0.76330  0.13370  0.98760  Biso   1.000  C
  C45      1.0000 0.33750  0.40890  0.92410  Biso   1.000  C
  C46      1.0000 0.66250  0.59110  0.92410  Biso   1.000  C
  C47      1.0000 0.16250  0.90890  0.07590  Biso   1.000  C
  C48      1.0000 0.83750  0.09110  0.07590  Biso   1.000  C
  H41      1.0000 0.33210  0.39300  0.82830  Biso   1.000  H
  H42      1.0000 0.66790  0.60700  0.82830  Biso   1.000  H
  H43      1.0000 0.16790  0.89300  0.17170  Biso   1.000  H
  H44      1.0000 0.83210  0.10700  0.17170  Biso   1.000  H
  H45      1.0000 0.32050  0.46040  0.92770  Biso   1.000  H
  H46      1.0000 0.67950  0.53960  0.92770  Biso   1.000  H
  H47      1.0000 0.17950  0.96040  0.07230  Biso   1.000  H
  H48      1.0000 0.82050  0.03960  0.07230  Biso   1.000  H
  C49      1.0000 0.44500  0.39820  0.97410  Biso   1.000  C
  C50      1.0000 0.55500  0.60180  0.97410  Biso   1.000  C
  C51      1.0000 0.05500  0.89820  0.02590  Biso   1.000  C
  C52      1.0000 0.94500  0.10180  0.02590  Biso   1.000  C
  C53      1.0000 0.46920  0.40630  0.11400  Biso   1.000  C
  C54      1.0000 0.53080  0.59370  0.11400  Biso   1.000  C
  C55      1.0000 0.03080  0.90630  0.88600  Biso   1.000  C
  C56      1.0000 0.96920  0.09370  0.88600  Biso   1.000  C
  H49      1.0000 0.41870  0.41880  0.17710  Biso   1.000  H
  H50      1.0000 0.58130  0.58120  0.17710  Biso   1.000  H
  H51      1.0000 0.08130  0.91880  0.82290  Biso   1.000  H
  H52      1.0000 0.91870  0.08120  0.82290  Biso   1.000  H
  C57      1.0000 0.56690  0.39600  0.15980  Biso   1.000  C
  C58      1.0000 0.43310  0.60400  0.15980  Biso   1.000  C
  C59      1.0000 0.93310  0.89600  0.84020  Biso   1.000  C
  C60      1.0000 0.06690  0.10400  0.84020  Biso   1.000  C
  H53      1.0000 0.58160  0.40150  0.25370  Biso   1.000  H
  H54      1.0000 0.41840  0.59850  0.25370  Biso   1.000  H
  H55      1.0000 0.91840  0.90150  0.74630  Biso   1.000  H
  H56      1.0000 0.08160  0.09850  0.74630  Biso   1.000  H
  C61      1.0000 0.64400  0.37750  0.06860  Biso   1.000  C
  C62      1.0000 0.35600  0.62250  0.06860  Biso   1.000  C
  C63      1.0000 0.85600  0.87750  0.93140  Biso   1.000  C
  C64      1.0000 0.14400  0.12250  0.93140  Biso   1.000  C
  C65      1.0000 0.61970  0.37050  0.92920  Biso   1.000  C
  C66      1.0000 0.38030  0.62950  0.92920  Biso   1.000  C
  C67      1.0000 0.88030  0.87050  0.07080  Biso   1.000  C
  C68      1.0000 0.11970  0.12950  0.07080  Biso   1.000  C
  H57      1.0000 0.66990  0.35770  0.86590  Biso   1.000  H
  H58      1.0000 0.33010  0.64230  0.86590  Biso   1.000  H
  H59      1.0000 0.83010  0.85770  0.13410  Biso   1.000  H
  H60      1.0000 0.16990  0.14230  0.13410  Biso   1.000  H
  C69      1.0000 0.52170  0.38230  0.88320  Biso   1.000  C
  C70      1.0000 0.47830  0.61770  0.88320  Biso   1.000  C
  C71      1.0000 0.97830  0.88230  0.11680  Biso   1.000  C
  C72      1.0000 0.02170  0.11770  0.11680  Biso   1.000  C
  H61      1.0000 0.50760  0.37940  0.78880  Biso   1.000  H
  H62      1.0000 0.49240  0.62060  0.78880  Biso   1.000  H
  H63      1.0000 0.99240  0.87940  0.21120  Biso   1.000  H
  H64      1.0000 0.00760  0.12060  0.21120  Biso   1.000  H
  C73      1.0000 0.75020  0.36120  0.12400  Biso   1.000  C
  C74      1.0000 0.24980  0.63880  0.12400  Biso   1.000  C
  C75      1.0000 0.74980  0.86120  0.87600  Biso   1.000  C
  C76      1.0000 0.25020  0.13880  0.87600  Biso   1.000  C
  H65      1.0000 0.75940  0.38550  0.21260  Biso   1.000  H
  H66      1.0000 0.24060  0.61450  0.21260  Biso   1.000  H
  H67      1.0000 0.74060  0.88550  0.78740  Biso   1.000  H
  H68      1.0000 0.25940  0.11450  0.78740  Biso   1.000  H
  H69      1.0000 0.75730  0.30910  0.13890  Biso   1.000  H
  H70      1.0000 0.24270  0.69090  0.13890  Biso   1.000  H
  H71      1.0000 0.74270  0.80910  0.86110  Biso   1.000  H
  H72      1.0000 0.25730  0.19090  0.86110  Biso   1.000  H
  C77      1.0000 0.83020  0.38660  0.02440  Biso   1.000  C
  C78      1.0000 0.16980  0.61340  0.02440  Biso   1.000  C
  C79      1.0000 0.66980  0.88660  0.97560  Biso   1.000  C
  C80      1.0000 0.33020  0.11340  0.97560  Biso   1.000  C
  O9       1.0000 0.19180  0.52580  0.51580  Biso   1.000  O
  O10      1.0000 0.80820  0.47420  0.51580  Biso   1.000  O
  O11      1.0000 0.30820  0.02580  0.48420  Biso   1.000  O
  O12      1.0000 0.69180  0.97420  0.48420  Biso   1.000  O
  Cl1      1.0000 0.36114  0.33376  0.47140  Biso   1.000  Cl
  Cl2      1.0000 0.63886  0.66624  0.47140  Biso   1.000  Cl
  Cl3      1.0000 0.13886  0.83376  0.52860  Biso   1.000  Cl
  Cl4      1.0000 0.86114  0.16624  0.52860  Biso   1.000  Cl
  O13      1.0000 0.31680  0.39860  0.42600  Biso   1.000  O
  O14      1.0000 0.68320  0.60140  0.42600  Biso   1.000  O
  O15      1.0000 0.18320  0.89860  0.57400  Biso   1.000  O
  O16      1.0000 0.81680  0.10140  0.57400  Biso   1.000  O
  O17      1.0000 0.46790  0.33930  0.47900  Biso   1.000  O
  O18      1.0000 0.53210  0.66070  0.47900  Biso   1.000  O
  O19      1.0000 0.03210  0.83930  0.52100  Biso   1.000  O
  O20      1.0000 0.96790  0.16070  0.52100  Biso   1.000  O
  O21      1.0000 0.32500  0.31020  0.59860  Biso   1.000  O
  O22      1.0000 0.67500  0.68980  0.59860  Biso   1.000  O
  O23      1.0000 0.17500  0.81020  0.40140  Biso   1.000  O
  O24      1.0000 0.82500  0.18980  0.40140  Biso   1.000  O
  O25      1.0000 0.33780  0.28300  0.36320  Biso   1.000  O
  O26      1.0000 0.66220  0.71700  0.36320  Biso   1.000  O
  O27      1.0000 0.16220  0.78300  0.63680  Biso   1.000  O
  O28      1.0000 0.83780  0.21700  0.63680  Biso   1.000  O
  O29      1.0000 0.30400  0.65600  0.54700  Biso   1.000  O
  O30      1.0000 0.69600  0.34400  0.54700  Biso   1.000  O
  O31      1.0000 0.19600  0.15600  0.45300  Biso   1.000  O
  O32      1.0000 0.80400  0.84400  0.45300  Biso   1.000  O
