data_image0
_cell_length_a       12.0599
_cell_length_b       7.0629
_cell_length_c       17.4168
_cell_angle_alpha    90
_cell_angle_beta     93.849
_cell_angle_gamma    90

_symmetry_space_group_name_H-M    "P 1"
_symmetry_int_tables_number       1

loop_
  _symmetry_equiv_pos_as_xyz
  'x, y, z'

loop_
  _atom_site_label
  _atom_site_occupancy
  _atom_site_fract_x
  _atom_site_fract_y
  _atom_site_fract_z
  _atom_site_thermal_displace_type
  _atom_site_B_iso_or_equiv
  _atom_site_type_symbol
  Cu1      1.0000 0.10976  0.23527  0.17877  Biso   1.000  Cu
  Cu2      1.0000 0.39024  0.73527  0.32123  Biso   1.000  Cu
  Cu3      1.0000 0.89024  0.76473  0.82123  Biso   1.000  Cu
  Cu4      1.0000 0.60976  0.26473  0.67877  Biso   1.000  Cu
  C1       1.0000 0.25800  0.18190  0.04879  Biso   1.000  C
  C2       1.0000 0.24200  0.68190  0.45121  Biso   1.000  C
  C3       1.0000 0.74200  0.81810  0.95121  Biso   1.000  C
  C4       1.0000 0.75800  0.31810  0.54879  Biso   1.000  C
  H1       1.0000 0.31490  0.16390  0.08680  Biso   1.000  H
  H2       1.0000 0.18510  0.66390  0.41320  Biso   1.000  H
  H3       1.0000 0.68510  0.83610  0.91320  Biso   1.000  H
  H4       1.0000 0.81490  0.33610  0.58680  Biso   1.000  H
  C5       1.0000 0.28260  0.17840  0.97280  Biso   1.000  C
  C6       1.0000 0.21740  0.67840  0.52720  Biso   1.000  C
  C7       1.0000 0.71740  0.82160  0.02720  Biso   1.000  C
  C8       1.0000 0.78260  0.32160  0.47280  Biso   1.000  C
  H5       1.0000 0.35540  0.15840  0.96040  Biso   1.000  H
  H6       1.0000 0.14460  0.65840  0.53960  Biso   1.000  H
  H7       1.0000 0.64460  0.84160  0.03960  Biso   1.000  H
  H8       1.0000 0.85540  0.34160  0.46040  Biso   1.000  H
  C9       1.0000 0.19970  0.20430  0.91442  Biso   1.000  C
  C10      1.0000 0.30030  0.70430  0.58558  Biso   1.000  C
  C11      1.0000 0.80030  0.79570  0.08558  Biso   1.000  C
  C12      1.0000 0.69970  0.29570  0.41442  Biso   1.000  C
  C13      1.0000 0.09140  0.23280  0.93694  Biso   1.000  C
  C14      1.0000 0.40860  0.73280  0.56306  Biso   1.000  C
  C15      1.0000 0.90860  0.76720  0.06306  Biso   1.000  C
  C16      1.0000 0.59140  0.26720  0.43694  Biso   1.000  C
  H9       1.0000 0.03300  0.24990  0.89990  Biso   1.000  H
  H10      1.0000 0.46700  0.74990  0.60010  Biso   1.000  H
  H11      1.0000 0.96700  0.75010  0.10010  Biso   1.000  H
  H12      1.0000 0.53300  0.25010  0.39990  Biso   1.000  H
  C17      1.0000 0.07180  0.23540  0.01372  Biso   1.000  C
  C18      1.0000 0.42820  0.73540  0.48628  Biso   1.000  C
  C19      1.0000 0.92820  0.76460  0.98628  Biso   1.000  C
  C20      1.0000 0.57180  0.26460  0.51372  Biso   1.000  C
  C21      1.0000 0.95980  0.26200  0.04378  Biso   1.000  C
  C22      1.0000 0.54020  0.76200  0.45622  Biso   1.000  C
  C23      1.0000 0.04020  0.73800  0.95622  Biso   1.000  C
  C24      1.0000 0.45980  0.23800  0.54378  Biso   1.000  C
  C25      1.0000 0.86280  0.27950  0.99710  Biso   1.000  C
  C26      1.0000 0.63720  0.77950  0.50290  Biso   1.000  C
  C27      1.0000 0.13720  0.72050  0.00290  Biso   1.000  C
  C28      1.0000 0.36280  0.22050  0.49710  Biso   1.000  C
  H13      1.0000 0.86530  0.27820  0.94380  Biso   1.000  H
  H14      1.0000 0.63470  0.77820  0.55620  Biso   1.000  H
  H15      1.0000 0.13470  0.72180  0.05620  Biso   1.000  H
  H16      1.0000 0.36530  0.22180  0.44380  Biso   1.000  H
  C29      1.0000 0.76120  0.29910  0.03040  Biso   1.000  C
  C30      1.0000 0.73880  0.79910  0.46960  Biso   1.000  C
  C31      1.0000 0.23880  0.70090  0.96960  Biso   1.000  C
  C32      1.0000 0.26120  0.20090  0.53040  Biso   1.000  C
  C33      1.0000 0.76340  0.30500  0.11040  Biso   1.000  C
  C34      1.0000 0.73660  0.80500  0.38960  Biso   1.000  C
  C35      1.0000 0.23660  0.69500  0.88960  Biso   1.000  C
  C36      1.0000 0.26340  0.19500  0.61040  Biso   1.000  C
  H17      1.0000 0.69770  0.31850  0.13490  Biso   1.000  H
  H18      1.0000 0.80230  0.81850  0.36510  Biso   1.000  H
  H19      1.0000 0.30230  0.68150  0.86510  Biso   1.000  H
  H20      1.0000 0.19770  0.18150  0.63490  Biso   1.000  H
  C37      1.0000 0.86300  0.29070  0.15300  Biso   1.000  C
  C38      1.0000 0.63700  0.79070  0.34700  Biso   1.000  C
  C39      1.0000 0.13700  0.70930  0.84700  Biso   1.000  C
  C40      1.0000 0.36300  0.20930  0.65300  Biso   1.000  C
  H21      1.0000 0.86300  0.29730  0.20630  Biso   1.000  H
  H22      1.0000 0.63700  0.79730  0.29370  Biso   1.000  H
  H23      1.0000 0.13700  0.70270  0.79370  Biso   1.000  H
  H24      1.0000 0.36300  0.20270  0.70630  Biso   1.000  H
  C41      1.0000 0.22550  0.20310  0.83110  Biso   1.000  C
  C42      1.0000 0.27450  0.70310  0.66890  Biso   1.000  C
  C43      1.0000 0.77450  0.79690  0.16890  Biso   1.000  C
  C44      1.0000 0.72550  0.29690  0.33110  Biso   1.000  C
  H25      1.0000 0.26050  0.32040  0.81870  Biso   1.000  H
  H26      1.0000 0.23950  0.82040  0.68130  Biso   1.000  H
  H27      1.0000 0.73950  0.67960  0.18130  Biso   1.000  H
  H28      1.0000 0.76050  0.17960  0.31870  Biso   1.000  H
  H29      1.0000 0.15790  0.18860  0.79930  Biso   1.000  H
  H30      1.0000 0.34210  0.68860  0.70070  Biso   1.000  H
  H31      1.0000 0.84210  0.81140  0.20070  Biso   1.000  H
  H32      1.0000 0.65790  0.31140  0.29930  Biso   1.000  H
  H33      1.0000 0.27460  0.09980  0.82190  Biso   1.000  H
  H34      1.0000 0.22540  0.59980  0.67810  Biso   1.000  H
  H35      1.0000 0.72540  0.90020  0.17810  Biso   1.000  H
  H36      1.0000 0.77460  0.40020  0.32190  Biso   1.000  H
  C45      1.0000 0.65400  0.31260  0.98190  Biso   1.000  C
  C46      1.0000 0.84600  0.81260  0.51810  Biso   1.000  C
  C47      1.0000 0.34600  0.68740  0.01810  Biso   1.000  C
  C48      1.0000 0.15400  0.18740  0.48190  Biso   1.000  C
  H37      1.0000 0.59620  0.25030  0.00760  Biso   1.000  H
  H38      1.0000 0.90380  0.75030  0.49240  Biso   1.000  H
  H39      1.0000 0.40380  0.74970  0.99240  Biso   1.000  H
  H40      1.0000 0.09620  0.24970  0.50760  Biso   1.000  H
  H41      1.0000 0.66230  0.25280  0.93310  Biso   1.000  H
  H42      1.0000 0.83770  0.75280  0.56690  Biso   1.000  H
  H43      1.0000 0.33770  0.74720  0.06690  Biso   1.000  H
  H44      1.0000 0.16230  0.24720  0.43310  Biso   1.000  H
  H45      1.0000 0.63480  0.44340  0.97390  Biso   1.000  H
  H46      1.0000 0.86520  0.94340  0.52610  Biso   1.000  H
  H47      1.0000 0.36520  0.55660  0.02610  Biso   1.000  H
  H48      1.0000 0.13480  0.05660  0.47390  Biso   1.000  H
  C49      1.0000 0.01440  0.06510  0.30360  Biso   1.000  C
  C50      1.0000 0.48560  0.56510  0.19640  Biso   1.000  C
  C51      1.0000 0.98560  0.93490  0.69640  Biso   1.000  C
  C52      1.0000 0.51440  0.43490  0.80360  Biso   1.000  C
  H49      1.0000 0.99270  0.06070  0.35380  Biso   1.000  H
  H50      1.0000 0.50730  0.56070  0.14620  Biso   1.000  H
  H51      1.0000 0.00730  0.93930  0.64620  Biso   1.000  H
  H52      1.0000 0.49270  0.43930  0.85380  Biso   1.000  H
  C53      1.0000 0.29580  0.15140  0.28265  Biso   1.000  C
  C54      1.0000 0.20420  0.65140  0.21735  Biso   1.000  C
  C55      1.0000 0.70420  0.84860  0.71735  Biso   1.000  C
  C56      1.0000 0.79580  0.34860  0.78265  Biso   1.000  C
  H53      1.0000 0.28000  0.26750  0.30460  Biso   1.000  H
  H54      1.0000 0.22000  0.76750  0.19540  Biso   1.000  H
  H55      1.0000 0.72000  0.73250  0.69540  Biso   1.000  H
  H56      1.0000 0.78000  0.23250  0.80460  Biso   1.000  H
  N1       1.0000 0.96060  0.26760  0.12100  Biso   1.000  N
  N2       1.0000 0.53940  0.76760  0.37900  Biso   1.000  N
  N3       1.0000 0.03940  0.73240  0.87900  Biso   1.000  N
  N4       1.0000 0.46060  0.23240  0.62100  Biso   1.000  N
  N5       1.0000 0.15410  0.21070  0.06966  Biso   1.000  N
  N6       1.0000 0.34590  0.71070  0.43034  Biso   1.000  N
  N7       1.0000 0.84590  0.78930  0.93034  Biso   1.000  N
  N8       1.0000 0.65410  0.28930  0.56966  Biso   1.000  N
  O1       1.0000 0.04640  0.22600  0.28004  Biso   1.000  O
  O2       1.0000 0.45360  0.72600  0.21996  Biso   1.000  O
  O3       1.0000 0.95360  0.77400  0.71996  Biso   1.000  O
  O4       1.0000 0.54640  0.27400  0.78004  Biso   1.000  O
  O5       1.0000 0.36184  0.04660  0.31969  Biso   1.000  O
  O6       1.0000 0.13816  0.54660  0.18031  Biso   1.000  O
  O7       1.0000 0.63816  0.95340  0.68031  Biso   1.000  O
  O8       1.0000 0.86184  0.45340  0.81969  Biso   1.000  O
  O9       1.0000 0.24788  0.11470  0.21745  Biso   1.000  O
  O10      1.0000 0.25212  0.61470  0.28255  Biso   1.000  O
  O11      1.0000 0.75212  0.88530  0.78255  Biso   1.000  O
  O12      1.0000 0.74788  0.38530  0.71745  Biso   1.000  O
  O13      1.0000 0.00920  0.92190  0.26920  Biso   1.000  O
  O14      1.0000 0.49080  0.42190  0.23080  Biso   1.000  O
  O15      1.0000 0.99080  0.07810  0.73080  Biso   1.000  O
  O16      1.0000 0.50920  0.57810  0.76920  Biso   1.000  O
  O17      1.0000 0.98230  0.57460  0.35350  Biso   1.000  O
  O18      1.0000 0.51770  0.07460  0.14650  Biso   1.000  O
  O19      1.0000 0.01770  0.42540  0.64650  Biso   1.000  O
  O20      1.0000 0.48230  0.92540  0.85350  Biso   1.000  O
  H57      1.0000 0.00240  0.48030  0.31670  Biso   1.000  H
  H58      1.0000 0.49760  0.98030  0.18330  Biso   1.000  H
  H59      1.0000 0.99760  0.51970  0.68330  Biso   1.000  H
  H60      1.0000 0.50240  0.01970  0.81670  Biso   1.000  H
  H61      1.0000 0.97810  0.66870  0.31870  Biso   1.000  H
  H62      1.0000 0.52190  0.16870  0.18130  Biso   1.000  H
  H63      1.0000 0.02190  0.33130  0.68130  Biso   1.000  H
  H64      1.0000 0.47810  0.83130  0.81870  Biso   1.000  H
