data_image0
_cell_length_a       10.0424
_cell_length_b       16.1906
_cell_length_c       9.9593
_cell_angle_alpha    90
_cell_angle_beta     96.619
_cell_angle_gamma    90

_symmetry_space_group_name_H-M    "P 1"
_symmetry_int_tables_number       1

loop_
  _symmetry_equiv_pos_as_xyz
  'x, y, z'

loop_
  _atom_site_label
  _atom_site_occupancy
  _atom_site_fract_x
  _atom_site_fract_y
  _atom_site_fract_z
  _atom_site_thermal_displace_type
  _atom_site_B_iso_or_equiv
  _atom_site_type_symbol
  Cu1      1.0000 0.65071  0.15630  0.28134  Biso   1.000  Cu
  Cu2      1.0000 0.34929  0.65630  0.21866  Biso   1.000  Cu
  Cu3      1.0000 0.34929  0.84370  0.71866  Biso   1.000  Cu
  Cu4      1.0000 0.65071  0.34370  0.78134  Biso   1.000  Cu
  C1       1.0000 0.41920  0.06410  0.13600  Biso   1.000  C
  C2       1.0000 0.58080  0.56410  0.36400  Biso   1.000  C
  C3       1.0000 0.58080  0.93590  0.86400  Biso   1.000  C
  C4       1.0000 0.41920  0.43590  0.63600  Biso   1.000  C
  H1       1.0000 0.40040  0.11300  0.08860  Biso   1.000  H
  H2       1.0000 0.59960  0.61300  0.41140  Biso   1.000  H
  H3       1.0000 0.59960  0.88700  0.91140  Biso   1.000  H
  H4       1.0000 0.40040  0.38700  0.58860  Biso   1.000  H
  C5       1.0000 0.33690  0.99640  0.10320  Biso   1.000  C
  C6       1.0000 0.66310  0.49640  0.39680  Biso   1.000  C
  C7       1.0000 0.66310  0.00360  0.89680  Biso   1.000  C
  C8       1.0000 0.33690  0.50360  0.60320  Biso   1.000  C
  C9       1.0000 0.36840  0.92440  0.17450  Biso   1.000  C
  C10      1.0000 0.63160  0.42440  0.32550  Biso   1.000  C
  C11      1.0000 0.63160  0.07560  0.82550  Biso   1.000  C
  C12      1.0000 0.36840  0.57560  0.67450  Biso   1.000  C
  H5       1.0000 0.31660  0.87740  0.15540  Biso   1.000  H
  H6       1.0000 0.68340  0.37740  0.34460  Biso   1.000  H
  H7       1.0000 0.68340  0.12260  0.84460  Biso   1.000  H
  H8       1.0000 0.31660  0.62260  0.65540  Biso   1.000  H
  C13      1.0000 0.47600  0.92180  0.27380  Biso   1.000  C
  C14      1.0000 0.52400  0.42180  0.22620  Biso   1.000  C
  C15      1.0000 0.52400  0.07820  0.72620  Biso   1.000  C
  C16      1.0000 0.47600  0.57820  0.77380  Biso   1.000  C
  H9       1.0000 0.49730  0.87320  0.32100  Biso   1.000  H
  H10      1.0000 0.50270  0.37320  0.17900  Biso   1.000  H
  H11      1.0000 0.50270  0.12680  0.67900  Biso   1.000  H
  H12      1.0000 0.49730  0.62680  0.82100  Biso   1.000  H
  C17      1.0000 0.55190  0.99205  0.30240  Biso   1.000  C
  C18      1.0000 0.44810  0.49205  0.19760  Biso   1.000  C
  C19      1.0000 0.44810  0.00795  0.69760  Biso   1.000  C
  C20      1.0000 0.55190  0.50795  0.80240  Biso   1.000  C
  C21      1.0000 0.66660  0.99833  0.40810  Biso   1.000  C
  C22      1.0000 0.33340  0.49833  0.09190  Biso   1.000  C
  C23      1.0000 0.33340  0.00167  0.59190  Biso   1.000  C
  C24      1.0000 0.66660  0.50167  0.90810  Biso   1.000  C
  C25      1.0000 0.70460  0.93580  0.50020  Biso   1.000  C
  C26      1.0000 0.29540  0.43580  0.99980  Biso   1.000  C
  C27      1.0000 0.29540  0.06420  0.49980  Biso   1.000  C
  C28      1.0000 0.70460  0.56420  0.00020  Biso   1.000  C
  H13      1.0000 0.65930  0.88560  0.49600  Biso   1.000  H
  H14      1.0000 0.34070  0.38560  0.00400  Biso   1.000  H
  H15      1.0000 0.34070  0.11440  0.50400  Biso   1.000  H
  H16      1.0000 0.65930  0.61440  0.99600  Biso   1.000  H
  C29      1.0000 0.81120  0.94980  0.59820  Biso   1.000  C
  C30      1.0000 0.18880  0.44980  0.90180  Biso   1.000  C
  C31      1.0000 0.18880  0.05020  0.40180  Biso   1.000  C
  C32      1.0000 0.81120  0.55020  0.09820  Biso   1.000  C
  H17      1.0000 0.83860  0.90810  0.65930  Biso   1.000  H
  H18      1.0000 0.16140  0.40810  0.84070  Biso   1.000  H
  H19      1.0000 0.16140  0.09190  0.34070  Biso   1.000  H
  H20      1.0000 0.83860  0.59190  0.15930  Biso   1.000  H
  C33      1.0000 0.87780  0.02450  0.60710  Biso   1.000  C
  C34      1.0000 0.12220  0.52450  0.89290  Biso   1.000  C
  C35      1.0000 0.12220  0.97550  0.39290  Biso   1.000  C
  C36      1.0000 0.87780  0.47550  0.10710  Biso   1.000  C
  C37      1.0000 0.83450  0.08340  0.50940  Biso   1.000  C
  C38      1.0000 0.16550  0.58340  0.99060  Biso   1.000  C
  C39      1.0000 0.16550  0.91660  0.49060  Biso   1.000  C
  C40      1.0000 0.83450  0.41660  0.00940  Biso   1.000  C
  H21      1.0000 0.87940  0.13360  0.51090  Biso   1.000  H
  H22      1.0000 0.12060  0.63360  0.98910  Biso   1.000  H
  H23      1.0000 0.12060  0.86640  0.48910  Biso   1.000  H
  H24      1.0000 0.87940  0.36640  0.01090  Biso   1.000  H
  C41      1.0000 0.22130  0.00320  0.99390  Biso   1.000  C
  C42      1.0000 0.77870  0.50320  0.50610  Biso   1.000  C
  C43      1.0000 0.77870  0.99680  0.00610  Biso   1.000  C
  C44      1.0000 0.22130  0.49680  0.49390  Biso   1.000  C
  H25      1.0000 0.19930  0.94940  0.95730  Biso   1.000  H
  H26      1.0000 0.80070  0.44940  0.54270  Biso   1.000  H
  H27      1.0000 0.80070  0.05060  0.04270  Biso   1.000  H
  H28      1.0000 0.19930  0.55060  0.45730  Biso   1.000  H
  H29      1.0000 0.24550  0.03870  0.92350  Biso   1.000  H
  H30      1.0000 0.75450  0.53870  0.57650  Biso   1.000  H
  H31      1.0000 0.75450  0.96130  0.07650  Biso   1.000  H
  H32      1.0000 0.24550  0.46130  0.42350  Biso   1.000  H
  H33      1.0000 0.14510  0.02580  0.03100  Biso   1.000  H
  H34      1.0000 0.85490  0.52580  0.46900  Biso   1.000  H
  H35      1.0000 0.85490  0.97420  0.96900  Biso   1.000  H
  H36      1.0000 0.14510  0.47420  0.53100  Biso   1.000  H
  C45      1.0000 0.99280  0.04310  0.71270  Biso   1.000  C
  C46      1.0000 0.00720  0.54310  0.78730  Biso   1.000  C
  C47      1.0000 0.00720  0.95690  0.28730  Biso   1.000  C
  C48      1.0000 0.99280  0.45690  0.21270  Biso   1.000  C
  H37      1.0000 0.95990  0.07030  0.78800  Biso   1.000  H
  H38      1.0000 0.04010  0.57030  0.71200  Biso   1.000  H
  H39      1.0000 0.04010  0.92970  0.21200  Biso   1.000  H
  H40      1.0000 0.95990  0.42970  0.28800  Biso   1.000  H
  H41      1.0000 0.05560  0.07850  0.67500  Biso   1.000  H
  H42      1.0000 0.94440  0.57850  0.82500  Biso   1.000  H
  H43      1.0000 0.94440  0.92150  0.32500  Biso   1.000  H
  H44      1.0000 0.05560  0.42150  0.17500  Biso   1.000  H
  H45      1.0000 0.03640  0.99260  0.74280  Biso   1.000  H
  H46      1.0000 0.96360  0.49260  0.75720  Biso   1.000  H
  H47      1.0000 0.96360  0.00740  0.25720  Biso   1.000  H
  H48      1.0000 0.03640  0.50740  0.24280  Biso   1.000  H
  C49      1.0000 0.90260  0.22140  0.25730  Biso   1.000  C
  C50      1.0000 0.09740  0.72140  0.24270  Biso   1.000  C
  C51      1.0000 0.09740  0.77860  0.74270  Biso   1.000  C
  C52      1.0000 0.90260  0.27860  0.75730  Biso   1.000  C
  H49      1.0000 0.97420  0.25700  0.28090  Biso   1.000  H
  H50      1.0000 0.02580  0.75700  0.21910  Biso   1.000  H
  H51      1.0000 0.02580  0.74300  0.71910  Biso   1.000  H
  H52      1.0000 0.97420  0.24300  0.78090  Biso   1.000  H
  C53      1.0000 0.60510  0.25055  0.53550  Biso   1.000  C
  C54      1.0000 0.39490  0.75055  0.96450  Biso   1.000  C
  C55      1.0000 0.39490  0.74945  0.46450  Biso   1.000  C
  C56      1.0000 0.60510  0.24945  0.03550  Biso   1.000  C
  H53      1.0000 0.69620  0.25880  0.53170  Biso   1.000  H
  H54      1.0000 0.30380  0.75880  0.96830  Biso   1.000  H
  H55      1.0000 0.30380  0.74120  0.46830  Biso   1.000  H
  H56      1.0000 0.69620  0.24120  0.03170  Biso   1.000  H
  N1       1.0000 0.73160  0.07104  0.41340  Biso   1.000  N
  N2       1.0000 0.26840  0.57104  0.08660  Biso   1.000  N
  N3       1.0000 0.26840  0.92896  0.58660  Biso   1.000  N
  N4       1.0000 0.73160  0.42896  0.91340  Biso   1.000  N
  N5       1.0000 0.52410  0.06271  0.23230  Biso   1.000  N
  N6       1.0000 0.47590  0.56271  0.26770  Biso   1.000  N
  N7       1.0000 0.47590  0.93729  0.76770  Biso   1.000  N
  N8       1.0000 0.52410  0.43729  0.73230  Biso   1.000  N
  O1       1.0000 0.79940  0.23329  0.31710  Biso   1.000  O
  O2       1.0000 0.20060  0.73329  0.18290  Biso   1.000  O
  O3       1.0000 0.20060  0.76671  0.68290  Biso   1.000  O
  O4       1.0000 0.79940  0.26671  0.81710  Biso   1.000  O
  O5       1.0000 0.55580  0.27719  0.63830  Biso   1.000  O
  O6       1.0000 0.44420  0.77719  0.86170  Biso   1.000  O
  O7       1.0000 0.44420  0.72281  0.36170  Biso   1.000  O
  O8       1.0000 0.55580  0.22281  0.13830  Biso   1.000  O
  O9       1.0000 0.54090  0.21425  0.43950  Biso   1.000  O
  O10      1.0000 0.45910  0.71425  0.06050  Biso   1.000  O
  O11      1.0000 0.45910  0.78575  0.56050  Biso   1.000  O
  O12      1.0000 0.54090  0.28575  0.93950  Biso   1.000  O
  O13      1.0000 0.91980  0.16960  0.17350  Biso   1.000  O
  O14      1.0000 0.08020  0.66960  0.32650  Biso   1.000  O
  O15      1.0000 0.08020  0.83040  0.82650  Biso   1.000  O
  O16      1.0000 0.91980  0.33040  0.67350  Biso   1.000  O
  O17      1.0000 0.27510  0.27730  0.34970  Biso   1.000  O
  O18      1.0000 0.72490  0.77730  0.15030  Biso   1.000  O
  O19      1.0000 0.72490  0.72270  0.65030  Biso   1.000  O
  O20      1.0000 0.27510  0.22270  0.84970  Biso   1.000  O
  H57      1.0000 0.25850  0.27030  0.25610  Biso   1.000  H
  H58      1.0000 0.74150  0.77030  0.24390  Biso   1.000  H
  H59      1.0000 0.74150  0.72970  0.74390  Biso   1.000  H
  H60      1.0000 0.25850  0.22970  0.75610  Biso   1.000  H
  H61      1.0000 0.36170  0.25150  0.37450  Biso   1.000  H
  H62      1.0000 0.63830  0.75150  0.12550  Biso   1.000  H
  H63      1.0000 0.63830  0.74850  0.62550  Biso   1.000  H
  H64      1.0000 0.36170  0.24850  0.87450  Biso   1.000  H
  O21      1.0000 0.15690  0.23610  0.08830  Biso   1.000  O
  O22      1.0000 0.84310  0.73610  0.41170  Biso   1.000  O
  O23      1.0000 0.84310  0.76390  0.91170  Biso   1.000  O
  O24      1.0000 0.15690  0.26390  0.58830  Biso   1.000  O
  H65      1.0000 0.19550  0.23540  0.99580  Biso   1.000  H
  H66      1.0000 0.80450  0.73540  0.50420  Biso   1.000  H
  H67      1.0000 0.80450  0.76460  0.00420  Biso   1.000  H
  H68      1.0000 0.19550  0.26460  0.49580  Biso   1.000  H
  H69      1.0000 0.07440  0.22060  0.12040  Biso   1.000  H
  H70      1.0000 0.92560  0.72060  0.37960  Biso   1.000  H
  H71      1.0000 0.92560  0.77940  0.87960  Biso   1.000  H
  H72      1.0000 0.07440  0.27940  0.62040  Biso   1.000  H
