data_image0
_cell_length_a       11.6206
_cell_length_b       11.655
_cell_length_c       9.089
_cell_angle_alpha    90
_cell_angle_beta     90.768
_cell_angle_gamma    90

_symmetry_space_group_name_H-M    "P 1"
_symmetry_int_tables_number       1

loop_
  _symmetry_equiv_pos_as_xyz
  'x, y, z'

loop_
  _atom_site_label
  _atom_site_occupancy
  _atom_site_fract_x
  _atom_site_fract_y
  _atom_site_fract_z
  _atom_site_thermal_displace_type
  _atom_site_B_iso_or_equiv
  _atom_site_type_symbol
  Cu1      1.0000 0.26959  0.43564  0.11828  Biso   1.000  Cu
  Cu2      1.0000 0.73041  0.93564  0.38172  Biso   1.000  Cu
  Cu3      1.0000 0.73041  0.56436  0.88172  Biso   1.000  Cu
  Cu4      1.0000 0.26959  0.06436  0.61828  Biso   1.000  Cu
  C1       1.0000 0.33620  0.44880  0.80070  Biso   1.000  C
  C2       1.0000 0.66380  0.94880  0.69930  Biso   1.000  C
  C3       1.0000 0.66380  0.55120  0.19930  Biso   1.000  C
  C4       1.0000 0.33620  0.05120  0.30070  Biso   1.000  C
  H1       1.0000 0.39170  0.39380  0.82310  Biso   1.000  H
  H2       1.0000 0.60830  0.89380  0.67690  Biso   1.000  H
  H3       1.0000 0.60830  0.60620  0.17690  Biso   1.000  H
  H4       1.0000 0.39170  0.10620  0.32310  Biso   1.000  H
  C5       1.0000 0.32700  0.48850  0.65930  Biso   1.000  C
  C6       1.0000 0.67300  0.98850  0.84070  Biso   1.000  C
  C7       1.0000 0.67300  0.51150  0.34070  Biso   1.000  C
  C8       1.0000 0.32700  0.01150  0.15930  Biso   1.000  C
  H5       1.0000 0.37710  0.46250  0.58760  Biso   1.000  H
  H6       1.0000 0.62290  0.96250  0.91240  Biso   1.000  H
  H7       1.0000 0.62290  0.53750  0.41240  Biso   1.000  H
  H8       1.0000 0.37710  0.03750  0.08760  Biso   1.000  H
  C9       1.0000 0.24370  0.56650  0.62490  Biso   1.000  C
  C10      1.0000 0.75630  0.06650  0.87510  Biso   1.000  C
  C11      1.0000 0.75630  0.43350  0.37510  Biso   1.000  C
  C12      1.0000 0.24370  0.93350  0.12490  Biso   1.000  C
  H9       1.0000 0.23500  0.59280  0.52880  Biso   1.000  H
  H10      1.0000 0.76500  0.09280  0.97120  Biso   1.000  H
  H11      1.0000 0.76500  0.40720  0.47120  Biso   1.000  H
  H12      1.0000 0.23500  0.90720  0.02880  Biso   1.000  H
  C13      1.0000 0.17270  0.60610  0.73280  Biso   1.000  C
  C14      1.0000 0.82730  0.10610  0.76720  Biso   1.000  C
  C15      1.0000 0.82730  0.39390  0.26720  Biso   1.000  C
  C16      1.0000 0.17270  0.89390  0.23280  Biso   1.000  C
  H13      1.0000 0.11550  0.65950  0.71120  Biso   1.000  H
  H14      1.0000 0.88450  0.15950  0.78880  Biso   1.000  H
  H15      1.0000 0.88450  0.34050  0.28880  Biso   1.000  H
  H16      1.0000 0.11550  0.84050  0.21120  Biso   1.000  H
  C17      1.0000 0.18770  0.56520  0.87400  Biso   1.000  C
  C18      1.0000 0.81230  0.06520  0.62600  Biso   1.000  C
  C19      1.0000 0.81230  0.43480  0.12600  Biso   1.000  C
  C20      1.0000 0.18770  0.93480  0.37400  Biso   1.000  C
  C21      1.0000 0.11780  0.60670  0.00000  Biso   1.000  C
  C22      1.0000 0.88220  0.10670  0.50000  Biso   1.000  C
  C23      1.0000 0.88220  0.39330  0.00000  Biso   1.000  C
  C24      1.0000 0.11780  0.89330  0.50000  Biso   1.000  C
  H17      1.0000 0.14990  0.67740  0.03900  Biso   1.000  H
  H18      1.0000 0.85010  0.17740  0.46100  Biso   1.000  H
  H19      1.0000 0.85010  0.32260  0.96100  Biso   1.000  H
  H20      1.0000 0.14990  0.82260  0.53900  Biso   1.000  H
  H21      1.0000 0.03920  0.62140  0.96760  Biso   1.000  H
  H22      1.0000 0.96080  0.12140  0.53240  Biso   1.000  H
  H23      1.0000 0.96080  0.37860  0.03240  Biso   1.000  H
  H24      1.0000 0.03920  0.87860  0.46760  Biso   1.000  H
  C25      1.0000 0.38450  0.66130  0.29390  Biso   1.000  C
  C26      1.0000 0.61550  0.16130  0.20610  Biso   1.000  C
  C27      1.0000 0.61550  0.33870  0.70610  Biso   1.000  C
  C28      1.0000 0.38450  0.83870  0.79390  Biso   1.000  C
  C29      1.0000 0.51160  0.79010  0.38990  Biso   1.000  C
  C30      1.0000 0.48840  0.29010  0.11010  Biso   1.000  C
  C31      1.0000 0.48840  0.20990  0.61010  Biso   1.000  C
  C32      1.0000 0.51160  0.70990  0.88990  Biso   1.000  C
  C33      1.0000 0.17450  0.33040  0.40150  Biso   1.000  C
  C34      1.0000 0.82550  0.83040  0.09850  Biso   1.000  C
  C35      1.0000 0.82550  0.66960  0.59850  Biso   1.000  C
  C36      1.0000 0.17450  0.16960  0.90150  Biso   1.000  C
  C37      1.0000 0.05140  0.33350  0.59190  Biso   1.000  C
  C38      1.0000 0.94860  0.83350  0.90810  Biso   1.000  C
  C39      1.0000 0.94860  0.66650  0.40810  Biso   1.000  C
  C40      1.0000 0.05140  0.16650  0.09190  Biso   1.000  C
  N1       1.0000 0.26782  0.48660  0.90790  Biso   1.000  N
  N2       1.0000 0.73218  0.98660  0.59210  Biso   1.000  N
  N3       1.0000 0.73218  0.51340  0.09210  Biso   1.000  N
  N4       1.0000 0.26782  0.01340  0.40790  Biso   1.000  N
  N5       1.0000 0.34960  0.59230  0.21880  Biso   1.000  N
  N6       1.0000 0.65040  0.09230  0.28120  Biso   1.000  N
  N7       1.0000 0.65040  0.40770  0.78120  Biso   1.000  N
  N8       1.0000 0.34960  0.90770  0.71880  Biso   1.000  N
  N9       1.0000 0.41380  0.73860  0.39080  Biso   1.000  N
  N10      1.0000 0.58620  0.23860  0.10920  Biso   1.000  N
  N11      1.0000 0.58620  0.26140  0.60920  Biso   1.000  N
  N12      1.0000 0.41380  0.76140  0.89080  Biso   1.000  N
  N13      1.0000 0.59430  0.84010  0.40100  Biso   1.000  N
  N14      1.0000 0.40570  0.34010  0.09900  Biso   1.000  N
  N15      1.0000 0.40570  0.15990  0.59900  Biso   1.000  N
  N16      1.0000 0.59430  0.65990  0.90100  Biso   1.000  N
  N17      1.0000 0.22260  0.36590  0.30360  Biso   1.000  N
  N18      1.0000 0.77740  0.86590  0.19640  Biso   1.000  N
  N19      1.0000 0.77740  0.63410  0.69640  Biso   1.000  N
  N20      1.0000 0.22260  0.13410  0.80360  Biso   1.000  N
  N21      1.0000 0.12740  0.27960  0.51320  Biso   1.000  N
  N22      1.0000 0.87260  0.77960  0.98680  Biso   1.000  N
  N23      1.0000 0.87260  0.72040  0.48680  Biso   1.000  N
  N24      1.0000 0.12740  0.22040  0.01320  Biso   1.000  N
  N25      1.0000 0.98180  0.36970  0.66670  Biso   1.000  N
  N26      1.0000 0.01820  0.86970  0.83330  Biso   1.000  N
  N27      1.0000 0.01820  0.63030  0.33330  Biso   1.000  N
  N28      1.0000 0.98180  0.13030  0.16670  Biso   1.000  N
  O1       1.0000 0.11976  0.51962  0.11030  Biso   1.000  O
  O2       1.0000 0.88024  0.01962  0.38970  Biso   1.000  O
  O3       1.0000 0.88024  0.48038  0.88970  Biso   1.000  O
  O4       1.0000 0.11976  0.98038  0.61030  Biso   1.000  O
  H25      1.0000 0.09800  0.54900  0.19000  Biso   1.000  H
  H26      1.0000 0.90200  0.04900  0.31000  Biso   1.000  H
  H27      1.0000 0.90200  0.45100  0.81000  Biso   1.000  H
  H28      1.0000 0.09800  0.95100  0.69000  Biso   1.000  H
