data_image0
_cell_length_a       14.035
_cell_length_b       14.766
_cell_length_c       26.088
_cell_angle_alpha    90
_cell_angle_beta     94.59
_cell_angle_gamma    90

_symmetry_space_group_name_H-M    "P 1"
_symmetry_int_tables_number       1

loop_
  _symmetry_equiv_pos_as_xyz
  'x, y, z'

loop_
  _atom_site_label
  _atom_site_occupancy
  _atom_site_fract_x
  _atom_site_fract_y
  _atom_site_fract_z
  _atom_site_thermal_displace_type
  _atom_site_B_iso_or_equiv
  _atom_site_type_symbol
  Gd1      1.0000 0.98152  0.24260  0.27167  Biso   1.000  Gd
  Gd2      1.0000 0.01848  0.74260  0.22833  Biso   1.000  Gd
  Gd3      1.0000 0.01848  0.75740  0.72833  Biso   1.000  Gd
  Gd4      1.0000 0.98152  0.25740  0.77167  Biso   1.000  Gd
  Cu1      1.0000 0.79197  0.12940  0.07923  Biso   1.000  Cu
  Cu2      1.0000 0.20803  0.62940  0.42077  Biso   1.000  Cu
  Cu3      1.0000 0.20803  0.87060  0.92077  Biso   1.000  Cu
  Cu4      1.0000 0.79197  0.37060  0.57923  Biso   1.000  Cu
  Cu5      1.0000 0.62852  0.37870  0.33415  Biso   1.000  Cu
  Cu6      1.0000 0.37148  0.87870  0.16585  Biso   1.000  Cu
  Cu7      1.0000 0.37148  0.62130  0.66585  Biso   1.000  Cu
  Cu8      1.0000 0.62852  0.12130  0.83415  Biso   1.000  Cu
  Cu9      1.0000 0.13946  0.09676  0.46174  Biso   1.000  Cu
  Cu10     1.0000 0.86054  0.59676  0.03826  Biso   1.000  Cu
  Cu11     1.0000 0.86054  0.90324  0.53826  Biso   1.000  Cu
  Cu12     1.0000 0.13946  0.40324  0.96174  Biso   1.000  Cu
  Cu13     1.0000 0.35278  0.35583  0.22040  Biso   1.000  Cu
  Cu14     1.0000 0.64722  0.85583  0.27960  Biso   1.000  Cu
  Cu15     1.0000 0.64722  0.64417  0.77960  Biso   1.000  Cu
  Cu16     1.0000 0.35278  0.14417  0.72040  Biso   1.000  Cu
  Na1      1.0000 0.03980  0.99380  0.25840  Biso   1.000  Na
  Na2      1.0000 0.96020  0.49380  0.24160  Biso   1.000  Na
  Na3      1.0000 0.96020  0.00620  0.74160  Biso   1.000  Na
  Na4      1.0000 0.03980  0.50620  0.75840  Biso   1.000  Na
  O1       1.0000 0.89430  0.29000  0.19300  Biso   1.000  O
  O2       1.0000 0.10570  0.79000  0.30700  Biso   1.000  O
  O3       1.0000 0.10570  0.71000  0.80700  Biso   1.000  O
  O4       1.0000 0.89430  0.21000  0.69300  Biso   1.000  O
  O5       1.0000 0.95150  0.11820  0.21260  Biso   1.000  O
  O6       1.0000 0.04850  0.61820  0.28740  Biso   1.000  O
  O7       1.0000 0.04850  0.88180  0.78740  Biso   1.000  O
  O8       1.0000 0.95150  0.38180  0.71260  Biso   1.000  O
  O9       1.0000 0.81840  0.24690  0.11870  Biso   1.000  O
  O10      1.0000 0.18160  0.74690  0.38130  Biso   1.000  O
  O11      1.0000 0.18160  0.75310  0.88130  Biso   1.000  O
  O12      1.0000 0.81840  0.25310  0.61870  Biso   1.000  O
  O13      1.0000 0.69130  0.17730  0.03460  Biso   1.000  O
  O14      1.0000 0.30870  0.67730  0.46540  Biso   1.000  O
  O15      1.0000 0.30870  0.82270  0.96540  Biso   1.000  O
  O16      1.0000 0.69130  0.32270  0.53460  Biso   1.000  O
  O17      1.0000 0.83080  0.20700  0.30070  Biso   1.000  O
  O18      1.0000 0.16920  0.70700  0.19930  Biso   1.000  O
  O19      1.0000 0.16920  0.79300  0.69930  Biso   1.000  O
  O20      1.0000 0.83080  0.29300  0.80070  Biso   1.000  O
  O21      1.0000 0.89820  0.37920  0.29540  Biso   1.000  O
  O22      1.0000 0.10180  0.87920  0.20460  Biso   1.000  O
  O23      1.0000 0.10180  0.62080  0.70460  Biso   1.000  O
  O24      1.0000 0.89820  0.12080  0.79540  Biso   1.000  O
  O25      1.0000 0.69110  0.25870  0.32520  Biso   1.000  O
  O26      1.0000 0.30890  0.75870  0.17480  Biso   1.000  O
  O27      1.0000 0.30890  0.74130  0.67480  Biso   1.000  O
  O28      1.0000 0.69110  0.24130  0.82520  Biso   1.000  O
  O29      1.0000 0.50850  0.33070  0.34170  Biso   1.000  O
  O30      1.0000 0.49150  0.83070  0.15830  Biso   1.000  O
  O31      1.0000 0.49150  0.66930  0.65830  Biso   1.000  O
  O32      1.0000 0.50850  0.16930  0.84170  Biso   1.000  O
  O33      1.0000 0.05990  0.27280  0.35360  Biso   1.000  O
  O34      1.0000 0.94010  0.77280  0.14640  Biso   1.000  O
  O35      1.0000 0.94010  0.72720  0.64640  Biso   1.000  O
  O36      1.0000 0.05990  0.22720  0.85360  Biso   1.000  O
  O37      1.0000 0.00580  0.10560  0.32240  Biso   1.000  O
  O38      1.0000 0.99420  0.60560  0.17760  Biso   1.000  O
  O39      1.0000 0.99420  0.89440  0.67760  Biso   1.000  O
  O40      1.0000 0.00580  0.39440  0.82240  Biso   1.000  O
  O41      1.0000 0.12380  0.21680  0.42690  Biso   1.000  O
  O42      1.0000 0.87620  0.71680  0.07310  Biso   1.000  O
  O43      1.0000 0.87620  0.78320  0.57310  Biso   1.000  O
  O44      1.0000 0.12380  0.28320  0.92690  Biso   1.000  O
  O45      1.0000 0.21120  0.14300  0.51940  Biso   1.000  O
  O46      1.0000 0.78880  0.64300  0.98060  Biso   1.000  O
  O47      1.0000 0.78880  0.85700  0.48060  Biso   1.000  O
  O48      1.0000 0.21120  0.35700  0.01940  Biso   1.000  O
  O49      1.0000 0.13660  0.19430  0.24940  Biso   1.000  O
  O50      1.0000 0.86340  0.69430  0.25060  Biso   1.000  O
  O51      1.0000 0.86340  0.80570  0.75060  Biso   1.000  O
  O52      1.0000 0.13660  0.30570  0.74940  Biso   1.000  O
  O53      1.0000 0.07500  0.36870  0.24400  Biso   1.000  O
  O54      1.0000 0.92500  0.86870  0.25600  Biso   1.000  O
  O55      1.0000 0.92500  0.63130  0.75600  Biso   1.000  O
  O56      1.0000 0.07500  0.13130  0.74400  Biso   1.000  O
  O57      1.0000 0.28120  0.23750  0.22920  Biso   1.000  O
  O58      1.0000 0.71880  0.73750  0.27080  Biso   1.000  O
  O59      1.0000 0.71880  0.76250  0.77080  Biso   1.000  O
  O60      1.0000 0.28120  0.26250  0.72920  Biso   1.000  O
  O61      1.0000 0.46970  0.30390  0.20750  Biso   1.000  O
  O62      1.0000 0.53030  0.80390  0.29250  Biso   1.000  O
  O63      1.0000 0.53030  0.69610  0.79250  Biso   1.000  O
  O64      1.0000 0.46970  0.19610  0.70750  Biso   1.000  O
  O65      1.0000 0.91860  0.14890  0.01550  Biso   1.000  O
  O66      1.0000 0.08140  0.64890  0.48450  Biso   1.000  O
  O67      1.0000 0.08140  0.85110  0.98450  Biso   1.000  O
  O68      1.0000 0.91860  0.35110  0.51550  Biso   1.000  O
  O69      1.0000 0.09400  0.21650  0.04980  Biso   1.000  O
  O70      1.0000 0.90600  0.71650  0.45020  Biso   1.000  O
  O71      1.0000 0.90600  0.78350  0.95020  Biso   1.000  O
  O72      1.0000 0.09400  0.28350  0.54980  Biso   1.000  O
  O73      1.0000 0.19560  0.99630  0.30360  Biso   1.000  O
  O74      1.0000 0.80440  0.49630  0.19640  Biso   1.000  O
  O75      1.0000 0.80440  0.00370  0.69640  Biso   1.000  O
  O76      1.0000 0.19560  0.50370  0.80360  Biso   1.000  O
  N1       1.0000 0.87710  0.08180  0.13360  Biso   1.000  N
  N2       1.0000 0.12290  0.58180  0.36640  Biso   1.000  N
  N3       1.0000 0.12290  0.91820  0.86640  Biso   1.000  N
  N4       1.0000 0.87710  0.41820  0.63360  Biso   1.000  N
  N5       1.0000 0.77980  0.00430  0.05840  Biso   1.000  N
  N6       1.0000 0.22020  0.50430  0.44160  Biso   1.000  N
  N7       1.0000 0.22020  0.99570  0.94160  Biso   1.000  N
  N8       1.0000 0.77980  0.49570  0.55840  Biso   1.000  N
  N9       1.0000 0.75090  0.42380  0.32260  Biso   1.000  N
  N10      1.0000 0.24910  0.92380  0.17740  Biso   1.000  N
  N11      1.0000 0.24910  0.57620  0.67740  Biso   1.000  N
  N12      1.0000 0.75090  0.07620  0.82260  Biso   1.000  N
  N13      1.0000 0.59990  0.50180  0.35110  Biso   1.000  N
  N14      1.0000 0.40010  0.00180  0.14890  Biso   1.000  N
  N15      1.0000 0.40010  0.49820  0.64890  Biso   1.000  N
  N16      1.0000 0.59990  0.99820  0.85110  Biso   1.000  N
  N17      1.0000 0.05790  0.05650  0.40370  Biso   1.000  N
  N18      1.0000 0.94210  0.55650  0.09630  Biso   1.000  N
  N19      1.0000 0.94210  0.94350  0.59630  Biso   1.000  N
  N20      1.0000 0.05790  0.44350  0.90370  Biso   1.000  N
  N21      1.0000 0.13230  0.97500  0.48630  Biso   1.000  N
  N22      1.0000 0.86770  0.47500  0.01370  Biso   1.000  N
  N23      1.0000 0.86770  0.02500  0.51370  Biso   1.000  N
  N24      1.0000 0.13230  0.52500  0.98630  Biso   1.000  N
  N25      1.0000 0.22810  0.40700  0.22720  Biso   1.000  N
  N26      1.0000 0.77190  0.90700  0.27280  Biso   1.000  N
  N27      1.0000 0.77190  0.59300  0.77280  Biso   1.000  N
  N28      1.0000 0.22810  0.09300  0.72720  Biso   1.000  N
  N29      1.0000 0.39390  0.47870  0.22280  Biso   1.000  N
  N30      1.0000 0.60610  0.97870  0.27720  Biso   1.000  N
  N31      1.0000 0.60610  0.52130  0.77720  Biso   1.000  N
  N32      1.0000 0.39390  0.02130  0.72280  Biso   1.000  N
  C1       1.0000 0.86930  0.23180  0.15950  Biso   1.000  C
  C2       1.0000 0.13070  0.73180  0.34050  Biso   1.000  C
  C3       1.0000 0.13070  0.76820  0.84050  Biso   1.000  C
  C4       1.0000 0.86930  0.26820  0.65950  Biso   1.000  C
  C5       1.0000 0.90330  0.13410  0.17080  Biso   1.000  C
  C6       1.0000 0.09670  0.63410  0.32920  Biso   1.000  C
  C7       1.0000 0.09670  0.86590  0.82920  Biso   1.000  C
  C8       1.0000 0.90330  0.36590  0.67080  Biso   1.000  C
  C9       1.0000 0.89220  0.98270  0.13500  Biso   1.000  C
  C10      1.0000 0.10780  0.48270  0.36500  Biso   1.000  C
  C11      1.0000 0.10780  0.01730  0.86500  Biso   1.000  C
  C12      1.0000 0.89220  0.51730  0.63500  Biso   1.000  C
  C13      1.0000 0.85860  0.94720  0.08120  Biso   1.000  C
  C14      1.0000 0.14140  0.44720  0.41880  Biso   1.000  C
  C15      1.0000 0.14140  0.05280  0.91880  Biso   1.000  C
  C16      1.0000 0.85860  0.55280  0.58120  Biso   1.000  C
  C17      1.0000 0.71520  0.97400  0.02240  Biso   1.000  C
  C18      1.0000 0.28480  0.47400  0.47760  Biso   1.000  C
  C19      1.0000 0.28480  0.02600  0.97760  Biso   1.000  C
  C20      1.0000 0.71520  0.52600  0.52240  Biso   1.000  C
  C21      1.0000 0.64110  0.03160  0.99910  Biso   1.000  C
  C22      1.0000 0.35890  0.53160  0.50090  Biso   1.000  C
  C23      1.0000 0.35890  0.96840  0.00090  Biso   1.000  C
  C24      1.0000 0.64110  0.46840  0.49910  Biso   1.000  C
  C25      1.0000 0.63710  0.12410  0.00370  Biso   1.000  C
  C26      1.0000 0.36290  0.62410  0.49630  Biso   1.000  C
  C27      1.0000 0.36290  0.87590  0.99630  Biso   1.000  C
  C28      1.0000 0.63710  0.37590  0.50370  Biso   1.000  C
  C29      1.0000 0.71750  0.87770  0.00490  Biso   1.000  C
  C30      1.0000 0.28250  0.37770  0.49510  Biso   1.000  C
  C31      1.0000 0.28250  0.12230  0.99510  Biso   1.000  C
  C32      1.0000 0.71750  0.62230  0.50490  Biso   1.000  C
  C33      1.0000 0.56010  0.17690  0.97310  Biso   1.000  C
  C34      1.0000 0.43990  0.67690  0.52690  Biso   1.000  C
  C35      1.0000 0.43990  0.82310  0.02690  Biso   1.000  C
  C36      1.0000 0.56010  0.32310  0.47310  Biso   1.000  C
  C37      1.0000 0.77390  0.26900  0.31260  Biso   1.000  C
  C38      1.0000 0.22610  0.76900  0.18740  Biso   1.000  C
  C39      1.0000 0.22610  0.73100  0.68740  Biso   1.000  C
  C40      1.0000 0.77390  0.23100  0.81260  Biso   1.000  C
  C41      1.0000 0.81180  0.36690  0.30970  Biso   1.000  C
  C42      1.0000 0.18820  0.86690  0.19030  Biso   1.000  C
  C43      1.0000 0.18820  0.63310  0.69030  Biso   1.000  C
  C44      1.0000 0.81180  0.13310  0.80970  Biso   1.000  C
  C45      1.0000 0.75850  0.52260  0.32080  Biso   1.000  C
  C46      1.0000 0.24150  0.02260  0.17920  Biso   1.000  C
  C47      1.0000 0.24150  0.47740  0.67920  Biso   1.000  C
  C48      1.0000 0.75850  0.97740  0.82080  Biso   1.000  C
  C49      1.0000 0.68060  0.56000  0.35280  Biso   1.000  C
  C50      1.0000 0.31940  0.06000  0.14720  Biso   1.000  C
  C51      1.0000 0.31940  0.44000  0.64720  Biso   1.000  C
  C52      1.0000 0.68060  0.94000  0.85280  Biso   1.000  C
  C53      1.0000 0.52020  0.52930  0.36550  Biso   1.000  C
  C54      1.0000 0.47980  0.02930  0.13450  Biso   1.000  C
  C55      1.0000 0.47980  0.47070  0.63450  Biso   1.000  C
  C56      1.0000 0.52020  0.97070  0.86550  Biso   1.000  C
  C57      1.0000 0.44170  0.47240  0.36480  Biso   1.000  C
  C58      1.0000 0.55830  0.97240  0.13520  Biso   1.000  C
  C59      1.0000 0.55830  0.52760  0.63520  Biso   1.000  C
  C60      1.0000 0.44170  0.02760  0.86480  Biso   1.000  C
  C61      1.0000 0.43780  0.37810  0.35250  Biso   1.000  C
  C62      1.0000 0.56220  0.87810  0.14750  Biso   1.000  C
  C63      1.0000 0.56220  0.62190  0.64750  Biso   1.000  C
  C64      1.0000 0.43780  0.12190  0.85250  Biso   1.000  C
  C65      1.0000 0.50280  0.62500  0.38210  Biso   1.000  C
  C66      1.0000 0.49720  0.12500  0.11790  Biso   1.000  C
  C67      1.0000 0.49720  0.37500  0.61790  Biso   1.000  C
  C68      1.0000 0.50280  0.87500  0.88210  Biso   1.000  C
  C69      1.0000 0.34510  0.32080  0.35740  Biso   1.000  C
  C70      1.0000 0.65490  0.82080  0.14260  Biso   1.000  C
  C71      1.0000 0.65490  0.67920  0.64260  Biso   1.000  C
  C72      1.0000 0.34510  0.17920  0.85740  Biso   1.000  C
  C73      1.0000 0.07910  0.20920  0.38410  Biso   1.000  C
  C74      1.0000 0.92090  0.70920  0.11590  Biso   1.000  C
  C75      1.0000 0.92090  0.79080  0.61590  Biso   1.000  C
  C76      1.0000 0.07910  0.29080  0.88410  Biso   1.000  C
  C77      1.0000 0.04270  0.11510  0.36720  Biso   1.000  C
  C78      1.0000 0.95730  0.61510  0.13280  Biso   1.000  C
  C79      1.0000 0.95730  0.88490  0.63280  Biso   1.000  C
  C80      1.0000 0.04270  0.38490  0.86720  Biso   1.000  C
  C81      1.0000 0.03550  0.96180  0.40080  Biso   1.000  C
  C82      1.0000 0.96450  0.46180  0.09920  Biso   1.000  C
  C83      1.0000 0.96450  0.03820  0.59920  Biso   1.000  C
  C84      1.0000 0.03550  0.53820  0.90080  Biso   1.000  C
  C85      1.0000 0.07480  0.91750  0.45270  Biso   1.000  C
  C86      1.0000 0.92520  0.41750  0.04730  Biso   1.000  C
  C87      1.0000 0.92520  0.08250  0.54730  Biso   1.000  C
  C88      1.0000 0.07480  0.58250  0.95270  Biso   1.000  C
  C89      1.0000 0.18040  0.94670  0.52750  Biso   1.000  C
  C90      1.0000 0.81960  0.44670  0.97250  Biso   1.000  C
  C91      1.0000 0.81960  0.05330  0.47250  Biso   1.000  C
  C92      1.0000 0.18040  0.55330  0.02750  Biso   1.000  C
  C93      1.0000 0.23650  0.00070  0.55860  Biso   1.000  C
  C94      1.0000 0.76350  0.50070  0.94140  Biso   1.000  C
  C95      1.0000 0.76350  0.99930  0.44140  Biso   1.000  C
  C96      1.0000 0.23650  0.49930  0.05860  Biso   1.000  C
  C97      1.0000 0.25150  0.09010  0.55280  Biso   1.000  C
  C98      1.0000 0.74850  0.59010  0.94720  Biso   1.000  C
  C99      1.0000 0.74850  0.90990  0.44720  Biso   1.000  C
  C100     1.0000 0.25150  0.40990  0.05280  Biso   1.000  C
  C101     1.0000 0.17450  0.84510  0.54240  Biso   1.000  C
  C102     1.0000 0.82550  0.34510  0.95760  Biso   1.000  C
  C103     1.0000 0.82550  0.15490  0.45760  Biso   1.000  C
  C104     1.0000 0.17450  0.65490  0.04240  Biso   1.000  C
  C105     1.0000 0.31520  0.14240  0.59230  Biso   1.000  C
  C106     1.0000 0.68480  0.64240  0.90770  Biso   1.000  C
  C107     1.0000 0.68480  0.85760  0.40770  Biso   1.000  C
  C108     1.0000 0.31520  0.35760  0.09230  Biso   1.000  C
  C109     1.0000 0.19670  0.25340  0.23880  Biso   1.000  C
  C110     1.0000 0.80330  0.75340  0.26120  Biso   1.000  C
  C111     1.0000 0.80330  0.74660  0.76120  Biso   1.000  C
  C112     1.0000 0.19670  0.24660  0.73880  Biso   1.000  C
  C113     1.0000 0.16170  0.35220  0.23720  Biso   1.000  C
  C114     1.0000 0.83830  0.85220  0.26280  Biso   1.000  C
  C115     1.0000 0.83830  0.64780  0.76280  Biso   1.000  C
  C116     1.0000 0.16170  0.14780  0.73720  Biso   1.000  C
  C117     1.0000 0.22150  0.50290  0.22190  Biso   1.000  C
  C118     1.0000 0.77850  0.00290  0.27810  Biso   1.000  C
  C119     1.0000 0.77850  0.49710  0.77810  Biso   1.000  C
  C120     1.0000 0.22150  0.99710  0.72190  Biso   1.000  C
  C121     1.0000 0.31700  0.54270  0.23440  Biso   1.000  C
  C122     1.0000 0.68300  0.04270  0.26560  Biso   1.000  C
  C123     1.0000 0.68300  0.45730  0.76560  Biso   1.000  C
  C124     1.0000 0.31700  0.95730  0.73440  Biso   1.000  C
  C125     1.0000 0.48210  0.50410  0.22090  Biso   1.000  C
  C126     1.0000 0.51790  0.00410  0.27910  Biso   1.000  C
  C127     1.0000 0.51790  0.49590  0.77910  Biso   1.000  C
  C128     1.0000 0.48210  0.99590  0.72090  Biso   1.000  C
  C129     1.0000 0.55720  0.44120  0.21350  Biso   1.000  C
  C130     1.0000 0.44280  0.94120  0.28650  Biso   1.000  C
  C131     1.0000 0.44280  0.55880  0.78650  Biso   1.000  C
  C132     1.0000 0.55720  0.05880  0.71350  Biso   1.000  C
  C133     1.0000 0.54730  0.34980  0.20650  Biso   1.000  C
  C134     1.0000 0.45270  0.84980  0.29350  Biso   1.000  C
  C135     1.0000 0.45270  0.65020  0.79350  Biso   1.000  C
  C136     1.0000 0.54730  0.15020  0.70650  Biso   1.000  C
  C137     1.0000 0.51150  0.60310  0.22780  Biso   1.000  C
  C138     1.0000 0.48850  0.10310  0.27220  Biso   1.000  C
  C139     1.0000 0.48850  0.39690  0.77220  Biso   1.000  C
  C140     1.0000 0.51150  0.89690  0.72780  Biso   1.000  C
  C141     1.0000 0.63420  0.29550  0.19530  Biso   1.000  C
  C142     1.0000 0.36580  0.79550  0.30470  Biso   1.000  C
  C143     1.0000 0.36580  0.70450  0.80470  Biso   1.000  C
  C144     1.0000 0.63420  0.20450  0.69530  Biso   1.000  C
  C145     1.0000 0.90120  0.11160  0.96610  Biso   1.000  C
  C146     1.0000 0.09880  0.61160  0.53390  Biso   1.000  C
  C147     1.0000 0.09880  0.88840  0.03390  Biso   1.000  C
  C148     1.0000 0.90120  0.38840  0.46610  Biso   1.000  C
  C149     1.0000 0.09780  0.22830  0.10290  Biso   1.000  C
  C150     1.0000 0.90220  0.72830  0.39710  Biso   1.000  C
  C151     1.0000 0.90220  0.77170  0.89710  Biso   1.000  C
  C152     1.0000 0.09780  0.27170  0.60290  Biso   1.000  C
  H1       1.0000 0.95810  0.96930  0.14270  Biso   1.000  H
  H2       1.0000 0.04190  0.46930  0.35730  Biso   1.000  H
  H3       1.0000 0.04190  0.03070  0.85730  Biso   1.000  H
  H4       1.0000 0.95810  0.53070  0.64270  Biso   1.000  H
  H5       1.0000 0.85600  0.95580  0.16020  Biso   1.000  H
  H6       1.0000 0.14400  0.45580  0.33980  Biso   1.000  H
  H7       1.0000 0.14400  0.04420  0.83980  Biso   1.000  H
  H8       1.0000 0.85600  0.54420  0.66020  Biso   1.000  H
  H9       1.0000 0.83660  0.88660  0.08390  Biso   1.000  H
  H10      1.0000 0.16340  0.38660  0.41610  Biso   1.000  H
  H11      1.0000 0.16340  0.11340  0.91610  Biso   1.000  H
  H12      1.0000 0.83660  0.61340  0.58390  Biso   1.000  H
  H13      1.0000 0.91030  0.94870  0.05990  Biso   1.000  H
  H14      1.0000 0.08970  0.44870  0.44010  Biso   1.000  H
  H15      1.0000 0.08970  0.05130  0.94010  Biso   1.000  H
  H16      1.0000 0.91030  0.55130  0.55990  Biso   1.000  H
  H17      1.0000 0.59040  0.00300  0.97890  Biso   1.000  H
  H18      1.0000 0.40960  0.50300  0.52110  Biso   1.000  H
  H19      1.0000 0.40960  0.99700  0.02110  Biso   1.000  H
  H20      1.0000 0.59040  0.49700  0.47890  Biso   1.000  H
  H21      1.0000 0.75630  0.87320  0.97670  Biso   1.000  H
  H22      1.0000 0.24370  0.37320  0.52330  Biso   1.000  H
  H23      1.0000 0.24370  0.12680  0.02330  Biso   1.000  H
  H24      1.0000 0.75630  0.62680  0.47670  Biso   1.000  H
  H25      1.0000 0.65450  0.85820  0.99440  Biso   1.000  H
  H26      1.0000 0.34550  0.35820  0.50560  Biso   1.000  H
  H27      1.0000 0.34550  0.14180  0.00560  Biso   1.000  H
  H28      1.0000 0.65450  0.64180  0.49440  Biso   1.000  H
  H29      1.0000 0.74340  0.84060  0.03230  Biso   1.000  H
  H30      1.0000 0.25660  0.34060  0.46770  Biso   1.000  H
  H31      1.0000 0.25660  0.15940  0.96770  Biso   1.000  H
  H32      1.0000 0.74340  0.65940  0.53230  Biso   1.000  H
  H33      1.0000 0.50460  0.17940  0.99160  Biso   1.000  H
  H34      1.0000 0.49540  0.67940  0.50840  Biso   1.000  H
  H35      1.0000 0.49540  0.82060  0.00840  Biso   1.000  H
  H36      1.0000 0.50460  0.32060  0.49160  Biso   1.000  H
  H37      1.0000 0.54520  0.14800  0.94100  Biso   1.000  H
  H38      1.0000 0.45480  0.64800  0.55900  Biso   1.000  H
  H39      1.0000 0.45480  0.85200  0.05900  Biso   1.000  H
  H40      1.0000 0.54520  0.35200  0.44100  Biso   1.000  H
  H41      1.0000 0.58220  0.23660  0.96750  Biso   1.000  H
  H42      1.0000 0.41780  0.73660  0.53250  Biso   1.000  H
  H43      1.0000 0.41780  0.76340  0.03250  Biso   1.000  H
  H44      1.0000 0.58220  0.26340  0.46750  Biso   1.000  H
  H45      1.0000 0.81980  0.54150  0.33490  Biso   1.000  H
  H46      1.0000 0.18020  0.04150  0.16510  Biso   1.000  H
  H47      1.0000 0.18020  0.45850  0.66510  Biso   1.000  H
  H48      1.0000 0.81980  0.95850  0.83490  Biso   1.000  H
  H49      1.0000 0.74860  0.54330  0.28630  Biso   1.000  H
  H50      1.0000 0.25140  0.04330  0.21370  Biso   1.000  H
  H51      1.0000 0.25140  0.45670  0.71370  Biso   1.000  H
  H52      1.0000 0.74860  0.95670  0.78630  Biso   1.000  H
  H53      1.0000 0.66110  0.61770  0.33980  Biso   1.000  H
  H54      1.0000 0.33890  0.11770  0.16020  Biso   1.000  H
  H55      1.0000 0.33890  0.38230  0.66020  Biso   1.000  H
  H56      1.0000 0.66110  0.88230  0.83980  Biso   1.000  H
  H57      1.0000 0.70600  0.56600  0.38750  Biso   1.000  H
  H58      1.0000 0.29400  0.06600  0.11250  Biso   1.000  H
  H59      1.0000 0.29400  0.43400  0.61250  Biso   1.000  H
  H60      1.0000 0.70600  0.93400  0.88750  Biso   1.000  H
  H61      1.0000 0.38360  0.49920  0.37350  Biso   1.000  H
  H62      1.0000 0.61640  0.99920  0.12650  Biso   1.000  H
  H63      1.0000 0.61640  0.50080  0.62650  Biso   1.000  H
  H64      1.0000 0.38360  0.00080  0.87350  Biso   1.000  H
  H65      1.0000 0.51810  0.63030  0.41810  Biso   1.000  H
  H66      1.0000 0.48190  0.13030  0.08190  Biso   1.000  H
  H67      1.0000 0.48190  0.36970  0.58190  Biso   1.000  H
  H68      1.0000 0.51810  0.86970  0.91810  Biso   1.000  H
  H69      1.0000 0.43740  0.64000  0.37420  Biso   1.000  H
  H70      1.0000 0.56260  0.14000  0.12580  Biso   1.000  H
  H71      1.0000 0.56260  0.36000  0.62580  Biso   1.000  H
  H72      1.0000 0.43740  0.86000  0.87420  Biso   1.000  H
  H73      1.0000 0.54180  0.66510  0.36450  Biso   1.000  H
  H74      1.0000 0.45820  0.16510  0.13550  Biso   1.000  H
  H75      1.0000 0.45820  0.33490  0.63550  Biso   1.000  H
  H76      1.0000 0.54180  0.83490  0.86450  Biso   1.000  H
  H77      1.0000 0.30990  0.31710  0.32480  Biso   1.000  H
  H78      1.0000 0.69010  0.81710  0.17520  Biso   1.000  H
  H79      1.0000 0.69010  0.68290  0.67520  Biso   1.000  H
  H80      1.0000 0.30990  0.18290  0.82480  Biso   1.000  H
  H81      1.0000 0.30700  0.34890  0.38130  Biso   1.000  H
  H82      1.0000 0.69300  0.84890  0.11870  Biso   1.000  H
  H83      1.0000 0.69300  0.65110  0.61870  Biso   1.000  H
  H84      1.0000 0.30700  0.15110  0.88130  Biso   1.000  H
  H85      1.0000 0.36220  0.26160  0.36900  Biso   1.000  H
  H86      1.0000 0.63780  0.76160  0.13100  Biso   1.000  H
  H87      1.0000 0.63780  0.73840  0.63100  Biso   1.000  H
  H88      1.0000 0.36220  0.23840  0.86900  Biso   1.000  H
  H89      1.0000 0.96820  0.95360  0.39590  Biso   1.000  H
  H90      1.0000 0.03180  0.45360  0.10410  Biso   1.000  H
  H91      1.0000 0.03180  0.04640  0.60410  Biso   1.000  H
  H92      1.0000 0.96820  0.54640  0.89590  Biso   1.000  H
  H93      1.0000 0.06490  0.93490  0.37300  Biso   1.000  H
  H94      1.0000 0.93510  0.43490  0.12700  Biso   1.000  H
  H95      1.0000 0.93510  0.06510  0.62700  Biso   1.000  H
  H96      1.0000 0.06490  0.56510  0.87300  Biso   1.000  H
  H97      1.0000 0.11230  0.86650  0.44490  Biso   1.000  H
  H98      1.0000 0.88770  0.36650  0.05510  Biso   1.000  H
  H99      1.0000 0.88770  0.13350  0.55510  Biso   1.000  H
  H100     1.0000 0.11230  0.63350  0.94490  Biso   1.000  H
  H101     1.0000 0.02170  0.89800  0.47030  Biso   1.000  H
  H102     1.0000 0.97830  0.39800  0.02970  Biso   1.000  H
  H103     1.0000 0.97830  0.10200  0.52970  Biso   1.000  H
  H104     1.0000 0.02170  0.60200  0.97030  Biso   1.000  H
  H105     1.0000 0.26930  0.97270  0.58770  Biso   1.000  H
  H106     1.0000 0.73070  0.47270  0.91230  Biso   1.000  H
  H107     1.0000 0.73070  0.02730  0.41230  Biso   1.000  H
  H108     1.0000 0.26930  0.52730  0.08770  Biso   1.000  H
  H109     1.0000 0.12350  0.83650  0.56380  Biso   1.000  H
  H110     1.0000 0.87650  0.33650  0.93620  Biso   1.000  H
  H111     1.0000 0.87650  0.16350  0.43620  Biso   1.000  H
  H112     1.0000 0.12350  0.66350  0.06380  Biso   1.000  H
  H113     1.0000 0.23290  0.82730  0.56050  Biso   1.000  H
  H114     1.0000 0.76710  0.32730  0.93950  Biso   1.000  H
  H115     1.0000 0.76710  0.17270  0.43950  Biso   1.000  H
  H116     1.0000 0.23290  0.67270  0.06050  Biso   1.000  H
  H117     1.0000 0.16360  0.80950  0.51220  Biso   1.000  H
  H118     1.0000 0.83640  0.30950  0.98780  Biso   1.000  H
  H119     1.0000 0.83640  0.19050  0.48780  Biso   1.000  H
  H120     1.0000 0.16360  0.69050  0.01220  Biso   1.000  H
  H121     1.0000 0.37790  0.14690  0.58120  Biso   1.000  H
  H122     1.0000 0.62210  0.64690  0.91880  Biso   1.000  H
  H123     1.0000 0.62210  0.85310  0.41880  Biso   1.000  H
  H124     1.0000 0.37790  0.35310  0.08120  Biso   1.000  H
  H125     1.0000 0.31760  0.11170  0.62440  Biso   1.000  H
  H126     1.0000 0.68240  0.61170  0.87560  Biso   1.000  H
  H127     1.0000 0.68240  0.88830  0.37560  Biso   1.000  H
  H128     1.0000 0.31760  0.38830  0.12440  Biso   1.000  H
  H129     1.0000 0.28980  0.20140  0.59610  Biso   1.000  H
  H130     1.0000 0.71020  0.70140  0.90390  Biso   1.000  H
  H131     1.0000 0.71020  0.79860  0.40390  Biso   1.000  H
  H132     1.0000 0.28980  0.29860  0.09610  Biso   1.000  H
  H133     1.0000 0.19930  0.51790  0.18760  Biso   1.000  H
  H134     1.0000 0.80070  0.01790  0.31240  Biso   1.000  H
  H135     1.0000 0.80070  0.48210  0.81240  Biso   1.000  H
  H136     1.0000 0.19930  0.98210  0.68760  Biso   1.000  H
  H137     1.0000 0.17820  0.52590  0.24490  Biso   1.000  H
  H138     1.0000 0.82180  0.02590  0.25510  Biso   1.000  H
  H139     1.0000 0.82180  0.47410  0.75510  Biso   1.000  H
  H140     1.0000 0.17820  0.97410  0.74490  Biso   1.000  H
  H141     1.0000 0.32390  0.55760  0.26990  Biso   1.000  H
  H142     1.0000 0.67610  0.05760  0.23010  Biso   1.000  H
  H143     1.0000 0.67610  0.44240  0.73010  Biso   1.000  H
  H144     1.0000 0.32390  0.94240  0.76990  Biso   1.000  H
  H145     1.0000 0.32260  0.59610  0.21450  Biso   1.000  H
  H146     1.0000 0.67740  0.09610  0.28550  Biso   1.000  H
  H147     1.0000 0.67740  0.40390  0.78550  Biso   1.000  H
  H148     1.0000 0.32260  0.90390  0.71450  Biso   1.000  H
  H149     1.0000 0.62000  0.46520  0.21340  Biso   1.000  H
  H150     1.0000 0.38000  0.96520  0.28660  Biso   1.000  H
  H151     1.0000 0.38000  0.53480  0.78660  Biso   1.000  H
  H152     1.0000 0.62000  0.03480  0.71340  Biso   1.000  H
  H153     1.0000 0.50730  0.63230  0.19520  Biso   1.000  H
  H154     1.0000 0.49270  0.13230  0.30480  Biso   1.000  H
  H155     1.0000 0.49270  0.36770  0.80480  Biso   1.000  H
  H156     1.0000 0.50730  0.86770  0.69520  Biso   1.000  H
  H157     1.0000 0.57540  0.60640  0.24280  Biso   1.000  H
  H158     1.0000 0.42460  0.10640  0.25720  Biso   1.000  H
  H159     1.0000 0.42460  0.39360  0.75720  Biso   1.000  H
  H160     1.0000 0.57540  0.89360  0.74280  Biso   1.000  H
  H161     1.0000 0.47000  0.63240  0.24960  Biso   1.000  H
  H162     1.0000 0.53000  0.13240  0.25040  Biso   1.000  H
  H163     1.0000 0.53000  0.36760  0.75040  Biso   1.000  H
  H164     1.0000 0.47000  0.86760  0.74960  Biso   1.000  H
  H165     1.0000 0.66550  0.27420  0.22660  Biso   1.000  H
  H166     1.0000 0.33450  0.77420  0.27340  Biso   1.000  H
  H167     1.0000 0.33450  0.72580  0.77340  Biso   1.000  H
  H168     1.0000 0.66550  0.22580  0.72660  Biso   1.000  H
  H169     1.0000 0.67680  0.33280  0.17810  Biso   1.000  H
  H170     1.0000 0.32320  0.83280  0.32190  Biso   1.000  H
  H171     1.0000 0.32320  0.66720  0.82190  Biso   1.000  H
  H172     1.0000 0.67680  0.16720  0.67810  Biso   1.000  H
  H173     1.0000 0.61510  0.24550  0.17400  Biso   1.000  H
  H174     1.0000 0.38490  0.74550  0.32600  Biso   1.000  H
  H175     1.0000 0.38490  0.75450  0.82600  Biso   1.000  H
  H176     1.0000 0.61510  0.25450  0.67400  Biso   1.000  H
  H177     1.0000 0.90650  0.04760  0.96800  Biso   1.000  H
  H178     1.0000 0.09350  0.54760  0.53200  Biso   1.000  H
  H179     1.0000 0.09350  0.95240  0.03200  Biso   1.000  H
  H180     1.0000 0.90650  0.45240  0.46800  Biso   1.000  H
  H181     1.0000 0.94670  0.13460  0.94440  Biso   1.000  H
  H182     1.0000 0.05330  0.63460  0.55560  Biso   1.000  H
  H183     1.0000 0.05330  0.86540  0.05560  Biso   1.000  H
  H184     1.0000 0.94670  0.36540  0.44440  Biso   1.000  H
  H185     1.0000 0.83870  0.12760  0.95240  Biso   1.000  H
  H186     1.0000 0.16130  0.62760  0.54760  Biso   1.000  H
  H187     1.0000 0.16130  0.87240  0.04760  Biso   1.000  H
  H188     1.0000 0.83870  0.37240  0.45240  Biso   1.000  H
  H189     1.0000 0.08850  0.29050  0.11040  Biso   1.000  H
  H190     1.0000 0.91150  0.79050  0.38960  Biso   1.000  H
  H191     1.0000 0.91150  0.70950  0.88960  Biso   1.000  H
  H192     1.0000 0.08850  0.20950  0.61040  Biso   1.000  H
  H193     1.0000 0.15840  0.20940  0.11790  Biso   1.000  H
  H194     1.0000 0.84160  0.70940  0.38210  Biso   1.000  H
  H195     1.0000 0.84160  0.79060  0.88210  Biso   1.000  H
  H196     1.0000 0.15840  0.29060  0.61790  Biso   1.000  H
  H197     1.0000 0.04900  0.19330  0.11660  Biso   1.000  H
  H198     1.0000 0.95100  0.69330  0.38340  Biso   1.000  H
  H199     1.0000 0.95100  0.80670  0.88340  Biso   1.000  H
  H200     1.0000 0.04900  0.30670  0.61660  Biso   1.000  H
