data_image0
_cell_length_a       13.997
_cell_length_b       14.679
_cell_length_c       26.321
_cell_angle_alpha    90
_cell_angle_beta     95.687
_cell_angle_gamma    90

_symmetry_space_group_name_H-M    "P 1"
_symmetry_int_tables_number       1

loop_
  _symmetry_equiv_pos_as_xyz
  'x, y, z'

loop_
  _atom_site_label
  _atom_site_occupancy
  _atom_site_fract_x
  _atom_site_fract_y
  _atom_site_fract_z
  _atom_site_thermal_displace_type
  _atom_site_B_iso_or_equiv
  _atom_site_type_symbol
  Gd1      1.0000 0.97922  0.23475  0.28180  Biso   1.000  Gd
  Gd2      1.0000 0.02078  0.73475  0.21820  Biso   1.000  Gd
  Gd3      1.0000 0.02078  0.76525  0.71820  Biso   1.000  Gd
  Gd4      1.0000 0.97922  0.26525  0.78180  Biso   1.000  Gd
  Cu1      1.0000 0.79545  0.14290  0.08431  Biso   1.000  Cu
  Cu2      1.0000 0.20455  0.64290  0.41569  Biso   1.000  Cu
  Cu3      1.0000 0.20455  0.85710  0.91569  Biso   1.000  Cu
  Cu4      1.0000 0.79545  0.35710  0.58431  Biso   1.000  Cu
  Cu5      1.0000 0.61840  0.36520  0.33485  Biso   1.000  Cu
  Cu6      1.0000 0.38160  0.86520  0.16515  Biso   1.000  Cu
  Cu7      1.0000 0.38160  0.63480  0.66515  Biso   1.000  Cu
  Cu8      1.0000 0.61840  0.13480  0.83485  Biso   1.000  Cu
  Cu9      1.0000 0.14630  0.10270  0.47355  Biso   1.000  Cu
  Cu10     1.0000 0.85370  0.60270  0.02645  Biso   1.000  Cu
  Cu11     1.0000 0.85370  0.89730  0.52645  Biso   1.000  Cu
  Cu12     1.0000 0.14630  0.39730  0.97355  Biso   1.000  Cu
  Cu13     1.0000 0.35156  0.33650  0.22720  Biso   1.000  Cu
  Cu14     1.0000 0.64844  0.83650  0.27280  Biso   1.000  Cu
  Cu15     1.0000 0.64844  0.66350  0.77280  Biso   1.000  Cu
  Cu16     1.0000 0.35156  0.16350  0.72720  Biso   1.000  Cu
  K1       1.0000 0.92960  0.48320  0.22970  Biso   1.000  K
  K2       1.0000 0.07040  0.98320  0.27030  Biso   1.000  K
  K3       1.0000 0.07040  0.51680  0.77030  Biso   1.000  K
  K4       1.0000 0.92960  0.01680  0.72970  Biso   1.000  K
  O1       1.0000 0.89590  0.29320  0.20320  Biso   1.000  O
  O2       1.0000 0.10410  0.79320  0.29680  Biso   1.000  O
  O3       1.0000 0.10410  0.70680  0.79680  Biso   1.000  O
  O4       1.0000 0.89590  0.20680  0.70320  Biso   1.000  O
  O5       1.0000 0.94940  0.11990  0.21970  Biso   1.000  O
  O6       1.0000 0.05060  0.61990  0.28030  Biso   1.000  O
  O7       1.0000 0.05060  0.88010  0.78030  Biso   1.000  O
  O8       1.0000 0.94940  0.38010  0.71970  Biso   1.000  O
  O9       1.0000 0.82300  0.25590  0.12700  Biso   1.000  O
  O10      1.0000 0.17700  0.75590  0.37300  Biso   1.000  O
  O11      1.0000 0.17700  0.74410  0.87300  Biso   1.000  O
  O12      1.0000 0.82300  0.24410  0.62700  Biso   1.000  O
  O13      1.0000 0.69860  0.19660  0.04150  Biso   1.000  O
  O14      1.0000 0.30140  0.69660  0.45850  Biso   1.000  O
  O15      1.0000 0.30140  0.80340  0.95850  Biso   1.000  O
  O16      1.0000 0.69860  0.30340  0.54150  Biso   1.000  O
  O17      1.0000 0.82600  0.19900  0.30640  Biso   1.000  O
  O18      1.0000 0.17400  0.69900  0.19360  Biso   1.000  O
  O19      1.0000 0.17400  0.80100  0.69360  Biso   1.000  O
  O20      1.0000 0.82600  0.30100  0.80640  Biso   1.000  O
  O21      1.0000 0.89370  0.36870  0.30400  Biso   1.000  O
  O22      1.0000 0.10630  0.86870  0.19600  Biso   1.000  O
  O23      1.0000 0.10630  0.63130  0.69600  Biso   1.000  O
  O24      1.0000 0.89370  0.13130  0.80400  Biso   1.000  O
  O25      1.0000 0.68530  0.24590  0.32710  Biso   1.000  O
  O26      1.0000 0.31470  0.74590  0.17290  Biso   1.000  O
  O27      1.0000 0.31470  0.75410  0.67290  Biso   1.000  O
  O28      1.0000 0.68530  0.25410  0.82710  Biso   1.000  O
  O29      1.0000 0.50000  0.31630  0.34360  Biso   1.000  O
  O30      1.0000 0.50000  0.81630  0.15640  Biso   1.000  O
  O31      1.0000 0.50000  0.68370  0.65640  Biso   1.000  O
  O32      1.0000 0.50000  0.18370  0.84360  Biso   1.000  O
  O33      1.0000 0.05980  0.27710  0.36090  Biso   1.000  O
  O34      1.0000 0.94020  0.77710  0.13910  Biso   1.000  O
  O35      1.0000 0.94020  0.72290  0.63910  Biso   1.000  O
  O36      1.0000 0.05980  0.22290  0.86090  Biso   1.000  O
  O37      1.0000 0.00610  0.10260  0.33590  Biso   1.000  O
  O38      1.0000 0.99390  0.60260  0.16410  Biso   1.000  O
  O39      1.0000 0.99390  0.89740  0.66410  Biso   1.000  O
  O40      1.0000 0.00610  0.39740  0.83590  Biso   1.000  O
  O41      1.0000 0.12730  0.22180  0.43760  Biso   1.000  O
  O42      1.0000 0.87270  0.72180  0.06240  Biso   1.000  O
  O43      1.0000 0.87270  0.77820  0.56240  Biso   1.000  O
  O44      1.0000 0.12730  0.27820  0.93760  Biso   1.000  O
  O45      1.0000 0.22510  0.15130  0.52680  Biso   1.000  O
  O46      1.0000 0.77490  0.65130  0.97320  Biso   1.000  O
  O47      1.0000 0.77490  0.84870  0.47320  Biso   1.000  O
  O48      1.0000 0.22510  0.34870  0.02680  Biso   1.000  O
  O49      1.0000 0.13460  0.17630  0.26230  Biso   1.000  O
  O50      1.0000 0.86540  0.67630  0.23770  Biso   1.000  O
  O51      1.0000 0.86540  0.82370  0.73770  Biso   1.000  O
  O52      1.0000 0.13460  0.32370  0.76230  Biso   1.000  O
  O53      1.0000 0.07550  0.35070  0.25400  Biso   1.000  O
  O54      1.0000 0.92450  0.85070  0.24600  Biso   1.000  O
  O55      1.0000 0.92450  0.64930  0.74600  Biso   1.000  O
  O56      1.0000 0.07550  0.14930  0.75400  Biso   1.000  O
  O57      1.0000 0.28170  0.21860  0.24000  Biso   1.000  O
  O58      1.0000 0.71830  0.71860  0.26000  Biso   1.000  O
  O59      1.0000 0.71830  0.78140  0.76000  Biso   1.000  O
  O60      1.0000 0.28170  0.28140  0.74000  Biso   1.000  O
  O61      1.0000 0.46660  0.28320  0.21390  Biso   1.000  O
  O62      1.0000 0.53340  0.78320  0.28610  Biso   1.000  O
  O63      1.0000 0.53340  0.71680  0.78610  Biso   1.000  O
  O64      1.0000 0.46660  0.21680  0.71390  Biso   1.000  O
  O65      1.0000 0.92300  0.17480  0.02630  Biso   1.000  O
  O66      1.0000 0.07700  0.67480  0.47370  Biso   1.000  O
  O67      1.0000 0.07700  0.82520  0.97370  Biso   1.000  O
  O68      1.0000 0.92300  0.32520  0.52630  Biso   1.000  O
  O69      1.0000 0.10430  0.21490  0.06450  Biso   1.000  O
  O70      1.0000 0.89570  0.71490  0.43550  Biso   1.000  O
  O71      1.0000 0.89570  0.78510  0.93550  Biso   1.000  O
  O72      1.0000 0.10430  0.28510  0.56450  Biso   1.000  O
  O73      1.0000 0.75350  0.50400  0.15280  Biso   1.000  O
  O74      1.0000 0.24650  0.00400  0.34720  Biso   1.000  O
  O75      1.0000 0.24650  0.49600  0.84720  Biso   1.000  O
  O76      1.0000 0.75350  0.99600  0.65280  Biso   1.000  O
  O77      1.0000 0.59200  0.44300  0.04800  Biso   1.000  O
  O78      1.0000 0.40800  0.94300  0.45200  Biso   1.000  O
  O79      1.0000 0.40800  0.55700  0.95200  Biso   1.000  O
  O80      1.0000 0.59200  0.05700  0.54800  Biso   1.000  O
  N1       1.0000 0.87320  0.08980  0.13900  Biso   1.000  N
  N2       1.0000 0.12680  0.58980  0.36100  Biso   1.000  N
  N3       1.0000 0.12680  0.91020  0.86100  Biso   1.000  N
  N4       1.0000 0.87320  0.41020  0.63900  Biso   1.000  N
  N5       1.0000 0.78000  0.02150  0.05670  Biso   1.000  N
  N6       1.0000 0.22000  0.52150  0.44330  Biso   1.000  N
  N7       1.0000 0.22000  0.97850  0.94330  Biso   1.000  N
  N8       1.0000 0.78000  0.47850  0.55670  Biso   1.000  N
  N9       1.0000 0.73920  0.41350  0.32420  Biso   1.000  N
  N10      1.0000 0.26080  0.91350  0.17580  Biso   1.000  N
  N11      1.0000 0.26080  0.58650  0.67580  Biso   1.000  N
  N12      1.0000 0.73920  0.08650  0.82420  Biso   1.000  N
  N13      1.0000 0.58760  0.48940  0.35150  Biso   1.000  N
  N14      1.0000 0.41240  0.98940  0.14850  Biso   1.000  N
  N15      1.0000 0.41240  0.51060  0.64850  Biso   1.000  N
  N16      1.0000 0.58760  0.01060  0.85150  Biso   1.000  N
  N17      1.0000 0.06470  0.05630  0.41940  Biso   1.000  N
  N18      1.0000 0.93530  0.55630  0.08060  Biso   1.000  N
  N19      1.0000 0.93530  0.94370  0.58060  Biso   1.000  N
  N20      1.0000 0.06470  0.44370  0.91940  Biso   1.000  N
  N21      1.0000 0.14680  0.98100  0.49680  Biso   1.000  N
  N22      1.0000 0.85320  0.48100  0.00320  Biso   1.000  N
  N23      1.0000 0.85320  0.01900  0.50320  Biso   1.000  N
  N24      1.0000 0.14680  0.51900  0.99680  Biso   1.000  N
  N25      1.0000 0.23210  0.38840  0.23130  Biso   1.000  N
  N26      1.0000 0.76790  0.88840  0.26870  Biso   1.000  N
  N27      1.0000 0.76790  0.61160  0.76870  Biso   1.000  N
  N28      1.0000 0.23210  0.11160  0.73130  Biso   1.000  N
  N29      1.0000 0.39260  0.45900  0.22520  Biso   1.000  N
  N30      1.0000 0.60740  0.95900  0.27480  Biso   1.000  N
  N31      1.0000 0.60740  0.54100  0.77480  Biso   1.000  N
  N32      1.0000 0.39260  0.04100  0.72520  Biso   1.000  N
  C1       1.0000 0.87020  0.23800  0.16860  Biso   1.000  C
  C2       1.0000 0.12980  0.73800  0.33140  Biso   1.000  C
  C3       1.0000 0.12980  0.76200  0.83140  Biso   1.000  C
  C4       1.0000 0.87020  0.26200  0.66860  Biso   1.000  C
  C5       1.0000 0.90250  0.13770  0.17760  Biso   1.000  C
  C6       1.0000 0.09750  0.63770  0.32240  Biso   1.000  C
  C7       1.0000 0.09750  0.86230  0.82240  Biso   1.000  C
  C8       1.0000 0.90250  0.36230  0.67760  Biso   1.000  C
  C9       1.0000 0.88520  0.99070  0.13710  Biso   1.000  C
  C10      1.0000 0.11480  0.49070  0.36290  Biso   1.000  C
  C11      1.0000 0.11480  0.00930  0.86290  Biso   1.000  C
  C12      1.0000 0.88520  0.50930  0.63710  Biso   1.000  C
  C13      1.0000 0.86100  0.96280  0.08340  Biso   1.000  C
  C14      1.0000 0.13900  0.46280  0.41660  Biso   1.000  C
  C15      1.0000 0.13900  0.03720  0.91660  Biso   1.000  C
  C16      1.0000 0.86100  0.53720  0.58340  Biso   1.000  C
  C17      1.0000 0.71700  0.99300  0.02000  Biso   1.000  C
  C18      1.0000 0.28300  0.49300  0.48000  Biso   1.000  C
  C19      1.0000 0.28300  0.00700  0.98000  Biso   1.000  C
  C20      1.0000 0.71700  0.50700  0.52000  Biso   1.000  C
  C21      1.0000 0.65000  0.05200  0.99810  Biso   1.000  C
  C22      1.0000 0.35000  0.55200  0.50190  Biso   1.000  C
  C23      1.0000 0.35000  0.94800  0.00190  Biso   1.000  C
  C24      1.0000 0.65000  0.44800  0.49810  Biso   1.000  C
  C25      1.0000 0.64600  0.14900  0.00920  Biso   1.000  C
  C26      1.0000 0.35400  0.64900  0.49080  Biso   1.000  C
  C27      1.0000 0.35400  0.85100  0.99080  Biso   1.000  C
  C28      1.0000 0.64600  0.35100  0.50920  Biso   1.000  C
  C29      1.0000 0.71000  0.89700  0.00290  Biso   1.000  C
  C30      1.0000 0.29000  0.39700  0.49710  Biso   1.000  C
  C31      1.0000 0.29000  0.10300  0.99710  Biso   1.000  C
  C32      1.0000 0.71000  0.60300  0.50290  Biso   1.000  C
  C33      1.0000 0.56380  0.19800  0.98070  Biso   1.000  C
  C34      1.0000 0.43620  0.69800  0.51930  Biso   1.000  C
  C35      1.0000 0.43620  0.80200  0.01930  Biso   1.000  C
  C36      1.0000 0.56380  0.30200  0.48070  Biso   1.000  C
  C37      1.0000 0.76930  0.25600  0.31540  Biso   1.000  C
  C38      1.0000 0.23070  0.75600  0.18460  Biso   1.000  C
  C39      1.0000 0.23070  0.74400  0.68460  Biso   1.000  C
  C40      1.0000 0.76930  0.24400  0.81540  Biso   1.000  C
  C41      1.0000 0.80830  0.35310  0.31370  Biso   1.000  C
  C42      1.0000 0.19170  0.85310  0.18630  Biso   1.000  C
  C43      1.0000 0.19170  0.64690  0.68630  Biso   1.000  C
  C44      1.0000 0.80830  0.14690  0.81370  Biso   1.000  C
  C45      1.0000 0.74930  0.50700  0.32560  Biso   1.000  C
  C46      1.0000 0.25070  0.00700  0.17440  Biso   1.000  C
  C47      1.0000 0.25070  0.49300  0.67440  Biso   1.000  C
  C48      1.0000 0.74930  0.99300  0.82560  Biso   1.000  C
  C49      1.0000 0.66740  0.55100  0.35010  Biso   1.000  C
  C50      1.0000 0.33260  0.05100  0.14990  Biso   1.000  C
  C51      1.0000 0.33260  0.44900  0.64990  Biso   1.000  C
  C52      1.0000 0.66740  0.94900  0.85010  Biso   1.000  C
  C53      1.0000 0.50800  0.51400  0.36740  Biso   1.000  C
  C54      1.0000 0.49200  0.01400  0.13260  Biso   1.000  C
  C55      1.0000 0.49200  0.48600  0.63260  Biso   1.000  C
  C56      1.0000 0.50800  0.98600  0.86740  Biso   1.000  C
  C57      1.0000 0.43510  0.45100  0.36770  Biso   1.000  C
  C58      1.0000 0.56490  0.95100  0.13230  Biso   1.000  C
  C59      1.0000 0.56490  0.54900  0.63230  Biso   1.000  C
  C60      1.0000 0.43510  0.04900  0.86770  Biso   1.000  C
  C61      1.0000 0.43000  0.36000  0.35900  Biso   1.000  C
  C62      1.0000 0.57000  0.86000  0.14100  Biso   1.000  C
  C63      1.0000 0.57000  0.64000  0.64100  Biso   1.000  C
  C64      1.0000 0.43000  0.14000  0.85900  Biso   1.000  C
  C65      1.0000 0.49910  0.61400  0.38590  Biso   1.000  C
  C66      1.0000 0.50090  0.11400  0.11410  Biso   1.000  C
  C67      1.0000 0.50090  0.38600  0.61410  Biso   1.000  C
  C68      1.0000 0.49910  0.88600  0.88590  Biso   1.000  C
  C69      1.0000 0.34040  0.30500  0.36550  Biso   1.000  C
  C70      1.0000 0.65960  0.80500  0.13450  Biso   1.000  C
  C71      1.0000 0.65960  0.69500  0.63450  Biso   1.000  C
  C72      1.0000 0.34040  0.19500  0.86550  Biso   1.000  C
  C73      1.0000 0.07640  0.21430  0.39420  Biso   1.000  C
  C74      1.0000 0.92360  0.71430  0.10580  Biso   1.000  C
  C75      1.0000 0.92360  0.78570  0.60580  Biso   1.000  C
  C76      1.0000 0.07640  0.28570  0.89420  Biso   1.000  C
  C77      1.0000 0.04690  0.11260  0.38110  Biso   1.000  C
  C78      1.0000 0.95310  0.61260  0.11890  Biso   1.000  C
  C79      1.0000 0.95310  0.88740  0.61890  Biso   1.000  C
  C80      1.0000 0.04690  0.38740  0.88110  Biso   1.000  C
  C81      1.0000 0.04000  0.95700  0.41580  Biso   1.000  C
  C82      1.0000 0.96000  0.45700  0.08420  Biso   1.000  C
  C83      1.0000 0.96000  0.04300  0.58420  Biso   1.000  C
  C84      1.0000 0.04000  0.54300  0.91580  Biso   1.000  C
  C85      1.0000 0.08000  0.91730  0.46580  Biso   1.000  C
  C86      1.0000 0.92000  0.41730  0.03420  Biso   1.000  C
  C87      1.0000 0.92000  0.08270  0.53420  Biso   1.000  C
  C88      1.0000 0.08000  0.58270  0.96580  Biso   1.000  C
  C89      1.0000 0.19500  0.95300  0.53660  Biso   1.000  C
  C90      1.0000 0.80500  0.45300  0.96340  Biso   1.000  C
  C91      1.0000 0.80500  0.04700  0.46340  Biso   1.000  C
  C92      1.0000 0.19500  0.54700  0.03660  Biso   1.000  C
  C93      1.0000 0.25800  0.01100  0.56730  Biso   1.000  C
  C94      1.0000 0.74200  0.51100  0.93270  Biso   1.000  C
  C95      1.0000 0.74200  0.98900  0.43270  Biso   1.000  C
  C96      1.0000 0.25800  0.48900  0.06730  Biso   1.000  C
  C97      1.0000 0.27400  0.10500  0.56190  Biso   1.000  C
  C98      1.0000 0.72600  0.60500  0.93810  Biso   1.000  C
  C99      1.0000 0.72600  0.89500  0.43810  Biso   1.000  C
  C100     1.0000 0.27400  0.39500  0.06190  Biso   1.000  C
  C101     1.0000 0.19800  0.85300  0.55420  Biso   1.000  C
  C102     1.0000 0.80200  0.35300  0.94580  Biso   1.000  C
  C103     1.0000 0.80200  0.14700  0.44580  Biso   1.000  C
  C104     1.0000 0.19800  0.64700  0.05420  Biso   1.000  C
  C105     1.0000 0.34300  0.15700  0.59880  Biso   1.000  C
  C106     1.0000 0.65700  0.65700  0.90120  Biso   1.000  C
  C107     1.0000 0.65700  0.84300  0.40120  Biso   1.000  C
  C108     1.0000 0.34300  0.34300  0.09880  Biso   1.000  C
  C109     1.0000 0.19400  0.23700  0.24850  Biso   1.000  C
  C110     1.0000 0.80600  0.73700  0.25150  Biso   1.000  C
  C111     1.0000 0.80600  0.76300  0.75150  Biso   1.000  C
  C112     1.0000 0.19400  0.26300  0.74850  Biso   1.000  C
  C113     1.0000 0.16650  0.33730  0.24430  Biso   1.000  C
  C114     1.0000 0.83350  0.83730  0.25570  Biso   1.000  C
  C115     1.0000 0.83350  0.66270  0.75570  Biso   1.000  C
  C116     1.0000 0.16650  0.16270  0.74430  Biso   1.000  C
  C117     1.0000 0.21900  0.48220  0.22000  Biso   1.000  C
  C118     1.0000 0.78100  0.98220  0.28000  Biso   1.000  C
  C119     1.0000 0.78100  0.51780  0.78000  Biso   1.000  C
  C120     1.0000 0.21900  0.01780  0.72000  Biso   1.000  C
  C121     1.0000 0.31850  0.52780  0.23780  Biso   1.000  C
  C122     1.0000 0.68150  0.02780  0.26220  Biso   1.000  C
  C123     1.0000 0.68150  0.47220  0.76220  Biso   1.000  C
  C124     1.0000 0.31850  0.97220  0.73780  Biso   1.000  C
  C125     1.0000 0.47520  0.48950  0.22380  Biso   1.000  C
  C126     1.0000 0.52480  0.98950  0.27620  Biso   1.000  C
  C127     1.0000 0.52480  0.51050  0.77620  Biso   1.000  C
  C128     1.0000 0.47520  0.01050  0.72380  Biso   1.000  C
  C129     1.0000 0.55130  0.42370  0.21500  Biso   1.000  C
  C130     1.0000 0.44870  0.92370  0.28500  Biso   1.000  C
  C131     1.0000 0.44870  0.57630  0.78500  Biso   1.000  C
  C132     1.0000 0.55130  0.07630  0.71500  Biso   1.000  C
  C133     1.0000 0.54220  0.33200  0.21010  Biso   1.000  C
  C134     1.0000 0.45780  0.83200  0.28990  Biso   1.000  C
  C135     1.0000 0.45780  0.66800  0.78990  Biso   1.000  C
  C136     1.0000 0.54220  0.16800  0.71010  Biso   1.000  C
  C137     1.0000 0.50360  0.59040  0.22610  Biso   1.000  C
  C138     1.0000 0.49640  0.09040  0.27390  Biso   1.000  C
  C139     1.0000 0.49640  0.40960  0.77390  Biso   1.000  C
  C140     1.0000 0.50360  0.90960  0.72610  Biso   1.000  C
  C141     1.0000 0.63340  0.27330  0.20160  Biso   1.000  C
  C142     1.0000 0.36660  0.77330  0.29840  Biso   1.000  C
  C143     1.0000 0.36660  0.72670  0.79840  Biso   1.000  C
  C144     1.0000 0.63340  0.22670  0.70160  Biso   1.000  C
  C145     1.0000 0.91400  0.13800  0.97420  Biso   1.000  C
  C146     1.0000 0.08600  0.63800  0.52580  Biso   1.000  C
  C147     1.0000 0.08600  0.86200  0.02580  Biso   1.000  C
  C148     1.0000 0.91400  0.36200  0.47420  Biso   1.000  C
  C149     1.0000 0.11600  0.23100  0.11600  Biso   1.000  C
  C150     1.0000 0.88400  0.73100  0.38400  Biso   1.000  C
  C151     1.0000 0.88400  0.76900  0.88400  Biso   1.000  C
  C152     1.0000 0.11600  0.26900  0.61600  Biso   1.000  C
  C153     1.0000 0.66500  0.37900  0.07100  Biso   1.000  C
  C154     1.0000 0.33500  0.87900  0.42900  Biso   1.000  C
  C155     1.0000 0.33500  0.62100  0.92900  Biso   1.000  C
  C156     1.0000 0.66500  0.12100  0.57100  Biso   1.000  C
  H1       1.0000 0.95070  0.97640  0.14690  Biso   1.000  H
  H2       1.0000 0.04930  0.47640  0.35310  Biso   1.000  H
  H3       1.0000 0.04930  0.02360  0.85310  Biso   1.000  H
  H4       1.0000 0.95070  0.52360  0.64690  Biso   1.000  H
  H5       1.0000 0.84570  0.95940  0.15870  Biso   1.000  H
  H6       1.0000 0.15430  0.45940  0.34130  Biso   1.000  H
  H7       1.0000 0.15430  0.04060  0.84130  Biso   1.000  H
  H8       1.0000 0.84570  0.54060  0.65870  Biso   1.000  H
  H9       1.0000 0.84080  0.90100  0.08210  Biso   1.000  H
  H10      1.0000 0.15920  0.40100  0.41790  Biso   1.000  H
  H11      1.0000 0.15920  0.09900  0.91790  Biso   1.000  H
  H12      1.0000 0.84080  0.59900  0.58210  Biso   1.000  H
  H13      1.0000 0.91580  0.96950  0.06510  Biso   1.000  H
  H14      1.0000 0.08420  0.46950  0.43490  Biso   1.000  H
  H15      1.0000 0.08420  0.03050  0.93490  Biso   1.000  H
  H16      1.0000 0.91580  0.53050  0.56510  Biso   1.000  H
  H17      1.0000 0.60400  0.02790  0.97240  Biso   1.000  H
  H18      1.0000 0.39600  0.52790  0.52760  Biso   1.000  H
  H19      1.0000 0.39600  0.97210  0.02760  Biso   1.000  H
  H20      1.0000 0.60400  0.47210  0.47240  Biso   1.000  H
  H21      1.0000 0.74940  0.89580  0.97540  Biso   1.000  H
  H22      1.0000 0.25060  0.39580  0.52460  Biso   1.000  H
  H23      1.0000 0.25060  0.10420  0.02460  Biso   1.000  H
  H24      1.0000 0.74940  0.60420  0.47540  Biso   1.000  H
  H25      1.0000 0.64710  0.87800  0.99110  Biso   1.000  H
  H26      1.0000 0.35290  0.37800  0.50890  Biso   1.000  H
  H27      1.0000 0.35290  0.12200  0.00890  Biso   1.000  H
  H28      1.0000 0.64710  0.62200  0.49110  Biso   1.000  H
  H29      1.0000 0.73630  0.85610  0.02890  Biso   1.000  H
  H30      1.0000 0.26370  0.35610  0.47110  Biso   1.000  H
  H31      1.0000 0.26370  0.14390  0.97110  Biso   1.000  H
  H32      1.0000 0.73630  0.64390  0.52890  Biso   1.000  H
  H33      1.0000 0.50900  0.20060  0.99920  Biso   1.000  H
  H34      1.0000 0.49100  0.70060  0.50080  Biso   1.000  H
  H35      1.0000 0.49100  0.79940  0.00080  Biso   1.000  H
  H36      1.0000 0.50900  0.29940  0.49920  Biso   1.000  H
  H37      1.0000 0.54850  0.16590  0.94970  Biso   1.000  H
  H38      1.0000 0.45150  0.66590  0.55030  Biso   1.000  H
  H39      1.0000 0.45150  0.83410  0.05030  Biso   1.000  H
  H40      1.0000 0.54850  0.33410  0.44970  Biso   1.000  H
  H41      1.0000 0.58300  0.25860  0.97320  Biso   1.000  H
  H42      1.0000 0.41700  0.75860  0.52680  Biso   1.000  H
  H43      1.0000 0.41700  0.74140  0.02680  Biso   1.000  H
  H44      1.0000 0.58300  0.24140  0.47320  Biso   1.000  H
  H45      1.0000 0.80880  0.52060  0.34480  Biso   1.000  H
  H46      1.0000 0.19120  0.02060  0.15520  Biso   1.000  H
  H47      1.0000 0.19120  0.47940  0.65520  Biso   1.000  H
  H48      1.0000 0.80880  0.97940  0.84480  Biso   1.000  H
  H49      1.0000 0.75000  0.53070  0.29190  Biso   1.000  H
  H50      1.0000 0.25000  0.03070  0.20810  Biso   1.000  H
  H51      1.0000 0.25000  0.46930  0.70810  Biso   1.000  H
  H52      1.0000 0.75000  0.96930  0.79190  Biso   1.000  H
  H53      1.0000 0.64740  0.60450  0.33150  Biso   1.000  H
  H54      1.0000 0.35260  0.10450  0.16850  Biso   1.000  H
  H55      1.0000 0.35260  0.39550  0.66850  Biso   1.000  H
  H56      1.0000 0.64740  0.89550  0.83150  Biso   1.000  H
  H57      1.0000 0.68970  0.56720  0.38410  Biso   1.000  H
  H58      1.0000 0.31030  0.06720  0.11590  Biso   1.000  H
  H59      1.0000 0.31030  0.43280  0.61590  Biso   1.000  H
  H60      1.0000 0.68970  0.93280  0.88410  Biso   1.000  H
  H61      1.0000 0.37760  0.47580  0.37850  Biso   1.000  H
  H62      1.0000 0.62240  0.97580  0.12150  Biso   1.000  H
  H63      1.0000 0.62240  0.52420  0.62150  Biso   1.000  H
  H64      1.0000 0.37760  0.02420  0.87850  Biso   1.000  H
  H65      1.0000 0.51480  0.61670  0.42180  Biso   1.000  H
  H66      1.0000 0.48520  0.11670  0.07820  Biso   1.000  H
  H67      1.0000 0.48520  0.38330  0.57820  Biso   1.000  H
  H68      1.0000 0.51480  0.88330  0.92180  Biso   1.000  H
  H69      1.0000 0.43450  0.63250  0.37770  Biso   1.000  H
  H70      1.0000 0.56550  0.13250  0.12230  Biso   1.000  H
  H71      1.0000 0.56550  0.36750  0.62230  Biso   1.000  H
  H72      1.0000 0.43450  0.86750  0.87770  Biso   1.000  H
  H73      1.0000 0.54070  0.65240  0.36950  Biso   1.000  H
  H74      1.0000 0.45930  0.15240  0.13050  Biso   1.000  H
  H75      1.0000 0.45930  0.34760  0.63050  Biso   1.000  H
  H76      1.0000 0.54070  0.84760  0.86950  Biso   1.000  H
  H77      1.0000 0.30220  0.29940  0.33370  Biso   1.000  H
  H78      1.0000 0.69780  0.79940  0.16630  Biso   1.000  H
  H79      1.0000 0.69780  0.70060  0.66630  Biso   1.000  H
  H80      1.0000 0.30220  0.20060  0.83370  Biso   1.000  H
  H81      1.0000 0.30370  0.33370  0.38960  Biso   1.000  H
  H82      1.0000 0.69630  0.83370  0.11040  Biso   1.000  H
  H83      1.0000 0.69630  0.66630  0.61040  Biso   1.000  H
  H84      1.0000 0.30370  0.16630  0.88960  Biso   1.000  H
  H85      1.0000 0.36050  0.24680  0.37760  Biso   1.000  H
  H86      1.0000 0.63950  0.74680  0.12240  Biso   1.000  H
  H87      1.0000 0.63950  0.75320  0.62240  Biso   1.000  H
  H88      1.0000 0.36050  0.25320  0.87760  Biso   1.000  H
  H89      1.0000 0.97300  0.94720  0.41050  Biso   1.000  H
  H90      1.0000 0.02700  0.44720  0.08950  Biso   1.000  H
  H91      1.0000 0.02700  0.05280  0.58950  Biso   1.000  H
  H92      1.0000 0.97300  0.55280  0.91050  Biso   1.000  H
  H93      1.0000 0.07030  0.93070  0.38840  Biso   1.000  H
  H94      1.0000 0.92970  0.43070  0.11160  Biso   1.000  H
  H95      1.0000 0.92970  0.06930  0.61160  Biso   1.000  H
  H96      1.0000 0.07030  0.56930  0.88840  Biso   1.000  H
  H97      1.0000 0.11720  0.86500  0.45900  Biso   1.000  H
  H98      1.0000 0.88280  0.36500  0.04100  Biso   1.000  H
  H99      1.0000 0.88280  0.13500  0.54100  Biso   1.000  H
  H100     1.0000 0.11720  0.63500  0.95900  Biso   1.000  H
  H101     1.0000 0.02870  0.89970  0.48440  Biso   1.000  H
  H102     1.0000 0.97130  0.39970  0.01560  Biso   1.000  H
  H103     1.0000 0.97130  0.10030  0.51560  Biso   1.000  H
  H104     1.0000 0.02870  0.60030  0.98440  Biso   1.000  H
  H105     1.0000 0.29730  0.98350  0.59470  Biso   1.000  H
  H106     1.0000 0.70270  0.48350  0.90530  Biso   1.000  H
  H107     1.0000 0.70270  0.01650  0.40530  Biso   1.000  H
  H108     1.0000 0.29730  0.51650  0.09470  Biso   1.000  H
  H109     1.0000 0.14750  0.84480  0.57530  Biso   1.000  H
  H110     1.0000 0.85250  0.34480  0.92470  Biso   1.000  H
  H111     1.0000 0.85250  0.15520  0.42470  Biso   1.000  H
  H112     1.0000 0.14750  0.65520  0.07530  Biso   1.000  H
  H113     1.0000 0.25770  0.83930  0.57330  Biso   1.000  H
  H114     1.0000 0.74230  0.33930  0.92670  Biso   1.000  H
  H115     1.0000 0.74230  0.16070  0.42670  Biso   1.000  H
  H116     1.0000 0.25770  0.66070  0.07330  Biso   1.000  H
  H117     1.0000 0.18890  0.81270  0.52570  Biso   1.000  H
  H118     1.0000 0.81110  0.31270  0.97430  Biso   1.000  H
  H119     1.0000 0.81110  0.18730  0.47430  Biso   1.000  H
  H120     1.0000 0.18890  0.68730  0.02570  Biso   1.000  H
  H121     1.0000 0.40270  0.15800  0.58440  Biso   1.000  H
  H122     1.0000 0.59730  0.65800  0.91560  Biso   1.000  H
  H123     1.0000 0.59730  0.84200  0.41560  Biso   1.000  H
  H124     1.0000 0.40270  0.34200  0.08440  Biso   1.000  H
  H125     1.0000 0.35010  0.12310  0.62980  Biso   1.000  H
  H126     1.0000 0.64990  0.62310  0.87020  Biso   1.000  H
  H127     1.0000 0.64990  0.87690  0.37020  Biso   1.000  H
  H128     1.0000 0.35010  0.37690  0.12980  Biso   1.000  H
  H129     1.0000 0.32370  0.21720  0.60540  Biso   1.000  H
  H130     1.0000 0.67630  0.71720  0.89460  Biso   1.000  H
  H131     1.0000 0.67630  0.78280  0.39460  Biso   1.000  H
  H132     1.0000 0.32370  0.28280  0.10540  Biso   1.000  H
  H133     1.0000 0.19990  0.49280  0.18490  Biso   1.000  H
  H134     1.0000 0.80010  0.99280  0.31510  Biso   1.000  H
  H135     1.0000 0.80010  0.50720  0.81510  Biso   1.000  H
  H136     1.0000 0.19990  0.00720  0.68490  Biso   1.000  H
  H137     1.0000 0.17250  0.50720  0.24000  Biso   1.000  H
  H138     1.0000 0.82750  0.00720  0.26000  Biso   1.000  H
  H139     1.0000 0.82750  0.49280  0.76000  Biso   1.000  H
  H140     1.0000 0.17250  0.99280  0.74000  Biso   1.000  H
  H141     1.0000 0.32580  0.54190  0.27320  Biso   1.000  H
  H142     1.0000 0.67420  0.04190  0.22680  Biso   1.000  H
  H143     1.0000 0.67420  0.45810  0.72680  Biso   1.000  H
  H144     1.0000 0.32580  0.95810  0.77320  Biso   1.000  H
  H145     1.0000 0.32370  0.58210  0.21860  Biso   1.000  H
  H146     1.0000 0.67630  0.08210  0.28140  Biso   1.000  H
  H147     1.0000 0.67630  0.41790  0.78140  Biso   1.000  H
  H148     1.0000 0.32370  0.91790  0.71860  Biso   1.000  H
  H149     1.0000 0.61400  0.44790  0.21420  Biso   1.000  H
  H150     1.0000 0.38600  0.94790  0.28580  Biso   1.000  H
  H151     1.0000 0.38600  0.55210  0.78580  Biso   1.000  H
  H152     1.0000 0.61400  0.05210  0.71420  Biso   1.000  H
  H153     1.0000 0.49840  0.61620  0.19280  Biso   1.000  H
  H154     1.0000 0.50160  0.11620  0.30720  Biso   1.000  H
  H155     1.0000 0.50160  0.38380  0.80720  Biso   1.000  H
  H156     1.0000 0.49840  0.88380  0.69280  Biso   1.000  H
  H157     1.0000 0.56770  0.59670  0.24130  Biso   1.000  H
  H158     1.0000 0.43230  0.09670  0.25870  Biso   1.000  H
  H159     1.0000 0.43230  0.40330  0.75870  Biso   1.000  H
  H160     1.0000 0.56770  0.90330  0.74130  Biso   1.000  H
  H161     1.0000 0.46120  0.62100  0.24640  Biso   1.000  H
  H162     1.0000 0.53880  0.12100  0.25360  Biso   1.000  H
  H163     1.0000 0.53880  0.37900  0.75360  Biso   1.000  H
  H164     1.0000 0.46120  0.87900  0.74640  Biso   1.000  H
  H165     1.0000 0.66370  0.25260  0.23340  Biso   1.000  H
  H166     1.0000 0.33630  0.75260  0.26660  Biso   1.000  H
  H167     1.0000 0.33630  0.74740  0.76660  Biso   1.000  H
  H168     1.0000 0.66370  0.24740  0.73340  Biso   1.000  H
  H169     1.0000 0.67730  0.30940  0.18490  Biso   1.000  H
  H170     1.0000 0.32270  0.80940  0.31510  Biso   1.000  H
  H171     1.0000 0.32270  0.69060  0.81510  Biso   1.000  H
  H172     1.0000 0.67730  0.19060  0.68490  Biso   1.000  H
  H173     1.0000 0.61400  0.22250  0.18080  Biso   1.000  H
  H174     1.0000 0.38600  0.72250  0.31920  Biso   1.000  H
  H175     1.0000 0.38600  0.77750  0.81920  Biso   1.000  H
  H176     1.0000 0.61400  0.27750  0.68080  Biso   1.000  H
  H177     1.0000 0.92050  0.07360  0.97880  Biso   1.000  H
  H178     1.0000 0.07950  0.57360  0.52120  Biso   1.000  H
  H179     1.0000 0.07950  0.92640  0.02120  Biso   1.000  H
  H180     1.0000 0.92050  0.42640  0.47880  Biso   1.000  H
  H181     1.0000 0.96150  0.15840  0.95340  Biso   1.000  H
  H182     1.0000 0.03850  0.65840  0.54660  Biso   1.000  H
  H183     1.0000 0.03850  0.84160  0.04660  Biso   1.000  H
  H184     1.0000 0.96150  0.34160  0.45340  Biso   1.000  H
  H185     1.0000 0.85220  0.15120  0.95810  Biso   1.000  H
  H186     1.0000 0.14780  0.65120  0.54190  Biso   1.000  H
  H187     1.0000 0.14780  0.84880  0.04190  Biso   1.000  H
  H188     1.0000 0.85220  0.34880  0.45810  Biso   1.000  H
  H189     1.0000 0.10620  0.29450  0.12140  Biso   1.000  H
  H190     1.0000 0.89380  0.79450  0.37860  Biso   1.000  H
  H191     1.0000 0.89380  0.70550  0.87860  Biso   1.000  H
  H192     1.0000 0.10620  0.20550  0.62140  Biso   1.000  H
  H193     1.0000 0.17770  0.21430  0.13130  Biso   1.000  H
  H194     1.0000 0.82230  0.71430  0.36870  Biso   1.000  H
  H195     1.0000 0.82230  0.78570  0.86870  Biso   1.000  H
  H196     1.0000 0.17770  0.28570  0.63130  Biso   1.000  H
  H197     1.0000 0.06820  0.19730  0.13090  Biso   1.000  H
  H198     1.0000 0.93180  0.69730  0.36910  Biso   1.000  H
  H199     1.0000 0.93180  0.80270  0.86910  Biso   1.000  H
  H200     1.0000 0.06820  0.30270  0.63090  Biso   1.000  H
  H201     1.0000 0.66370  0.39900  0.10520  Biso   1.000  H
  H202     1.0000 0.33630  0.89900  0.39480  Biso   1.000  H
  H203     1.0000 0.33630  0.60100  0.89480  Biso   1.000  H
  H204     1.0000 0.66370  0.10100  0.60520  Biso   1.000  H
  H205     1.0000 0.72520  0.39310  0.05940  Biso   1.000  H
  H206     1.0000 0.27480  0.89310  0.44060  Biso   1.000  H
  H207     1.0000 0.27480  0.60690  0.94060  Biso   1.000  H
  H208     1.0000 0.72520  0.10690  0.55940  Biso   1.000  H
  H209     1.0000 0.65510  0.31480  0.06940  Biso   1.000  H
  H210     1.0000 0.34490  0.81480  0.43060  Biso   1.000  H
  H211     1.0000 0.34490  0.68520  0.93060  Biso   1.000  H
  H212     1.0000 0.65510  0.18520  0.56940  Biso   1.000  H
