data_image0
_cell_length_a       13.547
_cell_length_b       7.2157
_cell_length_c       14.8634
_cell_angle_alpha    90
_cell_angle_beta     90.187
_cell_angle_gamma    90

_symmetry_space_group_name_H-M    "P 1"
_symmetry_int_tables_number       1

loop_
  _symmetry_equiv_pos_as_xyz
  'x, y, z'

loop_
  _atom_site_label
  _atom_site_occupancy
  _atom_site_fract_x
  _atom_site_fract_y
  _atom_site_fract_z
  _atom_site_thermal_displace_type
  _atom_site_B_iso_or_equiv
  _atom_site_type_symbol
  Cu1      1.0000 0.37141  0.58608  0.86995  Biso   1.000  Cu
  Cu2      1.0000 0.12859  0.08608  0.63005  Biso   1.000  Cu
  Cu3      1.0000 0.62859  0.41392  0.13005  Biso   1.000  Cu
  Cu4      1.0000 0.87141  0.91392  0.36995  Biso   1.000  Cu
  O1       1.0000 0.24760  0.55260  0.92450  Biso   1.000  O
  O2       1.0000 0.25240  0.05260  0.57550  Biso   1.000  O
  O3       1.0000 0.75240  0.44740  0.07550  Biso   1.000  O
  O4       1.0000 0.74760  0.94740  0.42450  Biso   1.000  O
  O5       1.0000 0.15710  0.18040  0.94530  Biso   1.000  O
  O6       1.0000 0.34290  0.68040  0.55470  Biso   1.000  O
  O7       1.0000 0.84290  0.81960  0.05470  Biso   1.000  O
  O8       1.0000 0.65710  0.31960  0.44530  Biso   1.000  O
  O9       1.0000 0.93190  0.60930  0.84850  Biso   1.000  O
  O10      1.0000 0.56810  0.10930  0.65150  Biso   1.000  O
  O11      1.0000 0.06810  0.39070  0.15150  Biso   1.000  O
  O12      1.0000 0.43190  0.89070  0.34850  Biso   1.000  O
  O13      1.0000 0.32470  0.41110  0.77710  Biso   1.000  O
  O14      1.0000 0.17530  0.91110  0.72290  Biso   1.000  O
  O15      1.0000 0.67530  0.58890  0.22290  Biso   1.000  O
  O16      1.0000 0.82470  0.08890  0.27710  Biso   1.000  O
  O17      1.0000 0.17950  0.32300  0.72310  Biso   1.000  O
  O18      1.0000 0.32050  0.82300  0.77690  Biso   1.000  O
  O19      1.0000 0.82050  0.67700  0.27690  Biso   1.000  O
  O20      1.0000 0.67950  0.17700  0.22310  Biso   1.000  O
  O21      1.0000 0.86030  0.18340  0.97980  Biso   1.000  O
  O22      1.0000 0.63970  0.68340  0.52020  Biso   1.000  O
  O23      1.0000 0.13970  0.81660  0.02020  Biso   1.000  O
  O24      1.0000 0.36030  0.31660  0.47980  Biso   1.000  O
  N1       1.0000 0.43270  0.70670  0.97750  Biso   1.000  N
  N2       1.0000 0.06730  0.20670  0.52250  Biso   1.000  N
  N3       1.0000 0.56730  0.29330  0.02250  Biso   1.000  N
  N4       1.0000 0.93270  0.79330  0.47750  Biso   1.000  N
  N5       1.0000 0.50860  0.59750  0.82660  Biso   1.000  N
  N6       1.0000 0.99140  0.09750  0.67340  Biso   1.000  N
  N7       1.0000 0.49140  0.40250  0.17340  Biso   1.000  N
  N8       1.0000 0.00860  0.90250  0.32660  Biso   1.000  N
  N9       1.0000 0.02340  0.36680  0.90660  Biso   1.000  N
  N10      1.0000 0.47660  0.86680  0.59340  Biso   1.000  N
  N11      1.0000 0.97660  0.63320  0.09340  Biso   1.000  N
  N12      1.0000 0.52340  0.13320  0.40660  Biso   1.000  N
  N13      1.0000 0.10170  0.60040  0.83880  Biso   1.000  N
  N14      1.0000 0.39830  0.10040  0.66120  Biso   1.000  N
  N15      1.0000 0.89830  0.39960  0.16120  Biso   1.000  N
  N16      1.0000 0.60170  0.89960  0.33880  Biso   1.000  N
  C1       1.0000 0.38590  0.76570  0.05100  Biso   1.000  C
  C2       1.0000 0.11410  0.26570  0.44900  Biso   1.000  C
  C3       1.0000 0.61410  0.23430  0.94900  Biso   1.000  C
  C4       1.0000 0.88590  0.73430  0.55100  Biso   1.000  C
  H1       1.0000 0.31790  0.75030  0.05530  Biso   1.000  H
  H2       1.0000 0.18210  0.25030  0.44470  Biso   1.000  H
  H3       1.0000 0.68210  0.24970  0.94470  Biso   1.000  H
  H4       1.0000 0.81790  0.74970  0.55530  Biso   1.000  H
  C5       1.0000 0.43570  0.84780  0.11950  Biso   1.000  C
  C6       1.0000 0.06430  0.34780  0.38050  Biso   1.000  C
  C7       1.0000 0.56430  0.15220  0.88050  Biso   1.000  C
  C8       1.0000 0.93570  0.65220  0.61950  Biso   1.000  C
  H5       1.0000 0.40170  0.88610  0.17050  Biso   1.000  H
  H6       1.0000 0.09830  0.38610  0.32950  Biso   1.000  H
  H7       1.0000 0.59830  0.11390  0.82950  Biso   1.000  H
  H8       1.0000 0.90170  0.61390  0.67050  Biso   1.000  H
  C9       1.0000 0.53590  0.87530  0.11470  Biso   1.000  C
  C10      1.0000 0.96410  0.37530  0.38530  Biso   1.000  C
  C11      1.0000 0.46410  0.12470  0.88530  Biso   1.000  C
  C12      1.0000 0.03590  0.62470  0.61470  Biso   1.000  C
  H9       1.0000 0.56960  0.93600  0.16060  Biso   1.000  H
  H10      1.0000 0.93040  0.43600  0.33940  Biso   1.000  H
  H11      1.0000 0.43040  0.06400  0.83940  Biso   1.000  H
  H12      1.0000 0.06960  0.56400  0.66060  Biso   1.000  H
  C13      1.0000 0.58580  0.81000  0.03930  Biso   1.000  C
  C14      1.0000 0.91420  0.31000  0.46070  Biso   1.000  C
  C15      1.0000 0.41420  0.19000  0.96070  Biso   1.000  C
  C16      1.0000 0.08580  0.69000  0.53930  Biso   1.000  C
  H13      1.0000 0.65380  0.82310  0.03470  Biso   1.000  H
  H14      1.0000 0.84620  0.32310  0.46530  Biso   1.000  H
  H15      1.0000 0.34620  0.17690  0.96530  Biso   1.000  H
  H16      1.0000 0.15380  0.67690  0.53470  Biso   1.000  H
  C17      1.0000 0.53370  0.72760  0.97340  Biso   1.000  C
  C18      1.0000 0.96630  0.22760  0.52660  Biso   1.000  C
  C19      1.0000 0.46630  0.27240  0.02660  Biso   1.000  C
  C20      1.0000 0.03370  0.77240  0.47340  Biso   1.000  C
  C21      1.0000 0.57630  0.66030  0.88660  Biso   1.000  C
  C22      1.0000 0.92370  0.16030  0.61340  Biso   1.000  C
  C23      1.0000 0.42370  0.33970  0.11340  Biso   1.000  C
  C24      1.0000 0.07630  0.83970  0.38660  Biso   1.000  C
  C25      1.0000 0.67610  0.65140  0.87000  Biso   1.000  C
  C26      1.0000 0.82390  0.15140  0.63000  Biso   1.000  C
  C27      1.0000 0.32390  0.34860  0.13000  Biso   1.000  C
  C28      1.0000 0.17610  0.84860  0.37000  Biso   1.000  C
  H17      1.0000 0.72110  0.69320  0.91280  Biso   1.000  H
  H18      1.0000 0.77890  0.19320  0.58720  Biso   1.000  H
  H19      1.0000 0.27890  0.30680  0.08720  Biso   1.000  H
  H20      1.0000 0.22110  0.80680  0.41280  Biso   1.000  H
  C29      1.0000 0.70870  0.58030  0.78970  Biso   1.000  C
  C30      1.0000 0.79130  0.08030  0.71030  Biso   1.000  C
  C31      1.0000 0.29130  0.41970  0.21030  Biso   1.000  C
  C32      1.0000 0.20870  0.91970  0.28970  Biso   1.000  C
  H21      1.0000 0.77590  0.57030  0.77820  Biso   1.000  H
  H22      1.0000 0.72410  0.07030  0.72180  Biso   1.000  H
  H23      1.0000 0.22410  0.42970  0.22180  Biso   1.000  H
  H24      1.0000 0.27590  0.92970  0.27820  Biso   1.000  H
  C33      1.0000 0.64060  0.52390  0.72650  Biso   1.000  C
  C34      1.0000 0.85940  0.02390  0.77350  Biso   1.000  C
  C35      1.0000 0.35940  0.47610  0.27350  Biso   1.000  C
  C36      1.0000 0.14060  0.97610  0.22650  Biso   1.000  C
  H25      1.0000 0.66110  0.48150  0.67040  Biso   1.000  H
  H26      1.0000 0.83890  0.98150  0.82960  Biso   1.000  H
  H27      1.0000 0.33890  0.51850  0.32960  Biso   1.000  H
  H28      1.0000 0.16110  0.01850  0.17040  Biso   1.000  H
  C37      1.0000 0.54160  0.53120  0.74740  Biso   1.000  C
  C38      1.0000 0.95840  0.03120  0.75260  Biso   1.000  C
  C39      1.0000 0.45840  0.46880  0.25260  Biso   1.000  C
  C40      1.0000 0.04160  0.96880  0.24740  Biso   1.000  C
  H29      1.0000 0.49590  0.48870  0.70540  Biso   1.000  H
  H30      1.0000 0.00410  0.98870  0.79460  Biso   1.000  H
  H31      1.0000 0.50410  0.51130  0.29460  Biso   1.000  H
  H32      1.0000 0.99590  0.01130  0.20540  Biso   1.000  H
  C41      1.0000 0.12150  0.31690  0.91150  Biso   1.000  C
  C42      1.0000 0.37850  0.81690  0.58850  Biso   1.000  C
  C43      1.0000 0.87850  0.68310  0.08850  Biso   1.000  C
  C44      1.0000 0.62150  0.18310  0.41150  Biso   1.000  C
  C45      1.0000 0.18040  0.47420  0.86620  Biso   1.000  C
  C46      1.0000 0.31960  0.97420  0.63380  Biso   1.000  C
  C47      1.0000 0.81960  0.52580  0.13380  Biso   1.000  C
  C48      1.0000 0.68040  0.02580  0.36620  Biso   1.000  C
  C49      1.0000 0.01150  0.53590  0.86300  Biso   1.000  C
  C50      1.0000 0.48850  0.03590  0.63700  Biso   1.000  C
  C51      1.0000 0.98850  0.46410  0.13700  Biso   1.000  C
  C52      1.0000 0.51150  0.96410  0.36300  Biso   1.000  C
  C53      1.0000 0.23180  0.39420  0.77960  Biso   1.000  C
  C54      1.0000 0.26820  0.89420  0.72040  Biso   1.000  C
  C55      1.0000 0.76820  0.60580  0.22040  Biso   1.000  C
  C56      1.0000 0.73180  0.10580  0.27960  Biso   1.000  C
  H33      1.0000 0.81000  0.12800  0.92000  Biso   1.000  H
  H34      1.0000 0.69000  0.62800  0.58000  Biso   1.000  H
  H35      1.0000 0.19000  0.87200  0.08000  Biso   1.000  H
  H36      1.0000 0.31000  0.37200  0.42000  Biso   1.000  H
  H37      1.0000 0.85700  0.09500  0.00400  Biso   1.000  H
  H38      1.0000 0.64300  0.59500  0.49600  Biso   1.000  H
  H39      1.0000 0.14300  0.90500  0.99600  Biso   1.000  H
  H40      1.0000 0.35700  0.40500  0.50400  Biso   1.000  H
