data_image0
_cell_length_a       9.387
_cell_length_b       9.968
_cell_length_c       10.291
_cell_angle_alpha    87.532
_cell_angle_beta     63.762
_cell_angle_gamma    86.628

_symmetry_space_group_name_H-M    "P 1"
_symmetry_int_tables_number       1

loop_
  _symmetry_equiv_pos_as_xyz
  'x, y, z'

loop_
  _atom_site_label
  _atom_site_occupancy
  _atom_site_fract_x
  _atom_site_fract_y
  _atom_site_fract_z
  _atom_site_thermal_displace_type
  _atom_site_B_iso_or_equiv
  _atom_site_type_symbol
  Cu1      1.0000 0.49303  0.42450  0.15894  Biso   1.000  Cu
  Cu2      1.0000 0.50697  0.57550  0.84106  Biso   1.000  Cu
  Cl1      1.0000 0.33127  0.56997  0.07875  Biso   1.000  Cl
  Cl2      1.0000 0.66873  0.43003  0.92125  Biso   1.000  Cl
  Cl3      1.0000 0.64190  0.27648  0.22979  Biso   1.000  Cl
  Cl4      1.0000 0.35810  0.72352  0.77021  Biso   1.000  Cl
  F1       1.0000 0.04890  0.92860  0.09830  Biso   1.000  F
  F2       1.0000 0.95110  0.07140  0.90170  Biso   1.000  F
  N1       1.0000 0.53880  0.60350  0.27330  Biso   1.000  N
  N2       1.0000 0.46120  0.39650  0.72670  Biso   1.000  N
  N3       1.0000 0.30980  0.41900  0.35600  Biso   1.000  N
  N4       1.0000 0.69020  0.58100  0.64400  Biso   1.000  N
  O1       1.0000 0.32520  0.23920  0.16480  Biso   1.000  O
  O2       1.0000 0.67480  0.76080  0.83520  Biso   1.000  O
  C1       1.0000 0.92050  0.85310  0.13920  Biso   1.000  C
  C2       1.0000 0.07950  0.14690  0.86080  Biso   1.000  C
  C3       1.0000 0.93710  0.73780  0.06480  Biso   1.000  C
  C4       1.0000 0.06290  0.26220  0.93520  Biso   1.000  C
  H1       1.0000 0.03260  0.71320  0.98650  Biso   1.000  H
  H2       1.0000 0.96740  0.28680  0.01350  Biso   1.000  H
  C5       1.0000 0.80450  0.65870  0.11160  Biso   1.000  C
  C6       1.0000 0.19550  0.34130  0.88840  Biso   1.000  C
  H3       1.0000 0.81120  0.58050  0.06270  Biso   1.000  H
  H4       1.0000 0.18880  0.41950  0.93730  Biso   1.000  H
  C7       1.0000 0.66460  0.69440  0.22850  Biso   1.000  C
  C8       1.0000 0.33540  0.30560  0.77150  Biso   1.000  C
  C9       1.0000 0.65130  0.81470  0.29700  Biso   1.000  C
  C10      1.0000 0.34870  0.18530  0.70300  Biso   1.000  C
  H5       1.0000 0.55590  0.84140  0.37410  Biso   1.000  H
  H6       1.0000 0.44410  0.15860  0.62590  Biso   1.000  H
  C11      1.0000 0.78180  0.89470  0.24940  Biso   1.000  C
  C12      1.0000 0.21820  0.10530  0.75060  Biso   1.000  C
  H7       1.0000 0.77380  0.97630  0.29310  Biso   1.000  H
  H8       1.0000 0.22620  0.02370  0.70690  Biso   1.000  H
  C13      1.0000 0.43340  0.60140  0.40410  Biso   1.000  C
  C14      1.0000 0.56660  0.39860  0.59590  Biso   1.000  C
  H9       1.0000 0.43760  0.66050  0.46980  Biso   1.000  H
  H10      1.0000 0.56240  0.33950  0.53020  Biso   1.000  H
  C15      1.0000 0.30530  0.50670  0.45240  Biso   1.000  C
  C16      1.0000 0.69470  0.49330  0.54760  Biso   1.000  C
  C17      1.0000 0.18380  0.51070  0.59450  Biso   1.000  C
  C18      1.0000 0.81620  0.48930  0.40550  Biso   1.000  C
  H11      1.0000 0.18510  0.57150  0.65990  Biso   1.000  H
  H12      1.0000 0.81490  0.42850  0.34010  Biso   1.000  H
  C19      1.0000 0.06440  0.42470  0.63510  Biso   1.000  C
  C20      1.0000 0.93560  0.57530  0.36490  Biso   1.000  C
  H13      1.0000 0.98260  0.42730  0.72870  Biso   1.000  H
  H14      1.0000 0.01740  0.57270  0.27130  Biso   1.000  H
  C21      1.0000 0.06310  0.33180  0.53760  Biso   1.000  C
  C22      1.0000 0.93690  0.66820  0.46240  Biso   1.000  C
  C23      1.0000 0.19200  0.33070  0.39600  Biso   1.000  C
  C24      1.0000 0.80800  0.66930  0.60400  Biso   1.000  C
  C25      1.0000 0.19520  0.23670  0.29440  Biso   1.000  C
  C26      1.0000 0.80480  0.76330  0.70560  Biso   1.000  C
  C27      1.0000 0.07300  0.15270  0.33270  Biso   1.000  C
  C28      1.0000 0.92700  0.84730  0.66730  Biso   1.000  C
  H15      1.0000 0.07400  0.09210  0.26600  Biso   1.000  H
  H16      1.0000 0.92600  0.90790  0.73400  Biso   1.000  H
  C29      1.0000 0.94530  0.15710  0.47240  Biso   1.000  C
  C30      1.0000 0.05470  0.84290  0.52760  Biso   1.000  C
  H17      1.0000 0.86200  0.10030  0.49560  Biso   1.000  H
  H18      1.0000 0.13800  0.89970  0.50440  Biso   1.000  H
  C31      1.0000 0.94020  0.24100  0.57300  Biso   1.000  C
  C32      1.0000 0.05980  0.75900  0.42700  Biso   1.000  C
  H19      1.0000 0.85640  0.23940  0.66570  Biso   1.000  H
  H20      1.0000 0.14360  0.76060  0.33430  Biso   1.000  H
  C33      1.0000 0.36570  0.12170  0.07440  Biso   1.000  C
  C34      1.0000 0.63430  0.87830  0.92560  Biso   1.000  C
  H21      1.0000 0.27130  0.09410  0.06850  Biso   1.000  H
  H22      1.0000 0.72870  0.90590  0.93150  Biso   1.000  H
  C35      1.0000 0.53190  0.11280  0.96240  Biso   1.000  C
  C36      1.0000 0.46810  0.88720  0.03760  Biso   1.000  C
  C37      1.0000 0.42980  0.01040  0.13170  Biso   1.000  C
  C38      1.0000 0.57020  0.98960  0.86830  Biso   1.000  C
  H23      1.0000 0.29600  0.12240  0.02730  Biso   1.000  H
  H24      1.0000 0.70400  0.87760  0.97270  Biso   1.000  H
  H25      1.0000 0.34540  0.04180  0.13610  Biso   1.000  H
  H26      1.0000 0.65460  0.95820  0.86390  Biso   1.000  H
  H27      1.0000 0.44350  0.14480  0.97720  Biso   1.000  H
  H28      1.0000 0.55650  0.85520  0.02280  Biso   1.000  H
