data_image0
_cell_length_a       10.98
_cell_length_b       7.362
_cell_length_c       9.7
_cell_angle_alpha    90
_cell_angle_beta     101.45
_cell_angle_gamma    90

_symmetry_space_group_name_H-M    "P 1"
_symmetry_int_tables_number       1

loop_
  _symmetry_equiv_pos_as_xyz
  'x, y, z'

loop_
  _atom_site_label
  _atom_site_occupancy
  _atom_site_fract_x
  _atom_site_fract_y
  _atom_site_fract_z
  _atom_site_thermal_displace_type
  _atom_site_B_iso_or_equiv
  _atom_site_type_symbol
  Cu1      1.0000 0.19510  0.25010  0.14670  Biso   1.000  Cu
  Cu2      1.0000 0.80490  0.75010  0.85330  Biso   1.000  Cu
  C1       1.0000 0.50750  0.35680  0.49860  Biso   1.000  C
  C2       1.0000 0.49250  0.85680  0.50140  Biso   1.000  C
  C3       1.0000 0.43730  0.31550  0.34140  Biso   1.000  C
  C4       1.0000 0.56270  0.81550  0.65860  Biso   1.000  C
  C5       1.0000 0.47760  0.45180  0.24090  Biso   1.000  C
  C6       1.0000 0.52240  0.95180  0.75910  Biso   1.000  C
  C7       1.0000 0.43370  0.39840  0.08850  Biso   1.000  C
  C8       1.0000 0.56630  0.89840  0.91150  Biso   1.000  C
  C9       1.0000 0.31320  0.29620  0.89840  Biso   1.000  C
  C10      1.0000 0.68680  0.79620  0.10160  Biso   1.000  C
  C11      1.0000 0.49560  0.42330  0.97960  Biso   1.000  C
  C12      1.0000 0.50440  0.92330  0.02040  Biso   1.000  C
  N1       1.0000 0.30330  0.32150  0.32970  Biso   1.000  N
  N2       1.0000 0.69670  0.82150  0.67030  Biso   1.000  N
  N3       1.0000 0.32180  0.31750  0.03910  Biso   1.000  N
  N4       1.0000 0.67820  0.81750  0.96090  Biso   1.000  N
  N5       1.0000 0.41590  0.35760  0.86330  Biso   1.000  N
  N6       1.0000 0.58410  0.85760  0.13670  Biso   1.000  N
  O1       1.0000 0.43870  0.37630  0.58500  Biso   1.000  O
  O2       1.0000 0.56130  0.87630  0.41500  Biso   1.000  O
  O3       1.0000 0.61880  0.36640  0.52010  Biso   1.000  O
  O4       1.0000 0.38120  0.86640  0.47990  Biso   1.000  O
  C13      1.0000 0.96710  0.15070  0.98510  Biso   1.000  C
  C14      1.0000 0.03290  0.65070  0.01490  Biso   1.000  C
  C15      1.0000 0.93660  0.14770  0.13510  Biso   1.000  C
  C16      1.0000 0.06340  0.64770  0.86490  Biso   1.000  C
  C17      1.0000 0.81750  0.24610  0.14160  Biso   1.000  C
  C18      1.0000 0.18250  0.74610  0.85840  Biso   1.000  C
  N7       1.0000 0.04620  0.21410  0.23450  Biso   1.000  N
  N8       1.0000 0.95380  0.71410  0.76550  Biso   1.000  N
  O5       1.0000 0.07670  0.18290  0.97440  Biso   1.000  O
  O6       1.0000 0.92330  0.68290  0.02560  Biso   1.000  O
  O7       1.0000 0.88380  0.12120  0.88470  Biso   1.000  O
  O8       1.0000 0.11620  0.62120  0.11530  Biso   1.000  O
  O9       1.0000 0.27510  0.93360  0.20330  Biso   1.000  O
  O10      1.0000 0.72490  0.43360  0.79670  Biso   1.000  O
