data_image0
_cell_length_a       20.7391
_cell_length_b       20.7391
_cell_length_c       3.3462
_cell_angle_alpha    90
_cell_angle_beta     90
_cell_angle_gamma    90

_symmetry_space_group_name_H-M    "P 1"
_symmetry_int_tables_number       1

loop_
  _symmetry_equiv_pos_as_xyz
  'x, y, z'

loop_
  _atom_site_label
  _atom_site_occupancy
  _atom_site_fract_x
  _atom_site_fract_y
  _atom_site_fract_z
  _atom_site_thermal_displace_type
  _atom_site_B_iso_or_equiv
  _atom_site_type_symbol
  Cu1      1.0000 0.36518  0.25000  0.12500  Biso   1.000  Cu
  Cu2      1.0000 0.75000  0.86518  0.37500  Biso   1.000  Cu
  Cu3      1.0000 0.63482  0.75000  0.12500  Biso   1.000  Cu
  Cu4      1.0000 0.25000  0.13482  0.37500  Biso   1.000  Cu
  Cu5      1.0000 0.25000  0.36518  0.87500  Biso   1.000  Cu
  Cu6      1.0000 0.75000  0.63482  0.87500  Biso   1.000  Cu
  Cu7      1.0000 0.86518  0.75000  0.62500  Biso   1.000  Cu
  Cu8      1.0000 0.13482  0.25000  0.62500  Biso   1.000  Cu
  Cu9      1.0000 0.50000  0.50000  0.00000  Biso   1.000  Cu
  Cu10     1.0000 0.50000  0.00000  0.25000  Biso   1.000  Cu
  Cu11     1.0000 0.00000  0.00000  0.50000  Biso   1.000  Cu
  Cu12     1.0000 0.00000  0.50000  0.75000  Biso   1.000  Cu
  N1       1.0000 0.38190  0.34100  0.05300  Biso   1.000  N
  N2       1.0000 0.65900  0.88190  0.30300  Biso   1.000  N
  N3       1.0000 0.61810  0.65900  0.05300  Biso   1.000  N
  N4       1.0000 0.34100  0.11810  0.30300  Biso   1.000  N
  N5       1.0000 0.38190  0.15900  0.19700  Biso   1.000  N
  N6       1.0000 0.61810  0.84100  0.19700  Biso   1.000  N
  N7       1.0000 0.34100  0.38190  0.94700  Biso   1.000  N
  N8       1.0000 0.65900  0.61810  0.94700  Biso   1.000  N
  N9       1.0000 0.88190  0.84100  0.55300  Biso   1.000  N
  N10      1.0000 0.15900  0.38190  0.80300  Biso   1.000  N
  N11      1.0000 0.11810  0.15900  0.55300  Biso   1.000  N
  N12      1.0000 0.84100  0.61810  0.80300  Biso   1.000  N
  N13      1.0000 0.88190  0.65900  0.69700  Biso   1.000  N
  N14      1.0000 0.11810  0.34100  0.69700  Biso   1.000  N
  N15      1.0000 0.84100  0.88190  0.44700  Biso   1.000  N
  N16      1.0000 0.15900  0.11810  0.44700  Biso   1.000  N
  N17      1.0000 0.43140  0.43140  0.00000  Biso   1.000  N
  N18      1.0000 0.56860  0.93140  0.25000  Biso   1.000  N
  N19      1.0000 0.56860  0.56860  0.00000  Biso   1.000  N
  N20      1.0000 0.43140  0.06860  0.25000  Biso   1.000  N
  N21      1.0000 0.93140  0.93140  0.50000  Biso   1.000  N
  N22      1.0000 0.06860  0.43140  0.75000  Biso   1.000  N
  N23      1.0000 0.06860  0.06860  0.50000  Biso   1.000  N
  N24      1.0000 0.93140  0.56860  0.75000  Biso   1.000  N
  C1       1.0000 0.44830  0.36540  0.09100  Biso   1.000  C
  C2       1.0000 0.63460  0.94830  0.34100  Biso   1.000  C
  C3       1.0000 0.55170  0.63460  0.09100  Biso   1.000  C
  C4       1.0000 0.36540  0.05170  0.34100  Biso   1.000  C
  C5       1.0000 0.44830  0.13460  0.15900  Biso   1.000  C
  C6       1.0000 0.55170  0.86540  0.15900  Biso   1.000  C
  C7       1.0000 0.36540  0.44830  0.90900  Biso   1.000  C
  C8       1.0000 0.63460  0.55170  0.90900  Biso   1.000  C
  C9       1.0000 0.94830  0.86540  0.59100  Biso   1.000  C
  C10      1.0000 0.13460  0.44830  0.84100  Biso   1.000  C
  C11      1.0000 0.05170  0.13460  0.59100  Biso   1.000  C
  C12      1.0000 0.86540  0.55170  0.84100  Biso   1.000  C
  C13      1.0000 0.94830  0.63460  0.65900  Biso   1.000  C
  C14      1.0000 0.05170  0.36540  0.65900  Biso   1.000  C
  C15      1.0000 0.86540  0.94830  0.40900  Biso   1.000  C
  C16      1.0000 0.13460  0.05170  0.40900  Biso   1.000  C
  H1       1.0000 0.48810  0.34510  0.15310  Biso   1.000  H
  H2       1.0000 0.65490  0.98810  0.40310  Biso   1.000  H
  H3       1.0000 0.51190  0.65490  0.15310  Biso   1.000  H
  H4       1.0000 0.34510  0.01190  0.40310  Biso   1.000  H
  H5       1.0000 0.48810  0.15490  0.09690  Biso   1.000  H
  H6       1.0000 0.51190  0.84510  0.09690  Biso   1.000  H
  H7       1.0000 0.34510  0.48810  0.84690  Biso   1.000  H
  H8       1.0000 0.65490  0.51190  0.84690  Biso   1.000  H
  H9       1.0000 0.98810  0.84510  0.65310  Biso   1.000  H
  H10      1.0000 0.15490  0.48810  0.90310  Biso   1.000  H
  H11      1.0000 0.01190  0.15490  0.65310  Biso   1.000  H
  H12      1.0000 0.84510  0.51190  0.90310  Biso   1.000  H
  H13      1.0000 0.98810  0.65490  0.59690  Biso   1.000  H
  H14      1.0000 0.01190  0.34510  0.59690  Biso   1.000  H
  H15      1.0000 0.84510  0.98810  0.34690  Biso   1.000  H
  H16      1.0000 0.15490  0.01190  0.34690  Biso   1.000  H
