data_image0
_cell_length_a       9.9535
_cell_length_b       11.1104
_cell_length_c       11.2758
_cell_angle_alpha    113.936
_cell_angle_beta     104.939
_cell_angle_gamma    102.311

_symmetry_space_group_name_H-M    "P 1"
_symmetry_int_tables_number       1

loop_
  _symmetry_equiv_pos_as_xyz
  'x, y, z'

loop_
  _atom_site_label
  _atom_site_occupancy
  _atom_site_fract_x
  _atom_site_fract_y
  _atom_site_fract_z
  _atom_site_thermal_displace_type
  _atom_site_B_iso_or_equiv
  _atom_site_type_symbol
  Cu1      1.0000 0.22373  0.83920  0.74358  Biso   1.000  Cu
  Cu2      1.0000 0.77627  0.16080  0.25642  Biso   1.000  Cu
  V1       1.0000 0.12618  0.44132  0.46021  Biso   1.000  V
  V2       1.0000 0.87382  0.55868  0.53979  Biso   1.000  V
  V3       1.0000 0.55492  0.31034  0.32663  Biso   1.000  V
  V4       1.0000 0.44508  0.68966  0.67337  Biso   1.000  V
  P1       1.0000 0.35979  0.52705  0.34634  Biso   1.000  P
  P2       1.0000 0.64021  0.47295  0.65366  Biso   1.000  P
  F1       1.0000 0.03240  0.47590  0.59630  Biso   1.000  F
  F2       1.0000 0.96760  0.52410  0.40370  Biso   1.000  F
  O1       1.0000 0.40960  0.40200  0.29660  Biso   1.000  O
  O2       1.0000 0.59040  0.59800  0.70340  Biso   1.000  O
  O3       1.0000 0.46200  0.64550  0.49490  Biso   1.000  O
  O4       1.0000 0.53800  0.35450  0.50510  Biso   1.000  O
  O5       1.0000 0.19640  0.48370  0.33210  Biso   1.000  O
  O6       1.0000 0.80360  0.51630  0.66790  Biso   1.000  O
  O7       1.0000 0.43070  0.68120  0.84570  Biso   1.000  O
  O8       1.0000 0.56930  0.31880  0.15430  Biso   1.000  O
  O9       1.0000 0.26280  0.78350  0.88890  Biso   1.000  O
  O10      1.0000 0.73720  0.21650  0.11110  Biso   1.000  O
  O11      1.0000 0.28140  0.44060  0.55590  Biso   1.000  O
  O12      1.0000 0.71860  0.55940  0.44410  Biso   1.000  O
  O13      1.0000 0.45590  0.14620  0.24360  Biso   1.000  O
  O14      1.0000 0.54410  0.85380  0.75640  Biso   1.000  O
  O15      1.0000 0.26530  0.68660  0.61840  Biso   1.000  O
  O16      1.0000 0.73470  0.31340  0.38160  Biso   1.000  O
  O17      1.0000 0.97610  0.72580  0.64290  Biso   1.000  O
  O18      1.0000 0.02390  0.27420  0.35710  Biso   1.000  O
  N1       1.0000 0.19210  0.00650  0.87250  Biso   1.000  N
  N2       1.0000 0.80790  0.99350  0.12750  Biso   1.000  N
  N3       1.0000 0.22720  0.94250  0.63350  Biso   1.000  N
  N4       1.0000 0.77280  0.05750  0.36650  Biso   1.000  N
  C1       1.0000 0.36180  0.59830  0.22930  Biso   1.000  C
  C2       1.0000 0.63820  0.40170  0.77070  Biso   1.000  C
  C3       1.0000 0.47670  0.60470  0.18050  Biso   1.000  C
  C4       1.0000 0.52330  0.39530  0.81950  Biso   1.000  C
  H1       1.0000 0.55720  0.57930  0.21550  Biso   1.000  H
  H2       1.0000 0.44280  0.42070  0.78450  Biso   1.000  H
  C5       1.0000 0.47410  0.64830  0.08050  Biso   1.000  C
  C6       1.0000 0.52590  0.35170  0.91950  Biso   1.000  C
  H3       1.0000 0.55260  0.65200  0.04730  Biso   1.000  H
  H4       1.0000 0.44740  0.34800  0.95270  Biso   1.000  H
  C7       1.0000 0.35720  0.68630  0.02900  Biso   1.000  C
  C8       1.0000 0.64280  0.31370  0.97100  Biso   1.000  C
  C9       1.0000 0.34940  0.72040  0.91200  Biso   1.000  C
  C10      1.0000 0.65060  0.27960  0.08800  Biso   1.000  C
  C11      1.0000 0.24620  0.68720  0.08280  Biso   1.000  C
  C12      1.0000 0.75380  0.31280  0.91720  Biso   1.000  C
  H5       1.0000 0.16950  0.71890  0.05240  Biso   1.000  H
  H6       1.0000 0.83050  0.28110  0.94760  Biso   1.000  H
  C13      1.0000 0.24730  0.64170  0.18060  Biso   1.000  C
  C14      1.0000 0.75270  0.35830  0.81940  Biso   1.000  C
  H7       1.0000 0.16960  0.63990  0.21490  Biso   1.000  H
  H8       1.0000 0.83040  0.36010  0.78510  Biso   1.000  H
  C15      1.0000 0.18080  0.03680  0.99530  Biso   1.000  C
  C16      1.0000 0.81920  0.96320  0.00470  Biso   1.000  C
  H9       1.0000 0.19830  0.97830  0.03540  Biso   1.000  H
  H10      1.0000 0.80170  0.02170  0.96460  Biso   1.000  H
  C17      1.0000 0.14340  0.15360  0.06810  Biso   1.000  C
  C18      1.0000 0.85660  0.84640  0.93190  Biso   1.000  C
  H11      1.0000 0.13590  0.17290  0.15580  Biso   1.000  H
  H12      1.0000 0.86410  0.82710  0.84420  Biso   1.000  H
  C19      1.0000 0.11830  0.23810  0.01220  Biso   1.000  C
  C20      1.0000 0.88170  0.76190  0.98780  Biso   1.000  C
  H13      1.0000 0.09210  0.31630  0.06020  Biso   1.000  H
  H14      1.0000 0.90790  0.68370  0.93980  Biso   1.000  H
  C21      1.0000 0.13130  0.20950  0.88260  Biso   1.000  C
  C22      1.0000 0.86870  0.79050  0.11740  Biso   1.000  C
  C23      1.0000 0.16900  0.09130  0.81710  Biso   1.000  C
  C24      1.0000 0.83100  0.90870  0.18290  Biso   1.000  C
  C25      1.0000 0.11410  0.29500  0.81630  Biso   1.000  C
  C26      1.0000 0.88590  0.70500  0.18370  Biso   1.000  C
  H15      1.0000 0.08800  0.37490  0.85880  Biso   1.000  H
  H16      1.0000 0.91200  0.62510  0.14120  Biso   1.000  H
  C27      1.0000 0.13450  0.26380  0.69410  Biso   1.000  C
  C28      1.0000 0.86550  0.73620  0.30590  Biso   1.000  C
  H17      1.0000 0.12100  0.32130  0.65200  Biso   1.000  H
  H18      1.0000 0.87900  0.67870  0.34800  Biso   1.000  H
  C29      1.0000 0.17620  0.14490  0.62750  Biso   1.000  C
  C30      1.0000 0.82380  0.85510  0.37250  Biso   1.000  C
  C31      1.0000 0.18960  0.05750  0.68780  Biso   1.000  C
  C32      1.0000 0.81040  0.94250  0.31220  Biso   1.000  C
  C33      1.0000 0.20870  0.11120  0.50610  Biso   1.000  C
  C34      1.0000 0.79130  0.88880  0.49390  Biso   1.000  C
  H19      1.0000 0.20260  0.16730  0.46130  Biso   1.000  H
  H20      1.0000 0.79740  0.83270  0.53870  Biso   1.000  H
  C35      1.0000 0.24940  0.99570  0.45340  Biso   1.000  C
  C36      1.0000 0.75060  0.00430  0.54660  Biso   1.000  C
  H21      1.0000 0.27320  0.97240  0.37240  Biso   1.000  H
  H22      1.0000 0.72680  0.02760  0.62760  Biso   1.000  H
  C37      1.0000 0.25590  0.91240  0.51850  Biso   1.000  C
  C38      1.0000 0.74410  0.08760  0.48150  Biso   1.000  C
  H23      1.0000 0.28170  0.83170  0.47910  Biso   1.000  H
  H24      1.0000 0.71830  0.16830  0.52090  Biso   1.000  H
