data_image0
_cell_length_a       8.3457
_cell_length_b       9.6129
_cell_length_c       9.8367
_cell_angle_alpha    86.356
_cell_angle_beta     84.54
_cell_angle_gamma    88.73

_symmetry_space_group_name_H-M    "P 1"
_symmetry_int_tables_number       1

loop_
  _symmetry_equiv_pos_as_xyz
  'x, y, z'

loop_
  _atom_site_label
  _atom_site_occupancy
  _atom_site_fract_x
  _atom_site_fract_y
  _atom_site_fract_z
  _atom_site_thermal_displace_type
  _atom_site_B_iso_or_equiv
  _atom_site_type_symbol
  Cu1      1.0000 0.50000  0.50000  0.50000  Biso   1.000  Cu
  Cu2      1.0000 0.85673  0.53351  0.73028  Biso   1.000  Cu
  Cu3      1.0000 0.14327  0.46649  0.26972  Biso   1.000  Cu
  P1       1.0000 0.84367  0.34301  0.47058  Biso   1.000  P
  P2       1.0000 0.15633  0.65699  0.52942  Biso   1.000  P
  O1       1.0000 0.88470  0.38292  0.61011  Biso   1.000  O
  O2       1.0000 0.11530  0.61708  0.38989  Biso   1.000  O
  O3       1.0000 0.98560  0.34555  0.36146  Biso   1.000  O
  O4       1.0000 0.01440  0.65445  0.63854  Biso   1.000  O
  O5       1.0000 0.69940  0.42308  0.41871  Biso   1.000  O
  O6       1.0000 0.30060  0.57692  0.58129  Biso   1.000  O
  O7       1.0000 0.65160  0.66242  0.64763  Biso   1.000  O
  O8       1.0000 0.34840  0.33758  0.35237  Biso   1.000  O
  O9       1.0000 0.57750  0.68622  0.43598  Biso   1.000  O
  O10      1.0000 0.42250  0.31378  0.56402  Biso   1.000  O
  N1       1.0000 0.87550  0.63180  0.90560  Biso   1.000  N
  N2       1.0000 0.12450  0.36820  0.09440  Biso   1.000  N
  N3       1.0000 0.71000  0.41520  0.86410  Biso   1.000  N
  N4       1.0000 0.29000  0.58480  0.13590  Biso   1.000  N
  C1       1.0000 0.79100  0.16020  0.49120  Biso   1.000  C
  C2       1.0000 0.20900  0.83980  0.50880  Biso   1.000  C
  C3       1.0000 0.71930  0.10030  0.38730  Biso   1.000  C
  C4       1.0000 0.28070  0.89970  0.61270  Biso   1.000  C
  H1       1.0000 0.70130  0.15420  0.30820  Biso   1.000  H
  H2       1.0000 0.29870  0.84580  0.69180  Biso   1.000  H
  C5       1.0000 0.67430  0.96120  0.39980  Biso   1.000  C
  C6       1.0000 0.32570  0.03880  0.60020  Biso   1.000  C
  H3       1.0000 0.62660  0.92300  0.32930  Biso   1.000  H
  H4       1.0000 0.37340  0.07700  0.67070  Biso   1.000  H
  C7       1.0000 0.70060  0.87910  0.51790  Biso   1.000  C
  C8       1.0000 0.29940  0.12090  0.48210  Biso   1.000  C
  C9       1.0000 0.77450  0.93720  0.62110  Biso   1.000  C
  C10      1.0000 0.22550  0.06280  0.37890  Biso   1.000  C
  H5       1.0000 0.79380  0.88290  0.69960  Biso   1.000  H
  H6       1.0000 0.20620  0.11710  0.30040  Biso   1.000  H
  C11      1.0000 0.81990  0.07610  0.60760  Biso   1.000  C
  C12      1.0000 0.18010  0.92390  0.39240  Biso   1.000  C
  H7       1.0000 0.87010  0.11350  0.67710  Biso   1.000  H
  H8       1.0000 0.12990  0.88650  0.32290  Biso   1.000  H
  C13      1.0000 0.64140  0.73230  0.53600  Biso   1.000  C
  C14      1.0000 0.35860  0.26770  0.46400  Biso   1.000  C
  C15      1.0000 0.96260  0.74540  0.91630  Biso   1.000  C
  C16      1.0000 0.03740  0.25460  0.08370  Biso   1.000  C
  H9       1.0000 0.01490  0.78840  0.83760  Biso   1.000  H
  H10      1.0000 0.98510  0.21160  0.16240  Biso   1.000  H
  C17      1.0000 0.97690  0.80050  0.04120  Biso   1.000  C
  C18      1.0000 0.02310  0.19950  0.95880  Biso   1.000  C
  H11      1.0000 0.03750  0.87980  0.04590  Biso   1.000  H
  H12      1.0000 0.96250  0.12020  0.95410  Biso   1.000  H
  C19      1.0000 0.89990  0.73620  0.15910  Biso   1.000  C
  C20      1.0000 0.10010  0.26380  0.84090  Biso   1.000  C
  H13      1.0000 0.90800  0.77200  0.24370  Biso   1.000  H
  H14      1.0000 0.09200  0.22800  0.75630  Biso   1.000  H
  C21      1.0000 0.81100  0.61820  0.14930  Biso   1.000  C
  C22      1.0000 0.18900  0.38180  0.85070  Biso   1.000  C
  H15      1.0000 0.75950  0.57260  0.22710  Biso   1.000  H
  H16      1.0000 0.24050  0.42740  0.77290  Biso   1.000  H
  C23      1.0000 0.80040  0.56920  0.02000  Biso   1.000  C
  C24      1.0000 0.19960  0.43080  0.98000  Biso   1.000  C
  C25      1.0000 0.70710  0.44540  0.99730  Biso   1.000  C
  C26      1.0000 0.29290  0.55460  0.00270  Biso   1.000  C
  C27      1.0000 0.62070  0.36680  0.10100  Biso   1.000  C
  C28      1.0000 0.37930  0.63320  0.89900  Biso   1.000  C
  H17      1.0000 0.61990  0.38950  0.19160  Biso   1.000  H
  H18      1.0000 0.38010  0.61050  0.80840  Biso   1.000  H
  C29      1.0000 0.53520  0.25350  0.06720  Biso   1.000  C
  C30      1.0000 0.46480  0.74650  0.93280  Biso   1.000  C
  H19      1.0000 0.47690  0.19880  0.13510  Biso   1.000  H
  H20      1.0000 0.52310  0.80120  0.86490  Biso   1.000  H
  C31      1.0000 0.53800  0.22330  0.93120  Biso   1.000  C
  C32      1.0000 0.46200  0.77670  0.06880  Biso   1.000  C
  H21      1.0000 0.48160  0.14790  0.90670  Biso   1.000  H
  H22      1.0000 0.51840  0.85210  0.09330  Biso   1.000  H
  C33      1.0000 0.62610  0.30680  0.83200  Biso   1.000  C
  C34      1.0000 0.37390  0.69320  0.16800  Biso   1.000  C
  H23      1.0000 0.62690  0.28680  0.74070  Biso   1.000  H
  H24      1.0000 0.37310  0.71320  0.25930  Biso   1.000  H
