data_image0
_cell_length_a       10.2042
_cell_length_b       6.9866
_cell_length_c       24.8482
_cell_angle_alpha    90
_cell_angle_beta     90.929
_cell_angle_gamma    90

_symmetry_space_group_name_H-M    "P 1"
_symmetry_int_tables_number       1

loop_
  _symmetry_equiv_pos_as_xyz
  'x, y, z'

loop_
  _atom_site_label
  _atom_site_occupancy
  _atom_site_fract_x
  _atom_site_fract_y
  _atom_site_fract_z
  _atom_site_thermal_displace_type
  _atom_site_B_iso_or_equiv
  _atom_site_type_symbol
  Cu1      1.0000 0.29716  0.66772  0.12915  Biso   1.000  Cu
  Cu2      1.0000 0.70284  0.16772  0.37085  Biso   1.000  Cu
  Cu3      1.0000 0.70284  0.33228  0.87085  Biso   1.000  Cu
  Cu4      1.0000 0.29716  0.83228  0.62915  Biso   1.000  Cu
  P1       1.0000 0.37184  0.54038  0.25186  Biso   1.000  P
  P2       1.0000 0.62816  0.04038  0.24814  Biso   1.000  P
  P3       1.0000 0.62816  0.45962  0.74814  Biso   1.000  P
  P4       1.0000 0.37184  0.95962  0.75186  Biso   1.000  P
  O1       1.0000 0.34188  0.32180  0.25567  Biso   1.000  O
  O2       1.0000 0.65812  0.82180  0.24433  Biso   1.000  O
  O3       1.0000 0.65812  0.67820  0.74433  Biso   1.000  O
  O4       1.0000 0.34188  0.17820  0.75567  Biso   1.000  O
  H1       1.0000 0.40070  0.26120  0.24140  Biso   1.000  H
  H2       1.0000 0.59930  0.76120  0.25860  Biso   1.000  H
  H3       1.0000 0.59930  0.73880  0.75860  Biso   1.000  H
  H4       1.0000 0.40070  0.23880  0.74140  Biso   1.000  H
  O5       1.0000 0.38829  0.60360  0.19454  Biso   1.000  O
  O6       1.0000 0.61171  0.10360  0.30546  Biso   1.000  O
  O7       1.0000 0.61171  0.39640  0.80546  Biso   1.000  O
  O8       1.0000 0.38829  0.89640  0.69454  Biso   1.000  O
  O9       1.0000 0.48850  0.59670  0.28624  Biso   1.000  O
  O10      1.0000 0.51150  0.09670  0.21376  Biso   1.000  O
  O11      1.0000 0.51150  0.40330  0.71376  Biso   1.000  O
  O12      1.0000 0.48850  0.90330  0.78624  Biso   1.000  O
  O13      1.0000 0.30356  0.97350  0.15053  Biso   1.000  O
  O14      1.0000 0.69644  0.47350  0.34947  Biso   1.000  O
  O15      1.0000 0.69644  0.02650  0.84947  Biso   1.000  O
  O16      1.0000 0.30356  0.52650  0.65053  Biso   1.000  O
  O17      1.0000 0.87680  0.08880  0.34676  Biso   1.000  O
  O18      1.0000 0.12320  0.58880  0.15324  Biso   1.000  O
  O19      1.0000 0.12320  0.91120  0.65324  Biso   1.000  O
  O20      1.0000 0.87680  0.41120  0.84676  Biso   1.000  O
  O21      1.0000 0.81796  0.80800  0.38048  Biso   1.000  O
  O22      1.0000 0.18204  0.30800  0.11952  Biso   1.000  O
  O23      1.0000 0.18204  0.19200  0.61952  Biso   1.000  O
  O24      1.0000 0.81796  0.69200  0.88048  Biso   1.000  O
  C1       1.0000 0.11420  0.72070  0.03233  Biso   1.000  C
  C2       1.0000 0.88580  0.22070  0.46767  Biso   1.000  C
  C3       1.0000 0.88580  0.27930  0.96767  Biso   1.000  C
  C4       1.0000 0.11420  0.77930  0.53233  Biso   1.000  C
  H5       1.0000 0.04460  0.70420  0.05560  Biso   1.000  H
  H6       1.0000 0.95540  0.20420  0.44440  Biso   1.000  H
  H7       1.0000 0.95540  0.29580  0.94440  Biso   1.000  H
  H8       1.0000 0.04460  0.79580  0.55560  Biso   1.000  H
  C5       1.0000 0.70700  0.71720  0.08564  Biso   1.000  C
  C6       1.0000 0.29300  0.21720  0.41436  Biso   1.000  C
  C7       1.0000 0.29300  0.28280  0.91436  Biso   1.000  C
  C8       1.0000 0.70700  0.78280  0.58564  Biso   1.000  C
  H9       1.0000 0.78900  0.71490  0.10250  Biso   1.000  H
  H10      1.0000 0.21100  0.21490  0.39750  Biso   1.000  H
  H11      1.0000 0.21100  0.28510  0.89750  Biso   1.000  H
  H12      1.0000 0.78900  0.78510  0.60250  Biso   1.000  H
  C9       1.0000 0.55130  0.77700  0.95016  Biso   1.000  C
  C10      1.0000 0.44870  0.27700  0.54984  Biso   1.000  C
  C11      1.0000 0.44870  0.22300  0.04984  Biso   1.000  C
  C12      1.0000 0.55130  0.72300  0.45016  Biso   1.000  C
  H13      1.0000 0.62280  0.78920  0.92770  Biso   1.000  H
  H14      1.0000 0.37720  0.28920  0.57230  Biso   1.000  H
  H15      1.0000 0.37720  0.21080  0.07230  Biso   1.000  H
  H16      1.0000 0.62280  0.71080  0.42770  Biso   1.000  H
  C13      1.0000 0.42960  0.78700  0.92900  Biso   1.000  C
  C14      1.0000 0.57040  0.28700  0.57100  Biso   1.000  C
  C15      1.0000 0.57040  0.21300  0.07100  Biso   1.000  C
  C16      1.0000 0.42960  0.71300  0.42900  Biso   1.000  C
  H17      1.0000 0.41860  0.80710  0.89220  Biso   1.000  H
  H18      1.0000 0.58140  0.30710  0.60780  Biso   1.000  H
  H19      1.0000 0.58140  0.19290  0.10780  Biso   1.000  H
  H20      1.0000 0.41860  0.69290  0.39220  Biso   1.000  H
  C17      1.0000 0.18700  0.77620  0.94335  Biso   1.000  C
  C18      1.0000 0.81300  0.27620  0.55665  Biso   1.000  C
  C19      1.0000 0.81300  0.22380  0.05665  Biso   1.000  C
  C20      1.0000 0.18700  0.72380  0.44335  Biso   1.000  C
  H21      1.0000 0.16950  0.79780  0.90700  Biso   1.000  H
  H22      1.0000 0.83050  0.29780  0.59300  Biso   1.000  H
  H23      1.0000 0.83050  0.20220  0.09300  Biso   1.000  H
  H24      1.0000 0.16950  0.70220  0.40700  Biso   1.000  H
  C21      1.0000 0.31590  0.76710  0.96206  Biso   1.000  C
  C22      1.0000 0.68410  0.26710  0.53794  Biso   1.000  C
  C23      1.0000 0.68410  0.23290  0.03794  Biso   1.000  C
  C24      1.0000 0.31590  0.73290  0.46206  Biso   1.000  C
  C25      1.0000 0.59340  0.69390  0.11598  Biso   1.000  C
  C26      1.0000 0.40660  0.19390  0.38402  Biso   1.000  C
  C27      1.0000 0.40660  0.30610  0.88402  Biso   1.000  C
  C28      1.0000 0.59340  0.80610  0.61598  Biso   1.000  C
  H25      1.0000 0.60140  0.67630  0.15300  Biso   1.000  H
  H26      1.0000 0.39860  0.17630  0.34700  Biso   1.000  H
  H27      1.0000 0.39860  0.32370  0.84700  Biso   1.000  H
  H28      1.0000 0.60140  0.82370  0.65300  Biso   1.000  H
  C29      1.0000 0.46430  0.72640  0.03966  Biso   1.000  C
  C30      1.0000 0.53570  0.22640  0.46034  Biso   1.000  C
  C31      1.0000 0.53570  0.27360  0.96034  Biso   1.000  C
  C32      1.0000 0.46430  0.77360  0.53966  Biso   1.000  C
  C33      1.0000 0.69720  0.74300  0.03156  Biso   1.000  C
  C34      1.0000 0.30280  0.24300  0.46844  Biso   1.000  C
  C35      1.0000 0.30280  0.25700  0.96844  Biso   1.000  C
  C36      1.0000 0.69720  0.75700  0.53156  Biso   1.000  C
  H29      1.0000 0.77230  0.75720  0.01130  Biso   1.000  H
  H30      1.0000 0.22770  0.25720  0.48870  Biso   1.000  H
  H31      1.0000 0.22770  0.24280  0.98870  Biso   1.000  H
  H32      1.0000 0.77230  0.74280  0.51130  Biso   1.000  H
  C37      1.0000 0.57320  0.74810  0.00648  Biso   1.000  C
  C38      1.0000 0.42680  0.24810  0.49352  Biso   1.000  C
  C39      1.0000 0.42680  0.25190  0.99352  Biso   1.000  C
  C40      1.0000 0.57320  0.75190  0.50648  Biso   1.000  C
  C41      1.0000 0.33510  0.73560  0.01735  Biso   1.000  C
  C42      1.0000 0.66490  0.23560  0.48265  Biso   1.000  C
  C43      1.0000 0.66490  0.26440  0.98265  Biso   1.000  C
  C44      1.0000 0.33510  0.76440  0.51735  Biso   1.000  C
  C45      1.0000 0.22670  0.64580  0.28007  Biso   1.000  C
  C46      1.0000 0.77330  0.14580  0.21993  Biso   1.000  C
  C47      1.0000 0.77330  0.35420  0.71993  Biso   1.000  C
  C48      1.0000 0.22670  0.85420  0.78007  Biso   1.000  C
  C49      1.0000 0.08660  0.75380  0.97775  Biso   1.000  C
  C50      1.0000 0.91340  0.25380  0.52225  Biso   1.000  C
  C51      1.0000 0.91340  0.24620  0.02225  Biso   1.000  C
  C52      1.0000 0.08660  0.74620  0.47775  Biso   1.000  C
  H33      1.0000 0.00040  0.76030  0.96530  Biso   1.000  H
  H34      1.0000 0.99960  0.26030  0.53470  Biso   1.000  H
  H35      1.0000 0.99960  0.23970  0.03470  Biso   1.000  H
  H36      1.0000 0.00040  0.73970  0.46530  Biso   1.000  H
  C53      1.0000 0.21830  0.84360  0.28428  Biso   1.000  C
  C54      1.0000 0.78170  0.34360  0.21572  Biso   1.000  C
  C55      1.0000 0.78170  0.15640  0.71572  Biso   1.000  C
  C56      1.0000 0.21830  0.65640  0.78428  Biso   1.000  C
  H37      1.0000 0.28680  0.91960  0.27230  Biso   1.000  H
  H38      1.0000 0.71320  0.41960  0.22770  Biso   1.000  H
  H39      1.0000 0.71320  0.08040  0.72770  Biso   1.000  H
  H40      1.0000 0.28680  0.58040  0.77230  Biso   1.000  H
  C57      1.0000 0.12350  0.53490  0.29808  Biso   1.000  C
  C58      1.0000 0.87650  0.03490  0.20192  Biso   1.000  C
  C59      1.0000 0.87650  0.46510  0.70192  Biso   1.000  C
  C60      1.0000 0.12350  0.96510  0.79808  Biso   1.000  C
  H41      1.0000 0.12700  0.40240  0.29470  Biso   1.000  H
  H42      1.0000 0.87300  0.90240  0.20530  Biso   1.000  H
  H43      1.0000 0.87300  0.59760  0.70530  Biso   1.000  H
  H44      1.0000 0.12700  0.09760  0.79470  Biso   1.000  H
  C61      1.0000 0.01480  0.62030  0.32117  Biso   1.000  C
  C62      1.0000 0.98520  0.12030  0.17883  Biso   1.000  C
  C63      1.0000 0.98520  0.37970  0.67883  Biso   1.000  C
  C64      1.0000 0.01480  0.87970  0.82117  Biso   1.000  C
  H45      1.0000 0.94680  0.54450  0.33360  Biso   1.000  H
  H46      1.0000 0.05320  0.04450  0.16640  Biso   1.000  H
  H47      1.0000 0.05320  0.45550  0.66640  Biso   1.000  H
  H48      1.0000 0.94680  0.95550  0.83360  Biso   1.000  H
  C65      1.0000 0.10840  0.92840  0.30619  Biso   1.000  C
  C66      1.0000 0.89160  0.42840  0.19381  Biso   1.000  C
  C67      1.0000 0.89160  0.07160  0.69381  Biso   1.000  C
  C68      1.0000 0.10840  0.57160  0.80619  Biso   1.000  C
  H49      1.0000 0.10270  0.06110  0.30780  Biso   1.000  H
  H50      1.0000 0.89730  0.56110  0.19220  Biso   1.000  H
  H51      1.0000 0.89730  0.93890  0.69220  Biso   1.000  H
  H52      1.0000 0.10270  0.43890  0.80780  Biso   1.000  H
  C69      1.0000 0.89200  0.90920  0.35282  Biso   1.000  C
  C70      1.0000 0.10800  0.40920  0.14718  Biso   1.000  C
  C71      1.0000 0.10800  0.09080  0.64718  Biso   1.000  C
  C72      1.0000 0.89200  0.59080  0.85282  Biso   1.000  C
  C73      1.0000 0.00720  0.81790  0.32571  Biso   1.000  C
  C74      1.0000 0.99280  0.31790  0.17429  Biso   1.000  C
  C75      1.0000 0.99280  0.18210  0.67429  Biso   1.000  C
  C76      1.0000 0.00720  0.68210  0.82571  Biso   1.000  C
  N1       1.0000 0.47500  0.69630  0.09330  Biso   1.000  N
  N2       1.0000 0.52500  0.19630  0.40670  Biso   1.000  N
  N3       1.0000 0.52500  0.30370  0.90670  Biso   1.000  N
  N4       1.0000 0.47500  0.80370  0.59330  Biso   1.000  N
  N5       1.0000 0.23540  0.71180  0.05216  Biso   1.000  N
  N6       1.0000 0.76460  0.21180  0.44784  Biso   1.000  N
  N7       1.0000 0.76460  0.28820  0.94784  Biso   1.000  N
  N8       1.0000 0.23540  0.78820  0.55216  Biso   1.000  N
  H53      1.0000 0.35580  0.00570  0.16650  Biso   1.000  H
  H54      1.0000 0.64420  0.50570  0.33350  Biso   1.000  H
  H55      1.0000 0.64420  0.99430  0.83350  Biso   1.000  H
  H56      1.0000 0.35580  0.49430  0.66650  Biso   1.000  H
  H57      1.0000 0.27360  0.05880  0.14300  Biso   1.000  H
  H58      1.0000 0.72640  0.55880  0.35700  Biso   1.000  H
  H59      1.0000 0.72640  0.94120  0.85700  Biso   1.000  H
  H60      1.0000 0.27360  0.44120  0.64300  Biso   1.000  H
