data_image0
_cell_length_a       9.5163
_cell_length_b       9.6165
_cell_length_c       10.8843
_cell_angle_alpha    112.039
_cell_angle_beta     95.432
_cell_angle_gamma    110.893

_symmetry_space_group_name_H-M    "P 1"
_symmetry_int_tables_number       1

loop_
  _symmetry_equiv_pos_as_xyz
  'x, y, z'

loop_
  _atom_site_label
  _atom_site_occupancy
  _atom_site_fract_x
  _atom_site_fract_y
  _atom_site_fract_z
  _atom_site_thermal_displace_type
  _atom_site_B_iso_or_equiv
  _atom_site_type_symbol
  Cu1      1.0000 0.61585  0.13053  0.25245  Biso   1.000  Cu
  Cu2      1.0000 0.38415  0.86947  0.74755  Biso   1.000  Cu
  V1       1.0000 0.85098  0.46418  0.27530  Biso   1.000  V
  V2       1.0000 0.14902  0.53582  0.72470  Biso   1.000  V
  P1       1.0000 0.00490  0.29928  0.39838  Biso   1.000  P
  P2       1.0000 0.99510  0.70072  0.60162  Biso   1.000  P
  O1       1.0000 0.02660  0.44050  0.35400  Biso   1.000  O
  O2       1.0000 0.97340  0.55950  0.64600  Biso   1.000  O
  O3       1.0000 0.12040  0.37320  0.53870  Biso   1.000  O
  O4       1.0000 0.87960  0.62680  0.46130  Biso   1.000  O
  O5       1.0000 0.83730  0.20170  0.38880  Biso   1.000  O
  O6       1.0000 0.16270  0.79830  0.61120  Biso   1.000  O
  O7       1.0000 0.32000  0.94810  0.91440  Biso   1.000  O
  O8       1.0000 0.68000  0.05190  0.08560  Biso   1.000  O
  O9       1.0000 0.13580  0.71180  0.89850  Biso   1.000  O
  O10      1.0000 0.86420  0.28820  0.10150  Biso   1.000  O
  O11      1.0000 0.87270  0.58960  0.20660  Biso   1.000  O
  O12      1.0000 0.12730  0.41040  0.79340  Biso   1.000  O
  O13      1.0000 0.66080  0.34740  0.24570  Biso   1.000  O
  O14      1.0000 0.33920  0.65260  0.75430  Biso   1.000  O
  N1       1.0000 0.51020  0.17830  0.40020  Biso   1.000  N
  N2       1.0000 0.48980  0.82170  0.59980  Biso   1.000  N
  N3       1.0000 0.47180  0.89710  0.20960  Biso   1.000  N
  N4       1.0000 0.52820  0.10290  0.79040  Biso   1.000  N
  C1       1.0000 0.07220  0.16560  0.27830  Biso   1.000  C
  C2       1.0000 0.92780  0.83440  0.72170  Biso   1.000  C
  C3       1.0000 0.20330  0.23770  0.23750  Biso   1.000  C
  C4       1.0000 0.79670  0.76230  0.76250  Biso   1.000  C
  H1       1.0000 0.25910  0.35240  0.27880  Biso   1.000  H
  H2       1.0000 0.74090  0.64760  0.72120  Biso   1.000  H
  C5       1.0000 0.25090  0.14090  0.13670  Biso   1.000  C
  C6       1.0000 0.74910  0.85910  0.86330  Biso   1.000  C
  H3       1.0000 0.33840  0.19100  0.11080  Biso   1.000  H
  H4       1.0000 0.66160  0.80900  0.88920  Biso   1.000  H
  C7       1.0000 0.16850  0.96790  0.07300  Biso   1.000  C
  C8       1.0000 0.83150  0.03210  0.92700  Biso   1.000  C
  C9       1.0000 0.21220  0.86780  0.95360  Biso   1.000  C
  C10      1.0000 0.78780  0.13220  0.04640  Biso   1.000  C
  C11      1.0000 0.04170  0.89460  0.11700  Biso   1.000  C
  C12      1.0000 0.95830  0.10540  0.88300  Biso   1.000  C
  H5       1.0000 0.98880  0.77980  0.07860  Biso   1.000  H
  H6       1.0000 0.01120  0.22020  0.92140  Biso   1.000  H
  C13      1.0000 0.99360  0.99310  0.21860  Biso   1.000  C
  C14      1.0000 0.00640  0.00690  0.78140  Biso   1.000  C
  H7       1.0000 0.90830  0.94330  0.24690  Biso   1.000  H
  H8       1.0000 0.09170  0.05670  0.75310  Biso   1.000  H
  C15      1.0000 0.54090  0.33060  0.49510  Biso   1.000  C
  C16      1.0000 0.45910  0.66940  0.50490  Biso   1.000  C
  H9       1.0000 0.62190  0.42170  0.49690  Biso   1.000  H
  H10      1.0000 0.37810  0.57830  0.50310  Biso   1.000  H
  C17      1.0000 0.45460  0.35560  0.59070  Biso   1.000  C
  C18      1.0000 0.54540  0.64440  0.40930  Biso   1.000  C
  H11      1.0000 0.47680  0.46220  0.65500  Biso   1.000  H
  H12      1.0000 0.52320  0.53780  0.34500  Biso   1.000  H
  C19      1.0000 0.33560  0.22010  0.58900  Biso   1.000  C
  C20      1.0000 0.66440  0.77990  0.41100  Biso   1.000  C
  H13      1.0000 0.27610  0.23460  0.65170  Biso   1.000  H
  H14      1.0000 0.72390  0.76540  0.34830  Biso   1.000  H
  C21      1.0000 0.30560  0.06200  0.49270  Biso   1.000  C
  C22      1.0000 0.69440  0.93800  0.50730  Biso   1.000  C
  H15      1.0000 0.22720  0.96910  0.49110  Biso   1.000  H
  H16      1.0000 0.77280  0.03090  0.50890  Biso   1.000  H
  C23      1.0000 0.39490  0.04560  0.39930  Biso   1.000  C
  C24      1.0000 0.60510  0.95440  0.60070  Biso   1.000  C
  C25      1.0000 0.37280  0.88430  0.29030  Biso   1.000  C
  C26      1.0000 0.62720  0.11570  0.70970  Biso   1.000  C
  C27      1.0000 0.25980  0.73400  0.27030  Biso   1.000  C
  C28      1.0000 0.74020  0.26600  0.72970  Biso   1.000  C
  H17      1.0000 0.19350  0.72870  0.32760  Biso   1.000  H
  H18      1.0000 0.80650  0.27130  0.67240  Biso   1.000  H
  C29      1.0000 0.24740  0.59090  0.16240  Biso   1.000  C
  C30      1.0000 0.75260  0.40910  0.83760  Biso   1.000  C
  H19      1.0000 0.17070  0.48820  0.14540  Biso   1.000  H
  H20      1.0000 0.82930  0.51180  0.85460  Biso   1.000  H
  C31      1.0000 0.34980  0.60200  0.08060  Biso   1.000  C
  C32      1.0000 0.65020  0.39800  0.91940  Biso   1.000  C
  H21      1.0000 0.34450  0.50720  0.00930  Biso   1.000  H
  H22      1.0000 0.65550  0.49280  0.99070  Biso   1.000  H
  C33      1.0000 0.46050  0.75760  0.10750  Biso   1.000  C
  C34      1.0000 0.53950  0.24240  0.89250  Biso   1.000  C
  H23      1.0000 0.52950  0.76560  0.05280  Biso   1.000  H
  H24      1.0000 0.47050  0.23440  0.94720  Biso   1.000  H
