data_image0
_cell_length_a       10.1801
_cell_length_b       6.9427
_cell_length_c       24.8006
_cell_angle_alpha    90
_cell_angle_beta     91.265
_cell_angle_gamma    90

_symmetry_space_group_name_H-M    "P 1"
_symmetry_int_tables_number       1

loop_
  _symmetry_equiv_pos_as_xyz
  'x, y, z'

loop_
  _atom_site_label
  _atom_site_occupancy
  _atom_site_fract_x
  _atom_site_fract_y
  _atom_site_fract_z
  _atom_site_thermal_displace_type
  _atom_site_B_iso_or_equiv
  _atom_site_type_symbol
  Cu1      1.0000 0.20191  0.83209  0.37163  Biso   1.000  Cu
  Cu2      1.0000 0.79809  0.33209  0.12837  Biso   1.000  Cu
  Cu3      1.0000 0.79809  0.16791  0.62837  Biso   1.000  Cu
  Cu4      1.0000 0.20191  0.66791  0.87163  Biso   1.000  Cu
  P1       1.0000 0.12818  0.96041  0.24828  Biso   1.000  P
  P2       1.0000 0.87182  0.46041  0.25172  Biso   1.000  P
  P3       1.0000 0.87182  0.03959  0.75172  Biso   1.000  P
  P4       1.0000 0.12818  0.53959  0.74828  Biso   1.000  P
  O1       1.0000 0.01104  0.90360  0.21301  Biso   1.000  O
  O2       1.0000 0.98896  0.40360  0.28699  Biso   1.000  O
  O3       1.0000 0.98896  0.09640  0.78699  Biso   1.000  O
  O4       1.0000 0.01104  0.59640  0.71301  Biso   1.000  O
  O5       1.0000 0.11045  0.89690  0.30593  Biso   1.000  O
  O6       1.0000 0.88955  0.39690  0.19407  Biso   1.000  O
  O7       1.0000 0.88955  0.10310  0.69407  Biso   1.000  O
  O8       1.0000 0.11045  0.60310  0.80593  Biso   1.000  O
  O9       1.0000 0.15880  0.18090  0.24472  Biso   1.000  O
  O10      1.0000 0.84120  0.68090  0.25528  Biso   1.000  O
  O11      1.0000 0.84120  0.81910  0.75528  Biso   1.000  O
  O12      1.0000 0.15880  0.31910  0.74472  Biso   1.000  O
  O13      1.0000 0.68230  0.69290  0.11954  Biso   1.000  O
  O14      1.0000 0.31770  0.19290  0.38046  Biso   1.000  O
  O15      1.0000 0.31770  0.30710  0.88046  Biso   1.000  O
  O16      1.0000 0.68230  0.80710  0.61954  Biso   1.000  O
  O17      1.0000 0.62348  0.40920  0.15273  Biso   1.000  O
  O18      1.0000 0.37652  0.90920  0.34727  Biso   1.000  O
  O19      1.0000 0.37652  0.59080  0.84727  Biso   1.000  O
  O20      1.0000 0.62348  0.09080  0.65273  Biso   1.000  O
  O21      1.0000 0.19800  0.52820  0.34897  Biso   1.000  O
  O22      1.0000 0.80200  0.02820  0.15103  Biso   1.000  O
  O23      1.0000 0.80200  0.47180  0.65103  Biso   1.000  O
  O24      1.0000 0.19800  0.97180  0.84897  Biso   1.000  O
  N1       1.0000 0.26380  0.79080  0.44922  Biso   1.000  N
  N2       1.0000 0.73620  0.29080  0.05078  Biso   1.000  N
  N3       1.0000 0.73620  0.20920  0.55078  Biso   1.000  N
  N4       1.0000 0.26380  0.70920  0.94922  Biso   1.000  N
  N5       1.0000 0.02350  0.80220  0.40646  Biso   1.000  N
  N6       1.0000 0.97650  0.30220  0.09354  Biso   1.000  N
  N7       1.0000 0.97650  0.19780  0.59354  Biso   1.000  N
  N8       1.0000 0.02350  0.69780  0.90646  Biso   1.000  N
  C1       1.0000 0.27350  0.85510  0.22050  Biso   1.000  C
  C2       1.0000 0.72650  0.35510  0.27950  Biso   1.000  C
  C3       1.0000 0.72650  0.14490  0.77950  Biso   1.000  C
  C4       1.0000 0.27350  0.64490  0.72050  Biso   1.000  C
  C5       1.0000 0.37770  0.96640  0.20310  Biso   1.000  C
  C6       1.0000 0.62230  0.46640  0.29690  Biso   1.000  C
  C7       1.0000 0.62230  0.03360  0.79690  Biso   1.000  C
  C8       1.0000 0.37770  0.53360  0.70310  Biso   1.000  C
  H1       1.0000 0.37450  0.10240  0.20710  Biso   1.000  H
  H2       1.0000 0.62550  0.60240  0.29290  Biso   1.000  H
  H3       1.0000 0.62550  0.89760  0.79290  Biso   1.000  H
  H4       1.0000 0.37450  0.39760  0.70710  Biso   1.000  H
  C9       1.0000 0.48700  0.88160  0.17980  Biso   1.000  C
  C10      1.0000 0.51300  0.38160  0.32020  Biso   1.000  C
  C11      1.0000 0.51300  0.11840  0.82020  Biso   1.000  C
  C12      1.0000 0.48700  0.61840  0.67980  Biso   1.000  C
  H5       1.0000 0.55680  0.95980  0.16750  Biso   1.000  H
  H6       1.0000 0.44320  0.45980  0.33250  Biso   1.000  H
  H7       1.0000 0.44320  0.04020  0.83250  Biso   1.000  H
  H8       1.0000 0.55680  0.54020  0.66750  Biso   1.000  H
  C13      1.0000 0.49370  0.68230  0.17464  Biso   1.000  C
  C14      1.0000 0.50630  0.18230  0.32536  Biso   1.000  C
  C15      1.0000 0.50630  0.31770  0.82536  Biso   1.000  C
  C16      1.0000 0.49370  0.81770  0.67464  Biso   1.000  C
  C17      1.0000 0.60860  0.59050  0.14697  Biso   1.000  C
  C18      1.0000 0.39140  0.09050  0.35303  Biso   1.000  C
  C19      1.0000 0.39140  0.40950  0.85303  Biso   1.000  C
  C20      1.0000 0.60860  0.90950  0.64697  Biso   1.000  C
  C21      1.0000 0.39180  0.56900  0.19399  Biso   1.000  C
  C22      1.0000 0.60820  0.06900  0.30601  Biso   1.000  C
  C23      1.0000 0.60820  0.43100  0.80601  Biso   1.000  C
  C24      1.0000 0.39180  0.93100  0.69399  Biso   1.000  C
  H9       1.0000 0.39790  0.43260  0.19210  Biso   1.000  H
  H10      1.0000 0.60210  0.93260  0.30790  Biso   1.000  H
  H11      1.0000 0.60210  0.56740  0.80790  Biso   1.000  H
  H12      1.0000 0.39790  0.06740  0.69210  Biso   1.000  H
  C25      1.0000 0.28170  0.65360  0.21606  Biso   1.000  C
  C26      1.0000 0.71830  0.15360  0.28394  Biso   1.000  C
  C27      1.0000 0.71830  0.34640  0.78394  Biso   1.000  C
  C28      1.0000 0.28170  0.84640  0.71606  Biso   1.000  C
  H13      1.0000 0.21180  0.57520  0.22820  Biso   1.000  H
  H14      1.0000 0.78820  0.07520  0.27180  Biso   1.000  H
  H15      1.0000 0.78820  0.42480  0.77180  Biso   1.000  H
  H16      1.0000 0.21180  0.92480  0.72820  Biso   1.000  H
  C29      1.0000 0.38600  0.78380  0.46933  Biso   1.000  C
  C30      1.0000 0.61400  0.28380  0.03067  Biso   1.000  C
  C31      1.0000 0.61400  0.21620  0.53067  Biso   1.000  C
  C32      1.0000 0.38600  0.71620  0.96933  Biso   1.000  C
  H17      1.0000 0.45710  0.80150  0.44570  Biso   1.000  H
  H18      1.0000 0.54290  0.30150  0.05430  Biso   1.000  H
  H19      1.0000 0.54290  0.19850  0.55430  Biso   1.000  H
  H20      1.0000 0.45710  0.69850  0.94570  Biso   1.000  H
  C33      1.0000 0.41360  0.75130  0.52431  Biso   1.000  C
  C34      1.0000 0.58640  0.25130  0.97569  Biso   1.000  C
  C35      1.0000 0.58640  0.24870  0.47569  Biso   1.000  C
  C36      1.0000 0.41360  0.74870  0.02431  Biso   1.000  C
  H21      1.0000 0.50200  0.74640  0.53740  Biso   1.000  H
  H22      1.0000 0.49800  0.24640  0.96260  Biso   1.000  H
  H23      1.0000 0.49800  0.25360  0.46260  Biso   1.000  H
  H24      1.0000 0.50200  0.75360  0.03740  Biso   1.000  H
  C37      1.0000 0.31140  0.72660  0.55917  Biso   1.000  C
  C38      1.0000 0.68860  0.22660  0.94083  Biso   1.000  C
  C39      1.0000 0.68860  0.27340  0.44083  Biso   1.000  C
  C40      1.0000 0.31140  0.77340  0.05917  Biso   1.000  C
  H25      1.0000 0.32890  0.70380  0.59640  Biso   1.000  H
  H26      1.0000 0.67110  0.20380  0.90360  Biso   1.000  H
  H27      1.0000 0.67110  0.29620  0.40360  Biso   1.000  H
  H28      1.0000 0.32890  0.79620  0.09640  Biso   1.000  H
  C41      1.0000 0.18150  0.73540  0.53929  Biso   1.000  C
  C42      1.0000 0.81850  0.23540  0.96071  Biso   1.000  C
  C43      1.0000 0.81850  0.26460  0.46071  Biso   1.000  C
  C44      1.0000 0.18150  0.76460  0.03929  Biso   1.000  C
  C45      1.0000 0.16300  0.76650  0.48360  Biso   1.000  C
  C46      1.0000 0.83700  0.26650  0.01640  Biso   1.000  C
  C47      1.0000 0.83700  0.23350  0.51640  Biso   1.000  C
  C48      1.0000 0.16300  0.73350  0.98360  Biso   1.000  C
  C49      1.0000 0.06800  0.71480  0.57239  Biso   1.000  C
  C50      1.0000 0.93200  0.21480  0.92761  Biso   1.000  C
  C51      1.0000 0.93200  0.28520  0.42761  Biso   1.000  C
  C52      1.0000 0.06800  0.78520  0.07239  Biso   1.000  C
  H29      1.0000 0.07940  0.69620  0.61020  Biso   1.000  H
  H30      1.0000 0.92060  0.19620  0.88980  Biso   1.000  H
  H31      1.0000 0.92060  0.30380  0.38980  Biso   1.000  H
  H32      1.0000 0.07940  0.80380  0.11020  Biso   1.000  H
  C53      1.0000 0.94530  0.72150  0.55040  Biso   1.000  C
  C54      1.0000 0.05470  0.22150  0.94960  Biso   1.000  C
  C55      1.0000 0.05470  0.27850  0.44960  Biso   1.000  C
  C56      1.0000 0.94530  0.77850  0.05040  Biso   1.000  C
  H33      1.0000 0.87180  0.70740  0.57300  Biso   1.000  H
  H34      1.0000 0.12820  0.20740  0.92700  Biso   1.000  H
  H35      1.0000 0.12820  0.29260  0.42700  Biso   1.000  H
  H36      1.0000 0.87180  0.79260  0.07300  Biso   1.000  H
  C57      1.0000 0.92390  0.74950  0.49344  Biso   1.000  C
  C58      1.0000 0.07610  0.24950  0.00656  Biso   1.000  C
  C59      1.0000 0.07610  0.25050  0.50656  Biso   1.000  C
  C60      1.0000 0.92390  0.75050  0.99344  Biso   1.000  C
  C61      1.0000 0.03280  0.77350  0.46066  Biso   1.000  C
  C62      1.0000 0.96720  0.27350  0.03934  Biso   1.000  C
  C63      1.0000 0.96720  0.22650  0.53934  Biso   1.000  C
  C64      1.0000 0.03280  0.72650  0.96066  Biso   1.000  C
  C65      1.0000 0.79920  0.75370  0.46777  Biso   1.000  C
  C66      1.0000 0.20080  0.25370  0.03223  Biso   1.000  C
  C67      1.0000 0.20080  0.24630  0.53223  Biso   1.000  C
  C68      1.0000 0.79920  0.74630  0.96777  Biso   1.000  C
  H37      1.0000 0.72200  0.74000  0.48830  Biso   1.000  H
  H38      1.0000 0.27800  0.24000  0.01170  Biso   1.000  H
  H39      1.0000 0.27800  0.26000  0.51170  Biso   1.000  H
  H40      1.0000 0.72200  0.76000  0.98830  Biso   1.000  H
  C69      1.0000 0.79000  0.77790  0.41291  Biso   1.000  C
  C70      1.0000 0.21000  0.27790  0.08709  Biso   1.000  C
  C71      1.0000 0.21000  0.22210  0.58709  Biso   1.000  C
  C72      1.0000 0.79000  0.72210  0.91291  Biso   1.000  C
  H41      1.0000 0.70640  0.77810  0.39510  Biso   1.000  H
  H42      1.0000 0.29360  0.27810  0.10490  Biso   1.000  H
  H43      1.0000 0.29360  0.22190  0.60490  Biso   1.000  H
  H44      1.0000 0.70640  0.72190  0.89510  Biso   1.000  H
  C73      1.0000 0.90460  0.80230  0.38312  Biso   1.000  C
  C74      1.0000 0.09540  0.30230  0.11688  Biso   1.000  C
  C75      1.0000 0.09540  0.19770  0.61688  Biso   1.000  C
  C76      1.0000 0.90460  0.69770  0.88312  Biso   1.000  C
  H45      1.0000 0.89690  0.81950  0.34520  Biso   1.000  H
  H46      1.0000 0.10310  0.31950  0.15480  Biso   1.000  H
  H47      1.0000 0.10310  0.18050  0.65480  Biso   1.000  H
  H48      1.0000 0.89690  0.68050  0.84520  Biso   1.000  H
  H49      1.0000 0.11300  0.23300  0.25580  Biso   1.000  H
  H50      1.0000 0.88700  0.73300  0.24420  Biso   1.000  H
  H51      1.0000 0.88700  0.76700  0.74420  Biso   1.000  H
  H52      1.0000 0.11300  0.26700  0.75580  Biso   1.000  H
  H53      1.0000 0.13700  0.50000  0.33000  Biso   1.000  H
  H54      1.0000 0.86300  0.00000  0.17000  Biso   1.000  H
  H55      1.0000 0.86300  0.50000  0.67000  Biso   1.000  H
  H56      1.0000 0.13700  0.00000  0.83000  Biso   1.000  H
  H57      1.0000 0.23400  0.43600  0.35840  Biso   1.000  H
  H58      1.0000 0.76600  0.93600  0.14160  Biso   1.000  H
  H59      1.0000 0.76600  0.56400  0.64160  Biso   1.000  H
  H60      1.0000 0.23400  0.06400  0.85840  Biso   1.000  H
