data_image0
_cell_length_a       8.379
_cell_length_b       9.639
_cell_length_c       9.845
_cell_angle_alpha    86.109
_cell_angle_beta     84.481
_cell_angle_gamma    89.695

_symmetry_space_group_name_H-M    "P 1"
_symmetry_int_tables_number       1

loop_
  _symmetry_equiv_pos_as_xyz
  'x, y, z'

loop_
  _atom_site_label
  _atom_site_occupancy
  _atom_site_fract_x
  _atom_site_fract_y
  _atom_site_fract_z
  _atom_site_thermal_displace_type
  _atom_site_B_iso_or_equiv
  _atom_site_type_symbol
  Cu1      1.0000 0.50000  0.50000  0.50000  Biso   1.000  Cu
  O1       1.0000 0.65570  0.66250  0.64780  Biso   1.000  O
  O2       1.0000 0.34430  0.33750  0.35220  Biso   1.000  O
  O3       1.0000 0.69700  0.42170  0.42020  Biso   1.000  O
  O4       1.0000 0.30300  0.57830  0.57980  Biso   1.000  O
  Cu2      1.0000 0.85812  0.53106  0.72939  Biso   1.000  Cu
  Cu3      1.0000 0.14188  0.46894  0.27061  Biso   1.000  Cu
  P1       1.0000 0.84080  0.34421  0.47018  Biso   1.000  P
  P2       1.0000 0.15920  0.65579  0.52982  Biso   1.000  P
  N1       1.0000 0.70860  0.41320  0.86350  Biso   1.000  N
  N2       1.0000 0.29140  0.58680  0.13650  Biso   1.000  N
  O5       1.0000 0.88380  0.38260  0.60840  Biso   1.000  O
  O6       1.0000 0.11620  0.61740  0.39160  Biso   1.000  O
  O7       1.0000 0.97970  0.35020  0.36070  Biso   1.000  O
  O8       1.0000 0.02030  0.64980  0.63930  Biso   1.000  O
  N3       1.0000 0.87710  0.62970  0.90380  Biso   1.000  N
  N4       1.0000 0.12290  0.37030  0.09620  Biso   1.000  N
  C1       1.0000 0.78980  0.16220  0.49090  Biso   1.000  C
  C2       1.0000 0.21020  0.83780  0.50910  Biso   1.000  C
  C3       1.0000 0.70410  0.44490  0.99480  Biso   1.000  C
  C4       1.0000 0.29590  0.55510  0.00520  Biso   1.000  C
  C5       1.0000 0.62620  0.30350  0.83220  Biso   1.000  C
  C6       1.0000 0.37380  0.69650  0.16780  Biso   1.000  C
  C7       1.0000 0.96420  0.74190  0.91430  Biso   1.000  C
  C8       1.0000 0.03580  0.25810  0.08570  Biso   1.000  C
  C9       1.0000 0.79940  0.56350  0.01850  Biso   1.000  C
  C10      1.0000 0.20060  0.43650  0.98150  Biso   1.000  C
  C11      1.0000 0.82310  0.07620  0.60450  Biso   1.000  C
  C12      1.0000 0.17690  0.92380  0.39550  Biso   1.000  C
  C13      1.0000 0.71460  0.10100  0.38760  Biso   1.000  C
  C14      1.0000 0.28540  0.89900  0.61240  Biso   1.000  C
  C15      1.0000 0.61840  0.36630  0.09700  Biso   1.000  C
  C16      1.0000 0.38160  0.63370  0.90300  Biso   1.000  C
  C17      1.0000 0.53860  0.22060  0.93080  Biso   1.000  C
  C18      1.0000 0.46140  0.77940  0.06920  Biso   1.000  C
  H1       1.0000 0.62820  0.28280  0.74120  Biso   1.000  H
  H2       1.0000 0.37180  0.71720  0.25880  Biso   1.000  H
  C19      1.0000 0.97490  0.79710  0.03840  Biso   1.000  C
  C20      1.0000 0.02510  0.20290  0.96160  Biso   1.000  C
  H3       1.0000 0.01940  0.78440  0.83610  Biso   1.000  H
  H4       1.0000 0.98060  0.21560  0.16390  Biso   1.000  H
  C21      1.0000 0.81230  0.61430  0.14650  Biso   1.000  C
  C22      1.0000 0.18770  0.38570  0.85350  Biso   1.000  C
  C23      1.0000 0.77910  0.93820  0.61730  Biso   1.000  C
  C24      1.0000 0.22090  0.06180  0.38270  Biso   1.000  C
  H5       1.0000 0.87610  0.11270  0.67270  Biso   1.000  H
  H6       1.0000 0.12390  0.88730  0.32730  Biso   1.000  H
  C25      1.0000 0.67330  0.96090  0.40300  Biso   1.000  C
  C26      1.0000 0.32670  0.03910  0.59700  Biso   1.000  C
  H7       1.0000 0.69270  0.15430  0.30930  Biso   1.000  H
  H8       1.0000 0.30730  0.84570  0.69070  Biso   1.000  H
  H9       1.0000 0.61630  0.39010  0.18710  Biso   1.000  H
  H10      1.0000 0.38370  0.60990  0.81290  Biso   1.000  H
  C27      1.0000 0.53430  0.25060  0.06600  Biso   1.000  C
  C28      1.0000 0.46570  0.74940  0.93400  Biso   1.000  C
  H11      1.0000 0.48240  0.14450  0.90640  Biso   1.000  H
  H12      1.0000 0.51760  0.85550  0.09360  Biso   1.000  H
  H13      1.0000 0.03440  0.87760  0.04280  Biso   1.000  H
  H14      1.0000 0.96560  0.12240  0.95720  Biso   1.000  H
  C29      1.0000 0.89880  0.73440  0.15510  Biso   1.000  C
  C30      1.0000 0.10120  0.26560  0.84490  Biso   1.000  C
  H15      1.0000 0.76320  0.56780  0.22520  Biso   1.000  H
  H16      1.0000 0.23680  0.43220  0.77480  Biso   1.000  H
  C31      1.0000 0.70360  0.87770  0.51820  Biso   1.000  C
  C32      1.0000 0.29640  0.12230  0.48180  Biso   1.000  C
  H17      1.0000 0.80100  0.88430  0.69530  Biso   1.000  H
  H18      1.0000 0.19900  0.11570  0.30470  Biso   1.000  H
  H19      1.0000 0.62400  0.92190  0.33400  Biso   1.000  H
  H20      1.0000 0.37600  0.07810  0.66600  Biso   1.000  H
  H21      1.0000 0.47680  0.19510  0.13450  Biso   1.000  H
  H22      1.0000 0.52320  0.80490  0.86550  Biso   1.000  H
  H23      1.0000 0.90510  0.77200  0.23900  Biso   1.000  H
  H24      1.0000 0.09490  0.22800  0.76100  Biso   1.000  H
  C33      1.0000 0.64720  0.73170  0.53710  Biso   1.000  C
  C34      1.0000 0.35280  0.26830  0.46290  Biso   1.000  C
  O9       1.0000 0.58330  0.68500  0.43700  Biso   1.000  O
  O10      1.0000 0.41670  0.31500  0.56300  Biso   1.000  O
