data_image0
_cell_length_a       22.607
_cell_length_b       12.3933
_cell_length_c       6.6018
_cell_angle_alpha    90
_cell_angle_beta     90
_cell_angle_gamma    90

_symmetry_space_group_name_H-M    "P 1"
_symmetry_int_tables_number       1

loop_
  _symmetry_equiv_pos_as_xyz
  'x, y, z'

loop_
  _atom_site_label
  _atom_site_occupancy
  _atom_site_fract_x
  _atom_site_fract_y
  _atom_site_fract_z
  _atom_site_thermal_displace_type
  _atom_site_B_iso_or_equiv
  _atom_site_type_symbol
  Cu1      1.0000 0.17348  0.65496  0.44627  Biso   1.000  Cu
  Cu2      1.0000 0.82652  0.34504  0.94627  Biso   1.000  Cu
  Cu3      1.0000 0.67348  0.84504  0.44627  Biso   1.000  Cu
  Cu4      1.0000 0.32652  0.15496  0.94627  Biso   1.000  Cu
  V1       1.0000 0.02198  0.04365  0.07284  Biso   1.000  V
  V2       1.0000 0.97802  0.95635  0.57284  Biso   1.000  V
  V3       1.0000 0.52198  0.45635  0.07284  Biso   1.000  V
  V4       1.0000 0.47802  0.54365  0.57284  Biso   1.000  V
  P1       1.0000 0.06982  0.82840  0.29211  Biso   1.000  P
  P2       1.0000 0.93018  0.17160  0.79211  Biso   1.000  P
  P3       1.0000 0.56982  0.67160  0.29211  Biso   1.000  P
  P4       1.0000 0.43018  0.32840  0.79211  Biso   1.000  P
  O1       1.0000 0.06948  0.91600  0.12530  Biso   1.000  O
  O2       1.0000 0.93052  0.08400  0.62530  Biso   1.000  O
  O3       1.0000 0.56948  0.58400  0.12530  Biso   1.000  O
  O4       1.0000 0.43052  0.41600  0.62530  Biso   1.000  O
  O5       1.0000 0.12989  0.77850  0.30880  Biso   1.000  O
  O6       1.0000 0.87011  0.22150  0.80880  Biso   1.000  O
  O7       1.0000 0.62989  0.72150  0.30880  Biso   1.000  O
  O8       1.0000 0.37011  0.27850  0.80880  Biso   1.000  O
  O9       1.0000 0.04847  0.87480  0.49560  Biso   1.000  O
  O10      1.0000 0.95153  0.12520  0.99560  Biso   1.000  O
  O11      1.0000 0.54847  0.62520  0.49560  Biso   1.000  O
  O12      1.0000 0.45153  0.37480  0.99560  Biso   1.000  O
  O13      1.0000 0.87890  0.46880  0.86210  Biso   1.000  O
  O14      1.0000 0.12110  0.53120  0.36210  Biso   1.000  O
  O15      1.0000 0.37890  0.03120  0.86210  Biso   1.000  O
  O16      1.0000 0.62110  0.96880  0.36210  Biso   1.000  O
  O17      1.0000 0.87695  0.41200  0.17630  Biso   1.000  O
  O18      1.0000 0.12305  0.58800  0.67630  Biso   1.000  O
  O19      1.0000 0.37695  0.08800  0.17630  Biso   1.000  O
  O20      1.0000 0.62305  0.91200  0.67630  Biso   1.000  O
  O21      1.0000 0.06824  0.13870  0.12760  Biso   1.000  O
  O22      1.0000 0.93176  0.86130  0.62760  Biso   1.000  O
  O23      1.0000 0.56824  0.36130  0.12760  Biso   1.000  O
  O24      1.0000 0.43176  0.63870  0.62760  Biso   1.000  O
  O25      1.0000 0.97027  0.99990  0.29490  Biso   1.000  O
  O26      1.0000 0.02973  0.00010  0.79490  Biso   1.000  O
  O27      1.0000 0.47027  0.50010  0.29490  Biso   1.000  O
  O28      1.0000 0.52973  0.49990  0.79490  Biso   1.000  O
  N1       1.0000 0.24109  0.62310  0.26480  Biso   1.000  N
  N2       1.0000 0.75891  0.37690  0.76480  Biso   1.000  N
  N3       1.0000 0.74109  0.87690  0.26480  Biso   1.000  N
  N4       1.0000 0.25891  0.12310  0.76480  Biso   1.000  N
  N5       1.0000 0.31303  0.69410  0.49000  Biso   1.000  N
  N6       1.0000 0.68697  0.30590  0.99000  Biso   1.000  N
  N7       1.0000 0.81303  0.80590  0.49000  Biso   1.000  N
  N8       1.0000 0.18697  0.19410  0.99000  Biso   1.000  N
  N9       1.0000 0.22084  0.74490  0.62530  Biso   1.000  N
  N10      1.0000 0.77916  0.25510  0.12530  Biso   1.000  N
  N11      1.0000 0.72084  0.75510  0.62530  Biso   1.000  N
  N12      1.0000 0.27916  0.24490  0.12530  Biso   1.000  N
  C1       1.0000 0.01627  0.72860  0.21720  Biso   1.000  C
  C2       1.0000 0.98373  0.27140  0.71720  Biso   1.000  C
  C3       1.0000 0.51627  0.77140  0.21720  Biso   1.000  C
  C4       1.0000 0.48373  0.22860  0.71720  Biso   1.000  C
  C5       1.0000 0.00500  0.70800  0.01210  Biso   1.000  C
  C6       1.0000 0.99500  0.29200  0.51210  Biso   1.000  C
  C7       1.0000 0.50500  0.79200  0.01210  Biso   1.000  C
  C8       1.0000 0.49500  0.20800  0.51210  Biso   1.000  C
  H1       1.0000 0.02410  0.74940  0.91020  Biso   1.000  H
  H2       1.0000 0.97590  0.25060  0.41020  Biso   1.000  H
  H3       1.0000 0.52410  0.75060  0.91020  Biso   1.000  H
  H4       1.0000 0.47590  0.24940  0.41020  Biso   1.000  H
  C9       1.0000 0.96580  0.62660  0.95900  Biso   1.000  C
  C10      1.0000 0.03420  0.37340  0.45900  Biso   1.000  C
  C11      1.0000 0.46580  0.87340  0.95900  Biso   1.000  C
  C12      1.0000 0.53420  0.12660  0.45900  Biso   1.000  C
  H5       1.0000 0.95820  0.61300  0.81980  Biso   1.000  H
  H6       1.0000 0.04180  0.38700  0.31980  Biso   1.000  H
  H7       1.0000 0.45820  0.88700  0.81980  Biso   1.000  H
  H8       1.0000 0.54180  0.11300  0.31980  Biso   1.000  H
  C13      1.0000 0.93750  0.56480  0.10430  Biso   1.000  C
  C14      1.0000 0.06250  0.43520  0.60430  Biso   1.000  C
  C15      1.0000 0.43750  0.93520  0.10430  Biso   1.000  C
  C16      1.0000 0.56250  0.06480  0.60430  Biso   1.000  C
  C17      1.0000 0.89660  0.47760  0.04500  Biso   1.000  C
  C18      1.0000 0.10340  0.52240  0.54500  Biso   1.000  C
  C19      1.0000 0.39660  0.02240  0.04500  Biso   1.000  C
  C20      1.0000 0.60340  0.97760  0.54500  Biso   1.000  C
  C21      1.0000 0.94890  0.58480  0.31080  Biso   1.000  C
  C22      1.0000 0.05110  0.41520  0.81080  Biso   1.000  C
  C23      1.0000 0.44890  0.91520  0.31080  Biso   1.000  C
  C24      1.0000 0.55110  0.08480  0.81080  Biso   1.000  C
  H9       1.0000 0.93000  0.54290  0.41260  Biso   1.000  H
  H10      1.0000 0.07000  0.45710  0.91260  Biso   1.000  H
  H11      1.0000 0.43000  0.95710  0.41260  Biso   1.000  H
  H12      1.0000 0.57000  0.04290  0.91260  Biso   1.000  H
  C25      1.0000 0.98820  0.66660  0.36390  Biso   1.000  C
  C26      1.0000 0.01180  0.33340  0.86390  Biso   1.000  C
  C27      1.0000 0.48820  0.83340  0.36390  Biso   1.000  C
  C28      1.0000 0.51180  0.16660  0.86390  Biso   1.000  C
  H13      1.0000 0.99590  0.68030  0.50300  Biso   1.000  H
  H14      1.0000 0.00410  0.31970  0.00300  Biso   1.000  H
  H15      1.0000 0.49590  0.81970  0.50300  Biso   1.000  H
  H16      1.0000 0.50410  0.18030  0.00300  Biso   1.000  H
  C29      1.0000 0.22810  0.57340  0.08850  Biso   1.000  C
  C30      1.0000 0.77190  0.42660  0.58850  Biso   1.000  C
  C31      1.0000 0.72810  0.92660  0.08850  Biso   1.000  C
  C32      1.0000 0.27190  0.07340  0.58850  Biso   1.000  C
  H17      1.0000 0.18780  0.56200  0.05430  Biso   1.000  H
  H18      1.0000 0.81220  0.43800  0.55430  Biso   1.000  H
  H19      1.0000 0.68780  0.93800  0.05430  Biso   1.000  H
  H20      1.0000 0.31220  0.06200  0.55430  Biso   1.000  H
  C33      1.0000 0.27110  0.53880  0.95650  Biso   1.000  C
  C34      1.0000 0.72890  0.46120  0.45650  Biso   1.000  C
  C35      1.0000 0.77110  0.96120  0.95650  Biso   1.000  C
  C36      1.0000 0.22890  0.03880  0.45650  Biso   1.000  C
  H21      1.0000 0.26090  0.50280  0.83440  Biso   1.000  H
  H22      1.0000 0.73910  0.49720  0.33440  Biso   1.000  H
  H23      1.0000 0.76090  0.99720  0.83440  Biso   1.000  H
  H24      1.0000 0.23910  0.00280  0.33440  Biso   1.000  H
  C37      1.0000 0.33060  0.55780  0.00660  Biso   1.000  C
  C38      1.0000 0.66940  0.44220  0.50660  Biso   1.000  C
  C39      1.0000 0.83060  0.94220  0.00660  Biso   1.000  C
  C40      1.0000 0.16940  0.05780  0.50660  Biso   1.000  C
  H25      1.0000 0.36130  0.53440  0.91880  Biso   1.000  H
  H26      1.0000 0.63870  0.46560  0.41880  Biso   1.000  H
  H27      1.0000 0.86130  0.96560  0.91880  Biso   1.000  H
  H28      1.0000 0.13870  0.03440  0.41880  Biso   1.000  H
  C41      1.0000 0.34390  0.61040  0.18310  Biso   1.000  C
  C42      1.0000 0.65610  0.38960  0.68310  Biso   1.000  C
  C43      1.0000 0.84390  0.88960  0.18310  Biso   1.000  C
  C44      1.0000 0.15610  0.11040  0.68310  Biso   1.000  C
  H29      1.0000 0.38390  0.62530  0.21780  Biso   1.000  H
  H30      1.0000 0.61610  0.37470  0.71780  Biso   1.000  H
  H31      1.0000 0.88390  0.87470  0.21780  Biso   1.000  H
  H32      1.0000 0.11610  0.12530  0.71780  Biso   1.000  H
  C45      1.0000 0.29770  0.64210  0.31200  Biso   1.000  C
  C46      1.0000 0.70230  0.35790  0.81200  Biso   1.000  C
  C47      1.0000 0.79770  0.85790  0.31200  Biso   1.000  C
  C48      1.0000 0.20230  0.14210  0.81200  Biso   1.000  C
  C49      1.0000 0.28000  0.74690  0.63340  Biso   1.000  C
  C50      1.0000 0.72000  0.25310  0.13340  Biso   1.000  C
  C51      1.0000 0.78000  0.75310  0.63340  Biso   1.000  C
  C52      1.0000 0.22000  0.24690  0.13340  Biso   1.000  C
  C53      1.0000 0.30950  0.80170  0.78970  Biso   1.000  C
  C54      1.0000 0.69050  0.19830  0.28970  Biso   1.000  C
  C55      1.0000 0.80950  0.69830  0.78970  Biso   1.000  C
  C56      1.0000 0.19050  0.30170  0.28970  Biso   1.000  C
  H33      1.0000 0.35150  0.80400  0.79310  Biso   1.000  H
  H34      1.0000 0.64850  0.19600  0.29310  Biso   1.000  H
  H35      1.0000 0.85150  0.69600  0.79310  Biso   1.000  H
  H36      1.0000 0.14850  0.30400  0.29310  Biso   1.000  H
  C57      1.0000 0.27720  0.85180  0.93630  Biso   1.000  C
  C58      1.0000 0.72280  0.14820  0.43630  Biso   1.000  C
  C59      1.0000 0.77720  0.64820  0.93630  Biso   1.000  C
  C60      1.0000 0.22280  0.35180  0.43630  Biso   1.000  C
  H37      1.0000 0.29670  0.88720  0.04480  Biso   1.000  H
  H38      1.0000 0.70330  0.11280  0.54480  Biso   1.000  H
  H39      1.0000 0.79670  0.61280  0.04480  Biso   1.000  H
  H40      1.0000 0.20330  0.38720  0.54480  Biso   1.000  H
  C61      1.0000 0.21520  0.85130  0.92810  Biso   1.000  C
  C62      1.0000 0.78480  0.14870  0.42810  Biso   1.000  C
  C63      1.0000 0.71520  0.64870  0.92810  Biso   1.000  C
  C64      1.0000 0.28480  0.35130  0.42810  Biso   1.000  C
  H41      1.0000 0.19210  0.88660  0.02810  Biso   1.000  H
  H42      1.0000 0.80790  0.11340  0.52810  Biso   1.000  H
  H43      1.0000 0.69210  0.61340  0.02810  Biso   1.000  H
  H44      1.0000 0.30790  0.38660  0.52810  Biso   1.000  H
  C65      1.0000 0.18960  0.79780  0.76990  Biso   1.000  C
  C66      1.0000 0.81040  0.20220  0.26990  Biso   1.000  C
  C67      1.0000 0.68960  0.70220  0.76990  Biso   1.000  C
  C68      1.0000 0.31040  0.29780  0.26990  Biso   1.000  C
  H45      1.0000 0.14770  0.79760  0.76070  Biso   1.000  H
  H46      1.0000 0.85230  0.20240  0.26070  Biso   1.000  H
  H47      1.0000 0.64770  0.70240  0.76070  Biso   1.000  H
  H48      1.0000 0.35230  0.29760  0.26070  Biso   1.000  H
  H49      1.0000 0.35000  0.69900  0.50800  Biso   1.000  H
  H50      1.0000 0.65000  0.30100  0.00800  Biso   1.000  H
  H51      1.0000 0.85000  0.80100  0.50800  Biso   1.000  H
  H52      1.0000 0.15000  0.19900  0.00800  Biso   1.000  H
