data_image0
_cell_length_a       7.0434
_cell_length_b       8.7481
_cell_length_c       13.6485
_cell_angle_alpha    98.392
_cell_angle_beta     92.024
_cell_angle_gamma    97.262

_symmetry_space_group_name_H-M    "P 1"
_symmetry_int_tables_number       1

loop_
  _symmetry_equiv_pos_as_xyz
  'x, y, z'

loop_
  _atom_site_label
  _atom_site_occupancy
  _atom_site_fract_x
  _atom_site_fract_y
  _atom_site_fract_z
  _atom_site_thermal_displace_type
  _atom_site_B_iso_or_equiv
  _atom_site_type_symbol
  Cu1      1.0000 0.17026  0.47240  0.25307  Biso   1.000  Cu
  Cu2      1.0000 0.82974  0.52760  0.74693  Biso   1.000  Cu
  O1       1.0000 0.12060  0.78770  0.37283  Biso   1.000  O
  O2       1.0000 0.87940  0.21230  0.62717  Biso   1.000  O
  O3       1.0000 0.12810  0.14460  0.13022  Biso   1.000  O
  O4       1.0000 0.87190  0.85540  0.86978  Biso   1.000  O
  O5       1.0000 0.84250  0.41530  0.26009  Biso   1.000  O
  O6       1.0000 0.15750  0.58470  0.73991  Biso   1.000  O
  O7       1.0000 0.81190  0.65220  0.23683  Biso   1.000  O
  O8       1.0000 0.18810  0.34780  0.76317  Biso   1.000  O
  O9       1.0000 0.56230  0.48100  0.23719  Biso   1.000  O
  O10      1.0000 0.43770  0.51900  0.76281  Biso   1.000  O
  N1       1.0000 0.24280  0.35400  0.36345  Biso   1.000  N
  N2       1.0000 0.75720  0.64600  0.63655  Biso   1.000  N
  N3       1.0000 0.16960  0.63580  0.36901  Biso   1.000  N
  N4       1.0000 0.83040  0.36420  0.63099  Biso   1.000  N
  N5       1.0000 0.23000  0.60680  0.14598  Biso   1.000  N
  N6       1.0000 0.77000  0.39320  0.85402  Biso   1.000  N
  N7       1.0000 0.15660  0.30750  0.13664  Biso   1.000  N
  N8       1.0000 0.84340  0.69250  0.86336  Biso   1.000  N
  N9       1.0000 0.29260  0.39320  0.53935  Biso   1.000  N
  N10      1.0000 0.70740  0.60680  0.46065  Biso   1.000  N
  N11      1.0000 0.19790  0.69030  0.54317  Biso   1.000  N
  N12      1.0000 0.80210  0.30970  0.45683  Biso   1.000  N
  H1       1.0000 0.18100  0.78000  0.54200  Biso   1.000  H
  H2       1.0000 0.81900  0.22000  0.45800  Biso   1.000  H
  H3       1.0000 0.21900  0.65200  0.59000  Biso   1.000  H
  H4       1.0000 0.78100  0.34800  0.41000  Biso   1.000  H
  N13      1.0000 0.27620  0.57690  0.97286  Biso   1.000  N
  N14      1.0000 0.72380  0.42310  0.02714  Biso   1.000  N
  N15      1.0000 0.19380  0.26070  0.96509  Biso   1.000  N
  N16      1.0000 0.80620  0.73930  0.03491  Biso   1.000  N
  H5       1.0000 0.17200  0.16600  0.96800  Biso   1.000  H
  H6       1.0000 0.82800  0.83400  0.03200  Biso   1.000  H
  H7       1.0000 0.20800  0.30100  0.91800  Biso   1.000  H
  H8       1.0000 0.79200  0.69900  0.08200  Biso   1.000  H
  N17      1.0000 0.73570  0.51670  0.24431  Biso   1.000  N
  N18      1.0000 0.26430  0.48330  0.75569  Biso   1.000  N
  C1       1.0000 0.28500  0.20780  0.35896  Biso   1.000  C
  C2       1.0000 0.71500  0.79220  0.64104  Biso   1.000  C
  H9       1.0000 0.27400  0.14900  0.29400  Biso   1.000  H
  H10      1.0000 0.72600  0.85100  0.70600  Biso   1.000  H
  C3       1.0000 0.32730  0.14850  0.44498  Biso   1.000  C
  C4       1.0000 0.67270  0.85150  0.55502  Biso   1.000  C
  H11      1.0000 0.34800  0.04100  0.44000  Biso   1.000  H
  H12      1.0000 0.65200  0.95900  0.56000  Biso   1.000  H
  C5       1.0000 0.32870  0.24530  0.53388  Biso   1.000  C
  C6       1.0000 0.67130  0.75470  0.46612  Biso   1.000  C
  H13      1.0000 0.35900  0.21100  0.58900  Biso   1.000  H
  H14      1.0000 0.64100  0.78900  0.41100  Biso   1.000  H
  C7       1.0000 0.25110  0.43870  0.45418  Biso   1.000  C
  C8       1.0000 0.74890  0.56130  0.54582  Biso   1.000  C
  C9       1.0000 0.20440  0.60070  0.45635  Biso   1.000  C
  C10      1.0000 0.79560  0.39930  0.54365  Biso   1.000  C
  C11      1.0000 0.27750  0.76120  0.15214  Biso   1.000  C
  C12      1.0000 0.72250  0.23880  0.84786  Biso   1.000  C
  H15      1.0000 0.27800  0.81400  0.21300  Biso   1.000  H
  H16      1.0000 0.72200  0.18600  0.78700  Biso   1.000  H
  C13      1.0000 0.32380  0.82840  0.06940  Biso   1.000  C
  C14      1.0000 0.67620  0.17160  0.93060  Biso   1.000  C
  H17      1.0000 0.36300  0.94300  0.07900  Biso   1.000  H
  H18      1.0000 0.63700  0.05700  0.92100  Biso   1.000  H
  C15      1.0000 0.31990  0.73270  0.98050  Biso   1.000  C
  C16      1.0000 0.68010  0.26730  0.01950  Biso   1.000  C
  H19      1.0000 0.35000  0.77200  0.92500  Biso   1.000  H
  H20      1.0000 0.65000  0.22800  0.07500  Biso   1.000  H
  C17      1.0000 0.23530  0.52340  0.05587  Biso   1.000  C
  C18      1.0000 0.76470  0.47660  0.94413  Biso   1.000  C
  C19      1.0000 0.19250  0.35150  0.05193  Biso   1.000  C
  C20      1.0000 0.80750  0.64850  0.94807  Biso   1.000  C
  H21      1.0000 0.03300  0.77300  0.33300  Biso   1.000  H
  H22      1.0000 0.96700  0.22700  0.66700  Biso   1.000  H
  H23      1.0000 0.03500  0.12900  0.15200  Biso   1.000  H
  H24      1.0000 0.96500  0.87100  0.84800  Biso   1.000  H
  O11      1.0000 0.76480  0.02940  0.16893  Biso   1.000  O
  O12      1.0000 0.23520  0.97060  0.83107  Biso   1.000  O
  O13      1.0000 0.89530  0.02830  0.31190  Biso   1.000  O
  O14      1.0000 0.10470  0.97170  0.68810  Biso   1.000  O
  O15      1.0000 0.59430  0.99530  0.29350  Biso   1.000  O
  O16      1.0000 0.40570  0.00470  0.70650  Biso   1.000  O
  N19      1.0000 0.74900  0.01740  0.25802  Biso   1.000  N
  N20      1.0000 0.25100  0.98260  0.74198  Biso   1.000  N
