data_image0
_cell_length_a       15.754
_cell_length_b       15.754
_cell_length_c       15.754
_cell_angle_alpha    90
_cell_angle_beta     90
_cell_angle_gamma    90

_symmetry_space_group_name_H-M    "P 1"
_symmetry_int_tables_number       1

loop_
  _symmetry_equiv_pos_as_xyz
  'x, y, z'

loop_
  _atom_site_label
  _atom_site_occupancy
  _atom_site_fract_x
  _atom_site_fract_y
  _atom_site_fract_z
  _atom_site_thermal_displace_type
  _atom_site_B_iso_or_equiv
  _atom_site_type_symbol
  Cu1      1.0000 0.50000  0.75000  0.25000  Biso   1.000  Cu
  Cu2      1.0000 0.25000  0.50000  0.75000  Biso   1.000  Cu
  Cu3      1.0000 0.75000  0.25000  0.50000  Biso   1.000  Cu
  Cu4      1.0000 0.25000  0.00000  0.75000  Biso   1.000  Cu
  Cu5      1.0000 0.00000  0.75000  0.25000  Biso   1.000  Cu
  Cu6      1.0000 0.75000  0.25000  0.00000  Biso   1.000  Cu
  Cu7      1.0000 0.00000  0.25000  0.75000  Biso   1.000  Cu
  Cu8      1.0000 0.50000  0.25000  0.75000  Biso   1.000  Cu
  Cu9      1.0000 0.75000  0.00000  0.25000  Biso   1.000  Cu
  Cu10     1.0000 0.75000  0.50000  0.25000  Biso   1.000  Cu
  Cu11     1.0000 0.25000  0.75000  0.00000  Biso   1.000  Cu
  Cu12     1.0000 0.25000  0.75000  0.50000  Biso   1.000  Cu
  N1       1.0000 0.41690  0.81920  0.18920  Biso   1.000  N
  N2       1.0000 0.18920  0.41690  0.81920  Biso   1.000  N
  N3       1.0000 0.81920  0.18920  0.41690  Biso   1.000  N
  N4       1.0000 0.31920  0.91690  0.81080  Biso   1.000  N
  N5       1.0000 0.31920  0.58310  0.68920  Biso   1.000  N
  N6       1.0000 0.18080  0.91690  0.68920  Biso   1.000  N
  N7       1.0000 0.91690  0.68920  0.18080  Biso   1.000  N
  N8       1.0000 0.58310  0.68920  0.31920  Biso   1.000  N
  N9       1.0000 0.91690  0.81080  0.31920  Biso   1.000  N
  N10      1.0000 0.68920  0.31920  0.58310  Biso   1.000  N
  N11      1.0000 0.68920  0.18080  0.91690  Biso   1.000  N
  N12      1.0000 0.81080  0.31920  0.91690  Biso   1.000  N
  N13      1.0000 0.91690  0.31920  0.81080  Biso   1.000  N
  N14      1.0000 0.91690  0.18080  0.68920  Biso   1.000  N
  N15      1.0000 0.58310  0.31920  0.68920  Biso   1.000  N
  N16      1.0000 0.81080  0.91690  0.31920  Biso   1.000  N
  N17      1.0000 0.68920  0.91690  0.18080  Biso   1.000  N
  N18      1.0000 0.68920  0.58310  0.31920  Biso   1.000  N
  N19      1.0000 0.31920  0.81080  0.91690  Biso   1.000  N
  N20      1.0000 0.18080  0.68920  0.91690  Biso   1.000  N
  N21      1.0000 0.31920  0.68920  0.58310  Biso   1.000  N
  N22      1.0000 0.81920  0.41690  0.18920  Biso   1.000  N
  N23      1.0000 0.41690  0.18920  0.81920  Biso   1.000  N
  N24      1.0000 0.18920  0.81920  0.41690  Biso   1.000  N
  N25      1.0000 0.58310  0.18080  0.81080  Biso   1.000  N
  N26      1.0000 0.81080  0.58310  0.18080  Biso   1.000  N
  N27      1.0000 0.18080  0.81080  0.58310  Biso   1.000  N
  N28      1.0000 0.68080  0.08310  0.18920  Biso   1.000  N
  N29      1.0000 0.68080  0.41690  0.31080  Biso   1.000  N
  N30      1.0000 0.81920  0.08310  0.31080  Biso   1.000  N
  N31      1.0000 0.08310  0.31080  0.81920  Biso   1.000  N
  N32      1.0000 0.41690  0.31080  0.68080  Biso   1.000  N
  N33      1.0000 0.08310  0.18920  0.68080  Biso   1.000  N
  N34      1.0000 0.31080  0.68080  0.41690  Biso   1.000  N
  N35      1.0000 0.31080  0.81920  0.08310  Biso   1.000  N
  N36      1.0000 0.18920  0.68080  0.08310  Biso   1.000  N
  N37      1.0000 0.08310  0.68080  0.18920  Biso   1.000  N
  N38      1.0000 0.08310  0.81920  0.31080  Biso   1.000  N
  N39      1.0000 0.41690  0.68080  0.31080  Biso   1.000  N
  N40      1.0000 0.18920  0.08310  0.68080  Biso   1.000  N
  N41      1.0000 0.31080  0.08310  0.81920  Biso   1.000  N
  N42      1.0000 0.31080  0.41690  0.68080  Biso   1.000  N
  N43      1.0000 0.68080  0.18920  0.08310  Biso   1.000  N
  N44      1.0000 0.81920  0.31080  0.08310  Biso   1.000  N
  N45      1.0000 0.68080  0.31080  0.41690  Biso   1.000  N
  N46      1.0000 0.18080  0.58310  0.81080  Biso   1.000  N
  N47      1.0000 0.58310  0.81080  0.18080  Biso   1.000  N
  N48      1.0000 0.81080  0.18080  0.58310  Biso   1.000  N
  C1       1.0000 0.36900  0.77510  0.13100  Biso   1.000  C
  C2       1.0000 0.13100  0.36900  0.77510  Biso   1.000  C
  C3       1.0000 0.77510  0.13100  0.36900  Biso   1.000  C
  C4       1.0000 0.27510  0.86900  0.86900  Biso   1.000  C
  C5       1.0000 0.27510  0.63100  0.63100  Biso   1.000  C
  C6       1.0000 0.22490  0.86900  0.63100  Biso   1.000  C
  C7       1.0000 0.86900  0.63100  0.22490  Biso   1.000  C
  C8       1.0000 0.63100  0.63100  0.27510  Biso   1.000  C
  C9       1.0000 0.86900  0.86900  0.27510  Biso   1.000  C
  C10      1.0000 0.63100  0.27510  0.63100  Biso   1.000  C
  C11      1.0000 0.63100  0.22490  0.86900  Biso   1.000  C
  C12      1.0000 0.86900  0.27510  0.86900  Biso   1.000  C
  C13      1.0000 0.86900  0.22490  0.63100  Biso   1.000  C
  C14      1.0000 0.63100  0.86900  0.22490  Biso   1.000  C
  C15      1.0000 0.22490  0.63100  0.86900  Biso   1.000  C
  C16      1.0000 0.77510  0.36900  0.13100  Biso   1.000  C
  C17      1.0000 0.36900  0.13100  0.77510  Biso   1.000  C
  C18      1.0000 0.13100  0.77510  0.36900  Biso   1.000  C
  C19      1.0000 0.72490  0.13100  0.13100  Biso   1.000  C
  C20      1.0000 0.72490  0.36900  0.36900  Biso   1.000  C
  C21      1.0000 0.36900  0.36900  0.72490  Biso   1.000  C
  C22      1.0000 0.13100  0.13100  0.72490  Biso   1.000  C
  C23      1.0000 0.36900  0.72490  0.36900  Biso   1.000  C
  C24      1.0000 0.13100  0.72490  0.13100  Biso   1.000  C
  C25      1.0000 0.34440  0.94600  0.15560  Biso   1.000  C
  C26      1.0000 0.15560  0.34440  0.94600  Biso   1.000  C
  C27      1.0000 0.94600  0.15560  0.34440  Biso   1.000  C
  C28      1.0000 0.44600  0.84440  0.84440  Biso   1.000  C
  C29      1.0000 0.44600  0.65560  0.65560  Biso   1.000  C
  C30      1.0000 0.05400  0.84440  0.65560  Biso   1.000  C
  C31      1.0000 0.84440  0.65560  0.05400  Biso   1.000  C
  C32      1.0000 0.65560  0.65560  0.44600  Biso   1.000  C
  C33      1.0000 0.84440  0.84440  0.44600  Biso   1.000  C
  C34      1.0000 0.65560  0.44600  0.65560  Biso   1.000  C
  C35      1.0000 0.65560  0.05400  0.84440  Biso   1.000  C
  C36      1.0000 0.84440  0.44600  0.84440  Biso   1.000  C
  C37      1.0000 0.84440  0.05400  0.65560  Biso   1.000  C
  C38      1.0000 0.65560  0.84440  0.05400  Biso   1.000  C
  C39      1.0000 0.05400  0.65560  0.84440  Biso   1.000  C
  C40      1.0000 0.94600  0.34440  0.15560  Biso   1.000  C
  C41      1.0000 0.34440  0.15560  0.94600  Biso   1.000  C
  C42      1.0000 0.15560  0.94600  0.34440  Biso   1.000  C
  C43      1.0000 0.55400  0.15560  0.15560  Biso   1.000  C
  C44      1.0000 0.55400  0.34440  0.34440  Biso   1.000  C
  C45      1.0000 0.34440  0.34440  0.55400  Biso   1.000  C
  C46      1.0000 0.15560  0.15560  0.55400  Biso   1.000  C
  C47      1.0000 0.34440  0.55400  0.34440  Biso   1.000  C
  C48      1.0000 0.15560  0.55400  0.15560  Biso   1.000  C
  C49      1.0000 0.39990  0.89610  0.20580  Biso   1.000  C
  C50      1.0000 0.20580  0.39990  0.89610  Biso   1.000  C
  C51      1.0000 0.89610  0.20580  0.39990  Biso   1.000  C
  C52      1.0000 0.39610  0.89990  0.79420  Biso   1.000  C
  C53      1.0000 0.39610  0.60010  0.70580  Biso   1.000  C
  C54      1.0000 0.10390  0.89990  0.70580  Biso   1.000  C
  C55      1.0000 0.89990  0.70580  0.10390  Biso   1.000  C
  C56      1.0000 0.60010  0.70580  0.39610  Biso   1.000  C
  C57      1.0000 0.89990  0.79420  0.39610  Biso   1.000  C
  C58      1.0000 0.70580  0.39610  0.60010  Biso   1.000  C
  C59      1.0000 0.70580  0.10390  0.89990  Biso   1.000  C
  C60      1.0000 0.79420  0.39610  0.89990  Biso   1.000  C
  C61      1.0000 0.89990  0.39610  0.79420  Biso   1.000  C
  C62      1.0000 0.89990  0.10390  0.70580  Biso   1.000  C
  C63      1.0000 0.60010  0.39610  0.70580  Biso   1.000  C
  C64      1.0000 0.79420  0.89990  0.39610  Biso   1.000  C
  C65      1.0000 0.70580  0.89990  0.10390  Biso   1.000  C
  C66      1.0000 0.70580  0.60010  0.39610  Biso   1.000  C
  C67      1.0000 0.39610  0.79420  0.89990  Biso   1.000  C
  C68      1.0000 0.10390  0.70580  0.89990  Biso   1.000  C
  C69      1.0000 0.39610  0.70580  0.60010  Biso   1.000  C
  C70      1.0000 0.89610  0.39990  0.20580  Biso   1.000  C
  C71      1.0000 0.39990  0.20580  0.89610  Biso   1.000  C
  C72      1.0000 0.20580  0.89610  0.39990  Biso   1.000  C
  C73      1.0000 0.60010  0.10390  0.79420  Biso   1.000  C
  C74      1.0000 0.79420  0.60010  0.10390  Biso   1.000  C
  C75      1.0000 0.10390  0.79420  0.60010  Biso   1.000  C
  C76      1.0000 0.60390  0.10010  0.20580  Biso   1.000  C
  C77      1.0000 0.60390  0.39990  0.29420  Biso   1.000  C
  C78      1.0000 0.89610  0.10010  0.29420  Biso   1.000  C
  C79      1.0000 0.10010  0.29420  0.89610  Biso   1.000  C
  C80      1.0000 0.39990  0.29420  0.60390  Biso   1.000  C
  C81      1.0000 0.10010  0.20580  0.60390  Biso   1.000  C
  C82      1.0000 0.29420  0.60390  0.39990  Biso   1.000  C
  C83      1.0000 0.29420  0.89610  0.10010  Biso   1.000  C
  C84      1.0000 0.20580  0.60390  0.10010  Biso   1.000  C
  C85      1.0000 0.10010  0.60390  0.20580  Biso   1.000  C
  C86      1.0000 0.10010  0.89610  0.29420  Biso   1.000  C
  C87      1.0000 0.39990  0.60390  0.29420  Biso   1.000  C
  C88      1.0000 0.20580  0.10010  0.60390  Biso   1.000  C
  C89      1.0000 0.29420  0.10010  0.89610  Biso   1.000  C
  C90      1.0000 0.29420  0.39990  0.60390  Biso   1.000  C
  C91      1.0000 0.60390  0.20580  0.10010  Biso   1.000  C
  C92      1.0000 0.89610  0.29420  0.10010  Biso   1.000  C
  C93      1.0000 0.60390  0.29420  0.39990  Biso   1.000  C
  C94      1.0000 0.10390  0.60010  0.79420  Biso   1.000  C
  C95      1.0000 0.60010  0.79420  0.10390  Biso   1.000  C
  C96      1.0000 0.79420  0.10390  0.60010  Biso   1.000  C
  O1       1.0000 0.45000  0.92100  0.26900  Biso   1.000  O
  O2       1.0000 0.26900  0.45000  0.92100  Biso   1.000  O
  O3       1.0000 0.92100  0.26900  0.45000  Biso   1.000  O
  O4       1.0000 0.42100  0.95000  0.73100  Biso   1.000  O
  O5       1.0000 0.42100  0.55000  0.76900  Biso   1.000  O
  O6       1.0000 0.07900  0.95000  0.76900  Biso   1.000  O
  O7       1.0000 0.95000  0.76900  0.07900  Biso   1.000  O
  O8       1.0000 0.55000  0.76900  0.42100  Biso   1.000  O
  O9       1.0000 0.95000  0.73100  0.42100  Biso   1.000  O
  O10      1.0000 0.76900  0.42100  0.55000  Biso   1.000  O
  O11      1.0000 0.76900  0.07900  0.95000  Biso   1.000  O
  O12      1.0000 0.73100  0.42100  0.95000  Biso   1.000  O
  O13      1.0000 0.95000  0.42100  0.73100  Biso   1.000  O
  O14      1.0000 0.95000  0.07900  0.76900  Biso   1.000  O
  O15      1.0000 0.55000  0.42100  0.76900  Biso   1.000  O
  O16      1.0000 0.73100  0.95000  0.42100  Biso   1.000  O
  O17      1.0000 0.76900  0.95000  0.07900  Biso   1.000  O
  O18      1.0000 0.76900  0.55000  0.42100  Biso   1.000  O
  O19      1.0000 0.42100  0.73100  0.95000  Biso   1.000  O
  O20      1.0000 0.07900  0.76900  0.95000  Biso   1.000  O
  O21      1.0000 0.42100  0.76900  0.55000  Biso   1.000  O
  O22      1.0000 0.92100  0.45000  0.26900  Biso   1.000  O
  O23      1.0000 0.45000  0.26900  0.92100  Biso   1.000  O
  O24      1.0000 0.26900  0.92100  0.45000  Biso   1.000  O
  O25      1.0000 0.55000  0.07900  0.73100  Biso   1.000  O
  O26      1.0000 0.73100  0.55000  0.07900  Biso   1.000  O
  O27      1.0000 0.07900  0.73100  0.55000  Biso   1.000  O
  O28      1.0000 0.57900  0.05000  0.26900  Biso   1.000  O
  O29      1.0000 0.57900  0.45000  0.23100  Biso   1.000  O
  O30      1.0000 0.92100  0.05000  0.23100  Biso   1.000  O
  O31      1.0000 0.05000  0.23100  0.92100  Biso   1.000  O
  O32      1.0000 0.45000  0.23100  0.57900  Biso   1.000  O
  O33      1.0000 0.05000  0.26900  0.57900  Biso   1.000  O
  O34      1.0000 0.23100  0.57900  0.45000  Biso   1.000  O
  O35      1.0000 0.23100  0.92100  0.05000  Biso   1.000  O
  O36      1.0000 0.26900  0.57900  0.05000  Biso   1.000  O
  O37      1.0000 0.05000  0.57900  0.26900  Biso   1.000  O
  O38      1.0000 0.05000  0.92100  0.23100  Biso   1.000  O
  O39      1.0000 0.45000  0.57900  0.23100  Biso   1.000  O
  O40      1.0000 0.26900  0.05000  0.57900  Biso   1.000  O
  O41      1.0000 0.23100  0.05000  0.92100  Biso   1.000  O
  O42      1.0000 0.23100  0.45000  0.57900  Biso   1.000  O
  O43      1.0000 0.57900  0.26900  0.05000  Biso   1.000  O
  O44      1.0000 0.92100  0.23100  0.05000  Biso   1.000  O
  O45      1.0000 0.57900  0.23100  0.45000  Biso   1.000  O
  O46      1.0000 0.07900  0.55000  0.73100  Biso   1.000  O
  O47      1.0000 0.55000  0.73100  0.07900  Biso   1.000  O
  O48      1.0000 0.73100  0.07900  0.55000  Biso   1.000  O
  O49      1.0000 0.50000  0.87390  0.37390  Biso   1.000  O
  O50      1.0000 0.37390  0.50000  0.87390  Biso   1.000  O
  O51      1.0000 0.87390  0.37390  0.50000  Biso   1.000  O
  O52      1.0000 0.37390  0.00000  0.62610  Biso   1.000  O
  O53      1.0000 0.12610  0.00000  0.87390  Biso   1.000  O
  O54      1.0000 0.00000  0.87390  0.12610  Biso   1.000  O
  O55      1.0000 0.00000  0.62610  0.37390  Biso   1.000  O
  O56      1.0000 0.87390  0.12610  0.00000  Biso   1.000  O
  O57      1.0000 0.62610  0.37390  0.00000  Biso   1.000  O
  O58      1.0000 0.00000  0.37390  0.62610  Biso   1.000  O
  O59      1.0000 0.00000  0.12610  0.87390  Biso   1.000  O
  O60      1.0000 0.50000  0.37390  0.87390  Biso   1.000  O
  O61      1.0000 0.62610  0.00000  0.37390  Biso   1.000  O
  O62      1.0000 0.87390  0.00000  0.12610  Biso   1.000  O
  O63      1.0000 0.87390  0.50000  0.37390  Biso   1.000  O
  O64      1.0000 0.37390  0.62610  0.00000  Biso   1.000  O
  O65      1.0000 0.12610  0.87390  0.00000  Biso   1.000  O
  O66      1.0000 0.37390  0.87390  0.50000  Biso   1.000  O
  O67      1.0000 0.50000  0.12610  0.62610  Biso   1.000  O
  O68      1.0000 0.62610  0.50000  0.12610  Biso   1.000  O
  O69      1.0000 0.12610  0.62610  0.50000  Biso   1.000  O
  O70      1.0000 0.50000  0.62610  0.12610  Biso   1.000  O
  O71      1.0000 0.12610  0.50000  0.62610  Biso   1.000  O
  O72      1.0000 0.62610  0.12610  0.50000  Biso   1.000  O
  O73      1.0000 0.31200  0.18800  0.18800  Biso   1.000  O
  O74      1.0000 0.18800  0.31200  0.18800  Biso   1.000  O
  O75      1.0000 0.18800  0.18800  0.31200  Biso   1.000  O
  O76      1.0000 0.68800  0.81200  0.81200  Biso   1.000  O
  O77      1.0000 0.68800  0.68800  0.68800  Biso   1.000  O
  O78      1.0000 0.81200  0.81200  0.68800  Biso   1.000  O
  O79      1.0000 0.81200  0.68800  0.81200  Biso   1.000  O
  O80      1.0000 0.31200  0.31200  0.31200  Biso   1.000  O
  O81      1.0000 0.45800  0.04200  0.38300  Biso   1.000  O
  O82      1.0000 0.38300  0.45800  0.04200  Biso   1.000  O
  O83      1.0000 0.04200  0.38300  0.45800  Biso   1.000  O
  O84      1.0000 0.54200  0.95800  0.61700  Biso   1.000  O
  O85      1.0000 0.54200  0.54200  0.88300  Biso   1.000  O
  O86      1.0000 0.95800  0.95800  0.88300  Biso   1.000  O
  O87      1.0000 0.95800  0.88300  0.95800  Biso   1.000  O
  O88      1.0000 0.54200  0.88300  0.54200  Biso   1.000  O
  O89      1.0000 0.95800  0.61700  0.54200  Biso   1.000  O
  O90      1.0000 0.88300  0.54200  0.54200  Biso   1.000  O
  O91      1.0000 0.88300  0.95800  0.95800  Biso   1.000  O
  O92      1.0000 0.61700  0.54200  0.95800  Biso   1.000  O
  O93      1.0000 0.95800  0.54200  0.61700  Biso   1.000  O
  O94      1.0000 0.61700  0.95800  0.54200  Biso   1.000  O
  O95      1.0000 0.54200  0.61700  0.95800  Biso   1.000  O
  O96      1.0000 0.04200  0.45800  0.38300  Biso   1.000  O
  O97      1.0000 0.45800  0.38300  0.04200  Biso   1.000  O
  O98      1.0000 0.38300  0.04200  0.45800  Biso   1.000  O
  O99      1.0000 0.45800  0.45800  0.11700  Biso   1.000  O
  O100     1.0000 0.04200  0.04200  0.11700  Biso   1.000  O
  O101     1.0000 0.04200  0.11700  0.04200  Biso   1.000  O
  O102     1.0000 0.45800  0.11700  0.45800  Biso   1.000  O
  O103     1.0000 0.11700  0.45800  0.45800  Biso   1.000  O
  O104     1.0000 0.11700  0.04200  0.04200  Biso   1.000  O
  O105     1.0000 0.55700  0.89200  0.48000  Biso   1.000  O
  O106     1.0000 0.48000  0.55700  0.89200  Biso   1.000  O
  O107     1.0000 0.89200  0.48000  0.55700  Biso   1.000  O
  O108     1.0000 0.39200  0.05700  0.52000  Biso   1.000  O
  O109     1.0000 0.39200  0.44300  0.98000  Biso   1.000  O
  O110     1.0000 0.10800  0.05700  0.98000  Biso   1.000  O
  O111     1.0000 0.05700  0.98000  0.10800  Biso   1.000  O
  O112     1.0000 0.44300  0.98000  0.39200  Biso   1.000  O
  O113     1.0000 0.05700  0.52000  0.39200  Biso   1.000  O
  O114     1.0000 0.98000  0.39200  0.44300  Biso   1.000  O
  O115     1.0000 0.98000  0.10800  0.05700  Biso   1.000  O
  O116     1.0000 0.52000  0.39200  0.05700  Biso   1.000  O
  O117     1.0000 0.05700  0.39200  0.52000  Biso   1.000  O
  O118     1.0000 0.05700  0.10800  0.98000  Biso   1.000  O
  O119     1.0000 0.44300  0.39200  0.98000  Biso   1.000  O
  O120     1.0000 0.52000  0.05700  0.39200  Biso   1.000  O
  O121     1.0000 0.98000  0.05700  0.10800  Biso   1.000  O
  O122     1.0000 0.98000  0.44300  0.39200  Biso   1.000  O
  O123     1.0000 0.39200  0.52000  0.05700  Biso   1.000  O
  O124     1.0000 0.10800  0.98000  0.05700  Biso   1.000  O
  O125     1.0000 0.39200  0.98000  0.44300  Biso   1.000  O
  O126     1.0000 0.89200  0.55700  0.48000  Biso   1.000  O
  O127     1.0000 0.55700  0.48000  0.89200  Biso   1.000  O
  O128     1.0000 0.48000  0.89200  0.55700  Biso   1.000  O
  O129     1.0000 0.44300  0.10800  0.52000  Biso   1.000  O
  O130     1.0000 0.52000  0.44300  0.10800  Biso   1.000  O
  O131     1.0000 0.10800  0.52000  0.44300  Biso   1.000  O
  O132     1.0000 0.60800  0.94300  0.48000  Biso   1.000  O
  O133     1.0000 0.60800  0.55700  0.02000  Biso   1.000  O
  O134     1.0000 0.89200  0.94300  0.02000  Biso   1.000  O
  O135     1.0000 0.94300  0.02000  0.89200  Biso   1.000  O
  O136     1.0000 0.55700  0.02000  0.60800  Biso   1.000  O
  O137     1.0000 0.94300  0.48000  0.60800  Biso   1.000  O
  O138     1.0000 0.02000  0.60800  0.55700  Biso   1.000  O
  O139     1.0000 0.02000  0.89200  0.94300  Biso   1.000  O
  O140     1.0000 0.48000  0.60800  0.94300  Biso   1.000  O
  O141     1.0000 0.94300  0.60800  0.48000  Biso   1.000  O
  O142     1.0000 0.94300  0.89200  0.02000  Biso   1.000  O
  O143     1.0000 0.55700  0.60800  0.02000  Biso   1.000  O
  O144     1.0000 0.48000  0.94300  0.60800  Biso   1.000  O
  O145     1.0000 0.02000  0.94300  0.89200  Biso   1.000  O
  O146     1.0000 0.02000  0.55700  0.60800  Biso   1.000  O
  O147     1.0000 0.60800  0.48000  0.94300  Biso   1.000  O
  O148     1.0000 0.89200  0.02000  0.94300  Biso   1.000  O
  O149     1.0000 0.60800  0.02000  0.55700  Biso   1.000  O
  O150     1.0000 0.10800  0.44300  0.52000  Biso   1.000  O
  O151     1.0000 0.44300  0.52000  0.10800  Biso   1.000  O
  O152     1.0000 0.52000  0.10800  0.44300  Biso   1.000  O
  O153     1.0000 0.39200  0.10800  0.34200  Biso   1.000  O
  O154     1.0000 0.34200  0.39200  0.10800  Biso   1.000  O
  O155     1.0000 0.10800  0.34200  0.39200  Biso   1.000  O
  O156     1.0000 0.60800  0.89200  0.65800  Biso   1.000  O
  O157     1.0000 0.60800  0.60800  0.84200  Biso   1.000  O
  O158     1.0000 0.89200  0.89200  0.84200  Biso   1.000  O
  O159     1.0000 0.89200  0.84200  0.89200  Biso   1.000  O
  O160     1.0000 0.60800  0.84200  0.60800  Biso   1.000  O
  O161     1.0000 0.89200  0.65800  0.60800  Biso   1.000  O
  O162     1.0000 0.84200  0.60800  0.60800  Biso   1.000  O
  O163     1.0000 0.84200  0.89200  0.89200  Biso   1.000  O
  O164     1.0000 0.65800  0.60800  0.89200  Biso   1.000  O
  O165     1.0000 0.89200  0.60800  0.65800  Biso   1.000  O
  O166     1.0000 0.65800  0.89200  0.60800  Biso   1.000  O
  O167     1.0000 0.60800  0.65800  0.89200  Biso   1.000  O
  O168     1.0000 0.10800  0.39200  0.34200  Biso   1.000  O
  O169     1.0000 0.39200  0.34200  0.10800  Biso   1.000  O
  O170     1.0000 0.34200  0.10800  0.39200  Biso   1.000  O
  O171     1.0000 0.39200  0.39200  0.15800  Biso   1.000  O
  O172     1.0000 0.10800  0.10800  0.15800  Biso   1.000  O
  O173     1.0000 0.10800  0.15800  0.10800  Biso   1.000  O
  O174     1.0000 0.39200  0.15800  0.39200  Biso   1.000  O
  O175     1.0000 0.15800  0.39200  0.39200  Biso   1.000  O
  O176     1.0000 0.15800  0.10800  0.10800  Biso   1.000  O
