data_image0
_cell_length_a       18.4609
_cell_length_b       18.6553
_cell_length_c       8.1387
_cell_angle_alpha    90
_cell_angle_beta     90
_cell_angle_gamma    90

_symmetry_space_group_name_H-M    "P 1"
_symmetry_int_tables_number       1

loop_
  _symmetry_equiv_pos_as_xyz
  'x, y, z'

loop_
  _atom_site_label
  _atom_site_occupancy
  _atom_site_fract_x
  _atom_site_fract_y
  _atom_site_fract_z
  _atom_site_thermal_displace_type
  _atom_site_B_iso_or_equiv
  _atom_site_type_symbol
  Cu1      1.0000 0.06924  0.58564  0.20933  Biso   1.000  Cu
  Cu2      1.0000 0.43076  0.91436  0.20933  Biso   1.000  Cu
  Cu3      1.0000 0.93076  0.08564  0.29067  Biso   1.000  Cu
  Cu4      1.0000 0.56924  0.41436  0.29067  Biso   1.000  Cu
  Cu5      1.0000 0.93076  0.41436  0.79067  Biso   1.000  Cu
  Cu6      1.0000 0.56924  0.08564  0.79067  Biso   1.000  Cu
  Cu7      1.0000 0.06924  0.91436  0.70933  Biso   1.000  Cu
  Cu8      1.0000 0.43076  0.58564  0.70933  Biso   1.000  Cu
  Cu9      1.0000 0.50000  0.50000  0.00000  Biso   1.000  Cu
  Cu10     1.0000 0.00000  0.00000  0.00000  Biso   1.000  Cu
  Cu11     1.0000 0.50000  0.00000  0.50000  Biso   1.000  Cu
  Cu12     1.0000 0.00000  0.50000  0.50000  Biso   1.000  Cu
  C1       1.0000 0.21280  0.42153  0.29890  Biso   1.000  C
  C2       1.0000 0.28720  0.07847  0.29890  Biso   1.000  C
  C3       1.0000 0.78720  0.92153  0.20110  Biso   1.000  C
  C4       1.0000 0.71280  0.57847  0.20110  Biso   1.000  C
  C5       1.0000 0.78720  0.57847  0.70110  Biso   1.000  C
  C6       1.0000 0.71280  0.92153  0.70110  Biso   1.000  C
  C7       1.0000 0.21280  0.07847  0.79890  Biso   1.000  C
  C8       1.0000 0.28720  0.42153  0.79890  Biso   1.000  C
  C9       1.0000 0.28220  0.44150  0.25420  Biso   1.000  C
  C10      1.0000 0.21780  0.05850  0.25420  Biso   1.000  C
  C11      1.0000 0.71780  0.94150  0.24580  Biso   1.000  C
  C12      1.0000 0.78220  0.55850  0.24580  Biso   1.000  C
  C13      1.0000 0.71780  0.55850  0.74580  Biso   1.000  C
  C14      1.0000 0.78220  0.94150  0.74580  Biso   1.000  C
  C15      1.0000 0.28220  0.05850  0.75420  Biso   1.000  C
  C16      1.0000 0.21780  0.44150  0.75420  Biso   1.000  C
  H1       1.0000 0.28960  0.48330  0.19420  Biso   1.000  H
  H2       1.0000 0.21040  0.01670  0.19420  Biso   1.000  H
  H3       1.0000 0.71040  0.98330  0.30580  Biso   1.000  H
  H4       1.0000 0.78960  0.51670  0.30580  Biso   1.000  H
  H5       1.0000 0.71040  0.51670  0.80580  Biso   1.000  H
  H6       1.0000 0.78960  0.98330  0.80580  Biso   1.000  H
  H7       1.0000 0.28960  0.01670  0.69420  Biso   1.000  H
  H8       1.0000 0.21040  0.48330  0.69420  Biso   1.000  H
  C17      1.0000 0.34100  0.39930  0.29900  Biso   1.000  C
  C18      1.0000 0.15900  0.10070  0.29900  Biso   1.000  C
  C19      1.0000 0.65900  0.89930  0.20100  Biso   1.000  C
  C20      1.0000 0.84100  0.60070  0.20100  Biso   1.000  C
  C21      1.0000 0.65900  0.60070  0.70100  Biso   1.000  C
  C22      1.0000 0.84100  0.89930  0.70100  Biso   1.000  C
  C23      1.0000 0.34100  0.10070  0.79900  Biso   1.000  C
  C24      1.0000 0.15900  0.39930  0.79900  Biso   1.000  C
  C25      1.0000 0.33010  0.33741  0.39170  Biso   1.000  C
  C26      1.0000 0.16990  0.16259  0.39170  Biso   1.000  C
  C27      1.0000 0.66990  0.83741  0.10830  Biso   1.000  C
  C28      1.0000 0.83010  0.66259  0.10830  Biso   1.000  C
  C29      1.0000 0.66990  0.66259  0.60830  Biso   1.000  C
  C30      1.0000 0.83010  0.83741  0.60830  Biso   1.000  C
  C31      1.0000 0.33010  0.16259  0.89170  Biso   1.000  C
  C32      1.0000 0.16990  0.33741  0.89170  Biso   1.000  C
  H9       1.0000 0.36960  0.30970  0.42300  Biso   1.000  H
  H10      1.0000 0.13040  0.19030  0.42300  Biso   1.000  H
  H11      1.0000 0.63040  0.80970  0.07700  Biso   1.000  H
  H12      1.0000 0.86960  0.69030  0.07700  Biso   1.000  H
  H13      1.0000 0.63040  0.69030  0.57700  Biso   1.000  H
  H14      1.0000 0.86960  0.80970  0.57700  Biso   1.000  H
  H15      1.0000 0.36960  0.19030  0.92300  Biso   1.000  H
  H16      1.0000 0.13040  0.30970  0.92300  Biso   1.000  H
  C33      1.0000 0.26060  0.31694  0.43760  Biso   1.000  C
  C34      1.0000 0.23940  0.18306  0.43760  Biso   1.000  C
  C35      1.0000 0.73940  0.81694  0.06240  Biso   1.000  C
  C36      1.0000 0.76060  0.68306  0.06240  Biso   1.000  C
  C37      1.0000 0.73940  0.68306  0.56240  Biso   1.000  C
  C38      1.0000 0.76060  0.81694  0.56240  Biso   1.000  C
  C39      1.0000 0.26060  0.18306  0.93760  Biso   1.000  C
  C40      1.0000 0.23940  0.31694  0.93760  Biso   1.000  C
  C41      1.0000 0.20210  0.35860  0.38910  Biso   1.000  C
  C42      1.0000 0.29790  0.14140  0.38910  Biso   1.000  C
  C43      1.0000 0.79790  0.85860  0.11090  Biso   1.000  C
  C44      1.0000 0.70210  0.64140  0.11090  Biso   1.000  C
  C45      1.0000 0.79790  0.64140  0.61090  Biso   1.000  C
  C46      1.0000 0.70210  0.85860  0.61090  Biso   1.000  C
  C47      1.0000 0.20210  0.14140  0.88910  Biso   1.000  C
  C48      1.0000 0.29790  0.35860  0.88910  Biso   1.000  C
  H17      1.0000 0.15540  0.34450  0.41680  Biso   1.000  H
  H18      1.0000 0.34460  0.15550  0.41680  Biso   1.000  H
  H19      1.0000 0.84460  0.84450  0.08320  Biso   1.000  H
  H20      1.0000 0.65540  0.65550  0.08320  Biso   1.000  H
  H21      1.0000 0.84460  0.65550  0.58320  Biso   1.000  H
  H22      1.0000 0.65540  0.84450  0.58320  Biso   1.000  H
  H23      1.0000 0.15540  0.15550  0.91680  Biso   1.000  H
  H24      1.0000 0.34460  0.34450  0.91680  Biso   1.000  H
  C49      1.0000 0.25000  0.25000  0.54020  Biso   1.000  C
  C50      1.0000 0.75000  0.75000  0.95980  Biso   1.000  C
  C51      1.0000 0.75000  0.75000  0.45980  Biso   1.000  C
  C52      1.0000 0.25000  0.25000  0.04020  Biso   1.000  C
  H25      1.0000 0.29190  0.24350  0.61050  Biso   1.000  H
  H26      1.0000 0.20810  0.25650  0.61050  Biso   1.000  H
  H27      1.0000 0.70810  0.74350  0.88950  Biso   1.000  H
  H28      1.0000 0.79190  0.75650  0.88950  Biso   1.000  H
  H29      1.0000 0.70810  0.75650  0.38950  Biso   1.000  H
  H30      1.0000 0.79190  0.74350  0.38950  Biso   1.000  H
  H31      1.0000 0.29190  0.25650  0.11050  Biso   1.000  H
  H32      1.0000 0.20810  0.24350  0.11050  Biso   1.000  H
  C53      1.0000 0.14960  0.46800  0.25440  Biso   1.000  C
  C54      1.0000 0.35040  0.03200  0.25440  Biso   1.000  C
  C55      1.0000 0.85040  0.96800  0.24560  Biso   1.000  C
  C56      1.0000 0.64960  0.53200  0.24560  Biso   1.000  C
  C57      1.0000 0.85040  0.53200  0.74560  Biso   1.000  C
  C58      1.0000 0.64960  0.96800  0.74560  Biso   1.000  C
  C59      1.0000 0.14960  0.03200  0.75440  Biso   1.000  C
  C60      1.0000 0.35040  0.46800  0.75440  Biso   1.000  C
  C61      1.0000 0.41640  0.42020  0.25020  Biso   1.000  C
  C62      1.0000 0.08360  0.07980  0.25020  Biso   1.000  C
  C63      1.0000 0.58360  0.92020  0.24980  Biso   1.000  C
  C64      1.0000 0.91640  0.57980  0.24980  Biso   1.000  C
  C65      1.0000 0.58360  0.57980  0.74980  Biso   1.000  C
  C66      1.0000 0.91640  0.92020  0.74980  Biso   1.000  C
  C67      1.0000 0.41640  0.07980  0.75020  Biso   1.000  C
  C68      1.0000 0.08360  0.42020  0.75020  Biso   1.000  C
  O1       1.0000 0.08743  0.44293  0.24750  Biso   1.000  O
  O2       1.0000 0.41257  0.05707  0.24750  Biso   1.000  O
  O3       1.0000 0.91257  0.94293  0.25250  Biso   1.000  O
  O4       1.0000 0.58743  0.55707  0.25250  Biso   1.000  O
  O5       1.0000 0.91257  0.55707  0.75250  Biso   1.000  O
  O6       1.0000 0.58743  0.94293  0.75250  Biso   1.000  O
  O7       1.0000 0.08743  0.05707  0.74750  Biso   1.000  O
  O8       1.0000 0.41257  0.44293  0.74750  Biso   1.000  O
  O9       1.0000 0.16322  0.53457  0.22730  Biso   1.000  O
  O10      1.0000 0.33678  0.96543  0.22730  Biso   1.000  O
  O11      1.0000 0.83678  0.03457  0.27270  Biso   1.000  O
  O12      1.0000 0.66322  0.46543  0.27270  Biso   1.000  O
  O13      1.0000 0.83678  0.46543  0.77270  Biso   1.000  O
  O14      1.0000 0.66322  0.03457  0.77270  Biso   1.000  O
  O15      1.0000 0.16322  0.96543  0.72730  Biso   1.000  O
  O16      1.0000 0.33678  0.53457  0.72730  Biso   1.000  O
  O17      1.0000 0.42224  0.47229  0.15130  Biso   1.000  O
  O18      1.0000 0.07776  0.02771  0.15130  Biso   1.000  O
  O19      1.0000 0.57776  0.97229  0.34870  Biso   1.000  O
  O20      1.0000 0.92224  0.52771  0.34870  Biso   1.000  O
  O21      1.0000 0.57776  0.52771  0.84870  Biso   1.000  O
  O22      1.0000 0.92224  0.97229  0.84870  Biso   1.000  O
  O23      1.0000 0.42224  0.02771  0.65130  Biso   1.000  O
  O24      1.0000 0.07776  0.47229  0.65130  Biso   1.000  O
  O25      1.0000 0.46729  0.38477  0.30780  Biso   1.000  O
  O26      1.0000 0.03271  0.11523  0.30780  Biso   1.000  O
  O27      1.0000 0.53271  0.88477  0.19220  Biso   1.000  O
  O28      1.0000 0.96729  0.61523  0.19220  Biso   1.000  O
  O29      1.0000 0.53271  0.61523  0.69220  Biso   1.000  O
  O30      1.0000 0.96729  0.88477  0.69220  Biso   1.000  O
  O31      1.0000 0.46729  0.11523  0.80780  Biso   1.000  O
  O32      1.0000 0.03271  0.38477  0.80780  Biso   1.000  O
  O33      1.0000 0.55719  0.41685  0.05330  Biso   1.000  O
  O34      1.0000 0.94281  0.08315  0.05330  Biso   1.000  O
  O35      1.0000 0.44281  0.91685  0.44670  Biso   1.000  O
  O36      1.0000 0.05719  0.58315  0.44670  Biso   1.000  O
  O37      1.0000 0.44281  0.58315  0.94670  Biso   1.000  O
  O38      1.0000 0.05719  0.91685  0.94670  Biso   1.000  O
  O39      1.0000 0.55719  0.08315  0.55330  Biso   1.000  O
  O40      1.0000 0.94281  0.41685  0.55330  Biso   1.000  O
  H33      1.0000 0.55400  0.37100  0.00500  Biso   1.000  H
  H34      1.0000 0.94600  0.12900  0.00500  Biso   1.000  H
  H35      1.0000 0.44600  0.87100  0.49500  Biso   1.000  H
  H36      1.0000 0.05400  0.62900  0.49500  Biso   1.000  H
  H37      1.0000 0.44600  0.62900  0.99500  Biso   1.000  H
  H38      1.0000 0.05400  0.87100  0.99500  Biso   1.000  H
  H39      1.0000 0.55400  0.12900  0.50500  Biso   1.000  H
  H40      1.0000 0.94600  0.37100  0.50500  Biso   1.000  H
  O41      1.0000 0.07420  0.58770  0.96380  Biso   1.000  O
  O42      1.0000 0.42580  0.91230  0.96380  Biso   1.000  O
  O43      1.0000 0.92580  0.08770  0.53620  Biso   1.000  O
  O44      1.0000 0.57420  0.41230  0.53620  Biso   1.000  O
  O45      1.0000 0.92580  0.41230  0.03620  Biso   1.000  O
  O46      1.0000 0.57420  0.08770  0.03620  Biso   1.000  O
  O47      1.0000 0.07420  0.91230  0.46380  Biso   1.000  O
  O48      1.0000 0.42580  0.58770  0.46380  Biso   1.000  O
  H41      1.0000 0.04500  0.61900  0.90000  Biso   1.000  H
  H42      1.0000 0.45500  0.88100  0.90000  Biso   1.000  H
  H43      1.0000 0.95500  0.11900  0.60000  Biso   1.000  H
  H44      1.0000 0.54500  0.38100  0.60000  Biso   1.000  H
  H45      1.0000 0.95500  0.38100  0.10000  Biso   1.000  H
  H46      1.0000 0.54500  0.11900  0.10000  Biso   1.000  H
  H47      1.0000 0.04500  0.88100  0.40000  Biso   1.000  H
  H48      1.0000 0.45500  0.61900  0.40000  Biso   1.000  H
  H49      1.0000 0.05800  0.54080  0.93500  Biso   1.000  H
  H50      1.0000 0.44200  0.95920  0.93500  Biso   1.000  H
  H51      1.0000 0.94200  0.04080  0.56500  Biso   1.000  H
  H52      1.0000 0.55800  0.45920  0.56500  Biso   1.000  H
  H53      1.0000 0.94200  0.45920  0.06500  Biso   1.000  H
  H54      1.0000 0.55800  0.04080  0.06500  Biso   1.000  H
  H55      1.0000 0.05800  0.95920  0.43500  Biso   1.000  H
  H56      1.0000 0.44200  0.54080  0.43500  Biso   1.000  H
  O49      1.0000 0.12080  0.69890  0.19840  Biso   1.000  O
  O50      1.0000 0.37920  0.80110  0.19840  Biso   1.000  O
  O51      1.0000 0.87920  0.19890  0.30160  Biso   1.000  O
  O52      1.0000 0.62080  0.30110  0.30160  Biso   1.000  O
  O53      1.0000 0.87920  0.30110  0.80160  Biso   1.000  O
  O54      1.0000 0.62080  0.19890  0.80160  Biso   1.000  O
  O55      1.0000 0.12080  0.80110  0.69840  Biso   1.000  O
  O56      1.0000 0.37920  0.69890  0.69840  Biso   1.000  O
  H57      1.0000 0.09200  0.73100  0.14300  Biso   1.000  H
  H58      1.0000 0.40800  0.76900  0.14300  Biso   1.000  H
  H59      1.0000 0.90800  0.23100  0.35700  Biso   1.000  H
  H60      1.0000 0.59200  0.26900  0.35700  Biso   1.000  H
  H61      1.0000 0.90800  0.26900  0.85700  Biso   1.000  H
  H62      1.0000 0.59200  0.23100  0.85700  Biso   1.000  H
  H63      1.0000 0.09200  0.76900  0.64300  Biso   1.000  H
  H64      1.0000 0.40800  0.73100  0.64300  Biso   1.000  H
  H65      1.0000 0.13700  0.72000  0.29500  Biso   1.000  H
  H66      1.0000 0.36300  0.78000  0.29500  Biso   1.000  H
  H67      1.0000 0.86300  0.22000  0.20500  Biso   1.000  H
  H68      1.0000 0.63700  0.28000  0.20500  Biso   1.000  H
  H69      1.0000 0.86300  0.28000  0.70500  Biso   1.000  H
  H70      1.0000 0.63700  0.22000  0.70500  Biso   1.000  H
  H71      1.0000 0.13700  0.78000  0.79500  Biso   1.000  H
  H72      1.0000 0.36300  0.72000  0.79500  Biso   1.000  H
  O57      1.0000 0.02050  0.78080  0.03550  Biso   1.000  O
  O58      1.0000 0.47950  0.71920  0.03550  Biso   1.000  O
  O59      1.0000 0.97950  0.28080  0.46450  Biso   1.000  O
  O60      1.0000 0.52050  0.21920  0.46450  Biso   1.000  O
  O61      1.0000 0.97950  0.21920  0.96450  Biso   1.000  O
  O62      1.0000 0.52050  0.28080  0.96450  Biso   1.000  O
  O63      1.0000 0.02050  0.71920  0.53550  Biso   1.000  O
  O64      1.0000 0.47950  0.78080  0.53550  Biso   1.000  O
  O65      1.0000 0.04560  0.30270  0.18080  Biso   1.000  O
  O66      1.0000 0.45440  0.19730  0.18080  Biso   1.000  O
  O67      1.0000 0.95440  0.80270  0.31920  Biso   1.000  O
  O68      1.0000 0.54560  0.69730  0.31920  Biso   1.000  O
  O69      1.0000 0.95440  0.69730  0.81920  Biso   1.000  O
  O70      1.0000 0.54560  0.80270  0.81920  Biso   1.000  O
  O71      1.0000 0.04560  0.19730  0.68080  Biso   1.000  O
  O72      1.0000 0.45440  0.30270  0.68080  Biso   1.000  O
  O73      1.0000 0.20360  0.62190  0.62400  Biso   1.000  O
  O74      1.0000 0.29640  0.87810  0.62400  Biso   1.000  O
  O75      1.0000 0.79640  0.12190  0.87600  Biso   1.000  O
  O76      1.0000 0.70360  0.37810  0.87600  Biso   1.000  O
  O77      1.0000 0.79640  0.37810  0.37600  Biso   1.000  O
  O78      1.0000 0.70360  0.12190  0.37600  Biso   1.000  O
  O79      1.0000 0.20360  0.87810  0.12400  Biso   1.000  O
  O80      1.0000 0.29640  0.62190  0.12400  Biso   1.000  O
  O81      1.0000 0.24350  0.60720  0.47890  Biso   1.000  O
  O82      1.0000 0.25650  0.89280  0.47890  Biso   1.000  O
  O83      1.0000 0.75650  0.10720  0.02110  Biso   1.000  O
  O84      1.0000 0.74350  0.39280  0.02110  Biso   1.000  O
  O85      1.0000 0.75650  0.39280  0.52110  Biso   1.000  O
  O86      1.0000 0.74350  0.10720  0.52110  Biso   1.000  O
  O87      1.0000 0.24350  0.89280  0.97890  Biso   1.000  O
  O88      1.0000 0.25650  0.60720  0.97890  Biso   1.000  O
  O89      1.0000 0.21420  0.62170  0.75700  Biso   1.000  O
  O90      1.0000 0.28580  0.87830  0.75700  Biso   1.000  O
  O91      1.0000 0.78580  0.12170  0.74300  Biso   1.000  O
  O92      1.0000 0.71420  0.37830  0.74300  Biso   1.000  O
  O93      1.0000 0.78580  0.37830  0.24300  Biso   1.000  O
  O94      1.0000 0.71420  0.12170  0.24300  Biso   1.000  O
  O95      1.0000 0.21420  0.87830  0.25700  Biso   1.000  O
  O96      1.0000 0.28580  0.62170  0.25700  Biso   1.000  O
  O97      1.0000 0.25000  0.75000  0.38500  Biso   1.000  O
  O98      1.0000 0.75000  0.25000  0.11500  Biso   1.000  O
  O99      1.0000 0.75000  0.25000  0.61500  Biso   1.000  O
  O100     1.0000 0.25000  0.75000  0.88500  Biso   1.000  O
  O101     1.0000 0.20540  0.75330  0.45200  Biso   1.000  O
  O102     1.0000 0.29460  0.74670  0.45200  Biso   1.000  O
  O103     1.0000 0.79460  0.25330  0.04800  Biso   1.000  O
  O104     1.0000 0.70540  0.24670  0.04800  Biso   1.000  O
  O105     1.0000 0.79460  0.24670  0.54800  Biso   1.000  O
  O106     1.0000 0.70540  0.25330  0.54800  Biso   1.000  O
  O107     1.0000 0.20540  0.74670  0.95200  Biso   1.000  O
  O108     1.0000 0.29460  0.75330  0.95200  Biso   1.000  O
