data_image0
_cell_length_a       5.562
_cell_length_b       14.5617
_cell_length_c       18.236
_cell_angle_alpha    90
_cell_angle_beta     97.052
_cell_angle_gamma    90

_symmetry_space_group_name_H-M    "P 1"
_symmetry_int_tables_number       1

loop_
  _symmetry_equiv_pos_as_xyz
  'x, y, z'

loop_
  _atom_site_label
  _atom_site_occupancy
  _atom_site_fract_x
  _atom_site_fract_y
  _atom_site_fract_z
  _atom_site_thermal_displace_type
  _atom_site_B_iso_or_equiv
  _atom_site_type_symbol
  Cu1      1.0000 0.35602  0.59707  0.17460  Biso   1.000  Cu
  Cu2      1.0000 0.14398  0.09707  0.32540  Biso   1.000  Cu
  Cu3      1.0000 0.64398  0.40293  0.82540  Biso   1.000  Cu
  Cu4      1.0000 0.85602  0.90293  0.67460  Biso   1.000  Cu
  S1       1.0000 0.10032  0.45420  0.22081  Biso   1.000  S
  S2       1.0000 0.39968  0.95420  0.27919  Biso   1.000  S
  S3       1.0000 0.89968  0.54580  0.77919  Biso   1.000  S
  S4       1.0000 0.60032  0.04580  0.72081  Biso   1.000  S
  O1       1.0000 0.37510  0.55020  0.07532  Biso   1.000  O
  O2       1.0000 0.12490  0.05020  0.42468  Biso   1.000  O
  O3       1.0000 0.62490  0.44980  0.92468  Biso   1.000  O
  O4       1.0000 0.87510  0.94980  0.57532  Biso   1.000  O
  N1       1.0000 0.27500  0.67907  0.25542  Biso   1.000  N
  N2       1.0000 0.22500  0.17907  0.24458  Biso   1.000  N
  N3       1.0000 0.72500  0.32093  0.74458  Biso   1.000  N
  N4       1.0000 0.77500  0.82093  0.75542  Biso   1.000  N
  N5       1.0000 0.09880  0.66638  0.11993  Biso   1.000  N
  N6       1.0000 0.40120  0.16638  0.38007  Biso   1.000  N
  N7       1.0000 0.90120  0.33362  0.88007  Biso   1.000  N
  N8       1.0000 0.59880  0.83362  0.61993  Biso   1.000  N
  N9       1.0000 0.05340  0.65112  0.04625  Biso   1.000  N
  N10      1.0000 0.44660  0.15112  0.45375  Biso   1.000  N
  N11      1.0000 0.94660  0.34888  0.95375  Biso   1.000  N
  N12      1.0000 0.55340  0.84888  0.54625  Biso   1.000  N
  N13      1.0000 0.20400  0.56507  0.95802  Biso   1.000  N
  N14      1.0000 0.29600  0.06507  0.54198  Biso   1.000  N
  N15      1.0000 0.79600  0.43493  0.04198  Biso   1.000  N
  N16      1.0000 0.70400  0.93493  0.45802  Biso   1.000  N
  N17      1.0000 0.66790  0.54953  0.21646  Biso   1.000  N
  N18      1.0000 0.83210  0.04953  0.28354  Biso   1.000  N
  N19      1.0000 0.33210  0.45047  0.78354  Biso   1.000  N
  N20      1.0000 0.16790  0.95047  0.71646  Biso   1.000  N
  C1       1.0000 0.36570  0.67660  0.32633  Biso   1.000  C
  C2       1.0000 0.13430  0.17660  0.17367  Biso   1.000  C
  C3       1.0000 0.63430  0.32340  0.67367  Biso   1.000  C
  C4       1.0000 0.86570  0.82340  0.82633  Biso   1.000  C
  H1       1.0000 0.50010  0.63970  0.34030  Biso   1.000  H
  H2       1.0000 0.99990  0.13970  0.15970  Biso   1.000  H
  H3       1.0000 0.49990  0.36030  0.65970  Biso   1.000  H
  H4       1.0000 0.00010  0.86030  0.84030  Biso   1.000  H
  C5       1.0000 0.26950  0.72610  0.37966  Biso   1.000  C
  C6       1.0000 0.23050  0.22610  0.12034  Biso   1.000  C
  C7       1.0000 0.73050  0.27390  0.62034  Biso   1.000  C
  C8       1.0000 0.76950  0.77390  0.87966  Biso   1.000  C
  H5       1.0000 0.33850  0.72390  0.42870  Biso   1.000  H
  H6       1.0000 0.16150  0.22390  0.07130  Biso   1.000  H
  H7       1.0000 0.66150  0.27610  0.57130  Biso   1.000  H
  H8       1.0000 0.83850  0.77610  0.92870  Biso   1.000  H
  C9       1.0000 0.06890  0.77880  0.35865  Biso   1.000  C
  C10      1.0000 0.43110  0.27880  0.14135  Biso   1.000  C
  C11      1.0000 0.93110  0.22120  0.64135  Biso   1.000  C
  C12      1.0000 0.56890  0.72120  0.85865  Biso   1.000  C
  H9       1.0000 0.99800  0.81220  0.39380  Biso   1.000  H
  H10      1.0000 0.50200  0.31220  0.10620  Biso   1.000  H
  H11      1.0000 0.00200  0.18780  0.60620  Biso   1.000  H
  H12      1.0000 0.49800  0.68780  0.89380  Biso   1.000  H
  C13      1.0000 0.97250  0.78240  0.28557  Biso   1.000  C
  C14      1.0000 0.52750  0.28240  0.21443  Biso   1.000  C
  C15      1.0000 0.02750  0.21760  0.71443  Biso   1.000  C
  C16      1.0000 0.47250  0.71760  0.78557  Biso   1.000  C
  H13      1.0000 0.83520  0.81750  0.27110  Biso   1.000  H
  H14      1.0000 0.66480  0.31750  0.22890  Biso   1.000  H
  H15      1.0000 0.16480  0.18250  0.72890  Biso   1.000  H
  H16      1.0000 0.33520  0.68250  0.77110  Biso   1.000  H
  C17      1.0000 0.08100  0.73317  0.23362  Biso   1.000  C
  C18      1.0000 0.41900  0.23317  0.26638  Biso   1.000  C
  C19      1.0000 0.91900  0.26683  0.76638  Biso   1.000  C
  C20      1.0000 0.58100  0.76683  0.73362  Biso   1.000  C
  C21      1.0000 0.99560  0.73059  0.15437  Biso   1.000  C
  C22      1.0000 0.50440  0.23059  0.34563  Biso   1.000  C
  C23      1.0000 0.00440  0.26941  0.84563  Biso   1.000  C
  C24      1.0000 0.49560  0.76941  0.65437  Biso   1.000  C
  C25      1.0000 0.81250  0.79571  0.11971  Biso   1.000  C
  C26      1.0000 0.68750  0.29571  0.38029  Biso   1.000  C
  C27      1.0000 0.18750  0.20429  0.88029  Biso   1.000  C
  C28      1.0000 0.31250  0.70429  0.61971  Biso   1.000  C
  C29      1.0000 0.83560  0.88909  0.13394  Biso   1.000  C
  C30      1.0000 0.66440  0.38909  0.36606  Biso   1.000  C
  C31      1.0000 0.16440  0.11091  0.86606  Biso   1.000  C
  C32      1.0000 0.33560  0.61091  0.63394  Biso   1.000  C
  H17      1.0000 0.97130  0.91140  0.16340  Biso   1.000  H
  H18      1.0000 0.52870  0.41140  0.33660  Biso   1.000  H
  H19      1.0000 0.02870  0.08860  0.83660  Biso   1.000  H
  H20      1.0000 0.47130  0.58860  0.66340  Biso   1.000  H
  C33      1.0000 0.65790  0.94840  0.10443  Biso   1.000  C
  C34      1.0000 0.84210  0.44840  0.39557  Biso   1.000  C
  C35      1.0000 0.34210  0.05160  0.89557  Biso   1.000  C
  C36      1.0000 0.15790  0.55160  0.60443  Biso   1.000  C
  H21      1.0000 0.67430  0.01100  0.11380  Biso   1.000  H
  H22      1.0000 0.82570  0.51100  0.38620  Biso   1.000  H
  H23      1.0000 0.32570  0.98900  0.88620  Biso   1.000  H
  H24      1.0000 0.17430  0.48900  0.61380  Biso   1.000  H
  C37      1.0000 0.45680  0.91640  0.06132  Biso   1.000  C
  C38      1.0000 0.04320  0.41640  0.43868  Biso   1.000  C
  C39      1.0000 0.54320  0.08360  0.93868  Biso   1.000  C
  C40      1.0000 0.95680  0.58360  0.56132  Biso   1.000  C
  H25      1.0000 0.33500  0.95700  0.04280  Biso   1.000  H
  H26      1.0000 0.16500  0.45700  0.45720  Biso   1.000  H
  H27      1.0000 0.66500  0.04300  0.95720  Biso   1.000  H
  H28      1.0000 0.83500  0.54300  0.54280  Biso   1.000  H
  C41      1.0000 0.43470  0.82520  0.04542  Biso   1.000  C
  C42      1.0000 0.06530  0.32520  0.45458  Biso   1.000  C
  C43      1.0000 0.56530  0.17480  0.95458  Biso   1.000  C
  C44      1.0000 0.93470  0.67480  0.54542  Biso   1.000  C
  H29      1.0000 0.29920  0.80370  0.01540  Biso   1.000  H
  H30      1.0000 0.20080  0.30370  0.48460  Biso   1.000  H
  H31      1.0000 0.70080  0.19630  0.98460  Biso   1.000  H
  H32      1.0000 0.79920  0.69630  0.51540  Biso   1.000  H
  C45      1.0000 0.61270  0.76470  0.07374  Biso   1.000  C
  C46      1.0000 0.88730  0.26470  0.42626  Biso   1.000  C
  C47      1.0000 0.38730  0.23530  0.92626  Biso   1.000  C
  C48      1.0000 0.11270  0.73530  0.57374  Biso   1.000  C
  H33      1.0000 0.59840  0.70270  0.06190  Biso   1.000  H
  H34      1.0000 0.90160  0.20270  0.43810  Biso   1.000  H
  H35      1.0000 0.40160  0.29730  0.93810  Biso   1.000  H
  H36      1.0000 0.09840  0.79730  0.56190  Biso   1.000  H
  C49      1.0000 0.21320  0.58769  0.02885  Biso   1.000  C
  C50      1.0000 0.28680  0.08769  0.47115  Biso   1.000  C
  C51      1.0000 0.78680  0.41231  0.97115  Biso   1.000  C
  C52      1.0000 0.71320  0.91231  0.52885  Biso   1.000  C
  C53      1.0000 0.84730  0.51068  0.21836  Biso   1.000  C
  C54      1.0000 0.65270  0.01068  0.28164  Biso   1.000  C
  C55      1.0000 0.15270  0.48932  0.78164  Biso   1.000  C
  C56      1.0000 0.34730  0.98932  0.71836  Biso   1.000  C
  H37      1.0000 0.08700  0.58500  0.92900  Biso   1.000  H
  H38      1.0000 0.41300  0.08500  0.57100  Biso   1.000  H
  H39      1.0000 0.91300  0.41500  0.07100  Biso   1.000  H
  H40      1.0000 0.58700  0.91500  0.42900  Biso   1.000  H
  H41      1.0000 0.30300  0.52590  0.94980  Biso   1.000  H
  H42      1.0000 0.19700  0.02590  0.55020  Biso   1.000  H
  H43      1.0000 0.69700  0.47410  0.05020  Biso   1.000  H
  H44      1.0000 0.80300  0.97410  0.44980  Biso   1.000  H
