data_image0
_cell_length_a       16.758
_cell_length_b       11.135
_cell_length_c       17.341
_cell_angle_alpha    90
_cell_angle_beta     100.395
_cell_angle_gamma    90

_symmetry_space_group_name_H-M    "P 1"
_symmetry_int_tables_number       1

loop_
  _symmetry_equiv_pos_as_xyz
  'x, y, z'

loop_
  _atom_site_label
  _atom_site_occupancy
  _atom_site_fract_x
  _atom_site_fract_y
  _atom_site_fract_z
  _atom_site_thermal_displace_type
  _atom_site_B_iso_or_equiv
  _atom_site_type_symbol
  Cu1      1.0000 0.09696  0.11773  0.80242  Biso   1.000  Cu
  Cu2      1.0000 0.59696  0.61773  0.80242  Biso   1.000  Cu
  Cu3      1.0000 0.09696  0.88227  0.30242  Biso   1.000  Cu
  Cu4      1.0000 0.59696  0.38227  0.30242  Biso   1.000  Cu
  Cu5      1.0000 0.90304  0.88227  0.19758  Biso   1.000  Cu
  Cu6      1.0000 0.40304  0.38227  0.19758  Biso   1.000  Cu
  Cu7      1.0000 0.90304  0.11773  0.69758  Biso   1.000  Cu
  Cu8      1.0000 0.40304  0.61773  0.69758  Biso   1.000  Cu
  N1       1.0000 0.10340  0.93670  0.80080  Biso   1.000  N
  N2       1.0000 0.60340  0.43670  0.80080  Biso   1.000  N
  N3       1.0000 0.10340  0.06330  0.30080  Biso   1.000  N
  N4       1.0000 0.60340  0.56330  0.30080  Biso   1.000  N
  N5       1.0000 0.89660  0.06330  0.19920  Biso   1.000  N
  N6       1.0000 0.39660  0.56330  0.19920  Biso   1.000  N
  N7       1.0000 0.89660  0.93670  0.69920  Biso   1.000  N
  N8       1.0000 0.39660  0.43670  0.69920  Biso   1.000  N
  N9       1.0000 0.10340  0.29920  0.80300  Biso   1.000  N
  N10      1.0000 0.60340  0.79920  0.80300  Biso   1.000  N
  N11      1.0000 0.10340  0.70080  0.30300  Biso   1.000  N
  N12      1.0000 0.60340  0.20080  0.30300  Biso   1.000  N
  N13      1.0000 0.89660  0.70080  0.19700  Biso   1.000  N
  N14      1.0000 0.39660  0.20080  0.19700  Biso   1.000  N
  N15      1.0000 0.89660  0.29920  0.69700  Biso   1.000  N
  N16      1.0000 0.39660  0.79920  0.69700  Biso   1.000  N
  C1       1.0000 0.14040  0.87410  0.75090  Biso   1.000  C
  C2       1.0000 0.64040  0.37410  0.75090  Biso   1.000  C
  C3       1.0000 0.14040  0.12590  0.25090  Biso   1.000  C
  C4       1.0000 0.64040  0.62590  0.25090  Biso   1.000  C
  C5       1.0000 0.85960  0.12590  0.24910  Biso   1.000  C
  C6       1.0000 0.35960  0.62590  0.24910  Biso   1.000  C
  C7       1.0000 0.85960  0.87410  0.74910  Biso   1.000  C
  C8       1.0000 0.35960  0.37410  0.74910  Biso   1.000  C
  H1       1.0000 0.16540  0.91720  0.71440  Biso   1.000  H
  H2       1.0000 0.66540  0.41720  0.71440  Biso   1.000  H
  H3       1.0000 0.16540  0.08280  0.21440  Biso   1.000  H
  H4       1.0000 0.66540  0.58280  0.21440  Biso   1.000  H
  H5       1.0000 0.83460  0.08280  0.28560  Biso   1.000  H
  H6       1.0000 0.33460  0.58280  0.28560  Biso   1.000  H
  H7       1.0000 0.83460  0.91720  0.78560  Biso   1.000  H
  H8       1.0000 0.33460  0.41720  0.78560  Biso   1.000  H
  C9       1.0000 0.14370  0.75020  0.75030  Biso   1.000  C
  C10      1.0000 0.64370  0.25020  0.75030  Biso   1.000  C
  C11      1.0000 0.14370  0.24980  0.25030  Biso   1.000  C
  C12      1.0000 0.64370  0.74980  0.25030  Biso   1.000  C
  C13      1.0000 0.85630  0.24980  0.24970  Biso   1.000  C
  C14      1.0000 0.35630  0.74980  0.24970  Biso   1.000  C
  C15      1.0000 0.85630  0.75020  0.74970  Biso   1.000  C
  C16      1.0000 0.35630  0.25020  0.74970  Biso   1.000  C
  H9       1.0000 0.16980  0.70950  0.71360  Biso   1.000  H
  H10      1.0000 0.66980  0.20950  0.71360  Biso   1.000  H
  H11      1.0000 0.16980  0.29050  0.21360  Biso   1.000  H
  H12      1.0000 0.66980  0.79050  0.21360  Biso   1.000  H
  H13      1.0000 0.83020  0.29050  0.28640  Biso   1.000  H
  H14      1.0000 0.33020  0.79050  0.28640  Biso   1.000  H
  H15      1.0000 0.83020  0.70950  0.78640  Biso   1.000  H
  H16      1.0000 0.33020  0.20950  0.78640  Biso   1.000  H
  C17      1.0000 0.10890  0.68670  0.80320  Biso   1.000  C
  C18      1.0000 0.60890  0.18670  0.80320  Biso   1.000  C
  C19      1.0000 0.10890  0.31330  0.30320  Biso   1.000  C
  C20      1.0000 0.60890  0.81330  0.30320  Biso   1.000  C
  C21      1.0000 0.89110  0.31330  0.19680  Biso   1.000  C
  C22      1.0000 0.39110  0.81330  0.19680  Biso   1.000  C
  C23      1.0000 0.89110  0.68670  0.69680  Biso   1.000  C
  C24      1.0000 0.39110  0.18670  0.69680  Biso   1.000  C
  C25      1.0000 0.10690  0.55370  0.80360  Biso   1.000  C
  C26      1.0000 0.60690  0.05370  0.80360  Biso   1.000  C
  C27      1.0000 0.10690  0.44630  0.30360  Biso   1.000  C
  C28      1.0000 0.60690  0.94630  0.30360  Biso   1.000  C
  C29      1.0000 0.89310  0.44630  0.19640  Biso   1.000  C
  C30      1.0000 0.39310  0.94630  0.19640  Biso   1.000  C
  C31      1.0000 0.89310  0.55370  0.69640  Biso   1.000  C
  C32      1.0000 0.39310  0.05370  0.69640  Biso   1.000  C
  C33      1.0000 0.15730  0.48400  0.76390  Biso   1.000  C
  C34      1.0000 0.65730  0.98400  0.76390  Biso   1.000  C
  C35      1.0000 0.15730  0.51600  0.26390  Biso   1.000  C
  C36      1.0000 0.65730  0.01600  0.26390  Biso   1.000  C
  C37      1.0000 0.84270  0.51600  0.23610  Biso   1.000  C
  C38      1.0000 0.34270  0.01600  0.23610  Biso   1.000  C
  C39      1.0000 0.84270  0.48400  0.73610  Biso   1.000  C
  C40      1.0000 0.34270  0.98400  0.73610  Biso   1.000  C
  H17      1.0000 0.19430  0.52240  0.73630  Biso   1.000  H
  H18      1.0000 0.69430  0.02240  0.73630  Biso   1.000  H
  H19      1.0000 0.19430  0.47760  0.23630  Biso   1.000  H
  H20      1.0000 0.69430  0.97760  0.23630  Biso   1.000  H
  H21      1.0000 0.80570  0.47760  0.26370  Biso   1.000  H
  H22      1.0000 0.30570  0.97760  0.26370  Biso   1.000  H
  H23      1.0000 0.80570  0.52240  0.76370  Biso   1.000  H
  H24      1.0000 0.30570  0.02240  0.76370  Biso   1.000  H
  C41      1.0000 0.15260  0.35990  0.76500  Biso   1.000  C
  C42      1.0000 0.65260  0.85990  0.76500  Biso   1.000  C
  C43      1.0000 0.15260  0.64010  0.26500  Biso   1.000  C
  C44      1.0000 0.65260  0.14010  0.26500  Biso   1.000  C
  C45      1.0000 0.84740  0.64010  0.23500  Biso   1.000  C
  C46      1.0000 0.34740  0.14010  0.23500  Biso   1.000  C
  C47      1.0000 0.84740  0.35990  0.73500  Biso   1.000  C
  C48      1.0000 0.34740  0.85990  0.73500  Biso   1.000  C
  H25      1.0000 0.18650  0.31550  0.73710  Biso   1.000  H
  H26      1.0000 0.68650  0.81550  0.73710  Biso   1.000  H
  H27      1.0000 0.18650  0.68450  0.23710  Biso   1.000  H
  H28      1.0000 0.68650  0.18450  0.23710  Biso   1.000  H
  H29      1.0000 0.81350  0.68450  0.26290  Biso   1.000  H
  H30      1.0000 0.31350  0.18450  0.26290  Biso   1.000  H
  H31      1.0000 0.81350  0.31550  0.76290  Biso   1.000  H
  H32      1.0000 0.31350  0.81550  0.76290  Biso   1.000  H
  C49      1.0000 0.05630  0.36250  0.84290  Biso   1.000  C
  C50      1.0000 0.55630  0.86250  0.84290  Biso   1.000  C
  C51      1.0000 0.05630  0.63750  0.34290  Biso   1.000  C
  C52      1.0000 0.55630  0.13750  0.34290  Biso   1.000  C
  C53      1.0000 0.94370  0.63750  0.15710  Biso   1.000  C
  C54      1.0000 0.44370  0.13750  0.15710  Biso   1.000  C
  C55      1.0000 0.94370  0.36250  0.65710  Biso   1.000  C
  C56      1.0000 0.44370  0.86250  0.65710  Biso   1.000  C
  H33      1.0000 0.02200  0.32070  0.87180  Biso   1.000  H
  H34      1.0000 0.52200  0.82070  0.87180  Biso   1.000  H
  H35      1.0000 0.02200  0.67930  0.37180  Biso   1.000  H
  H36      1.0000 0.52200  0.17930  0.37180  Biso   1.000  H
  H37      1.0000 0.97800  0.67930  0.12820  Biso   1.000  H
  H38      1.0000 0.47800  0.17930  0.12820  Biso   1.000  H
  H39      1.0000 0.97800  0.32070  0.62820  Biso   1.000  H
  H40      1.0000 0.47800  0.82070  0.62820  Biso   1.000  H
  C57      1.0000 0.05590  0.48700  0.84330  Biso   1.000  C
  C58      1.0000 0.55590  0.98700  0.84330  Biso   1.000  C
  C59      1.0000 0.05590  0.51300  0.34330  Biso   1.000  C
  C60      1.0000 0.55590  0.01300  0.34330  Biso   1.000  C
  C61      1.0000 0.94410  0.51300  0.15670  Biso   1.000  C
  C62      1.0000 0.44410  0.01300  0.15670  Biso   1.000  C
  C63      1.0000 0.94410  0.48700  0.65670  Biso   1.000  C
  C64      1.0000 0.44410  0.98700  0.65670  Biso   1.000  C
  H41      1.0000 0.02030  0.52810  0.87110  Biso   1.000  H
  H42      1.0000 0.52030  0.02810  0.87110  Biso   1.000  H
  H43      1.0000 0.02030  0.47190  0.37110  Biso   1.000  H
  H44      1.0000 0.52030  0.97190  0.37110  Biso   1.000  H
  H45      1.0000 0.97970  0.47190  0.12890  Biso   1.000  H
  H46      1.0000 0.47970  0.97190  0.12890  Biso   1.000  H
  H47      1.0000 0.97970  0.52810  0.62890  Biso   1.000  H
  H48      1.0000 0.47970  0.02810  0.62890  Biso   1.000  H
  C65      1.0000 0.06990  0.74980  0.85470  Biso   1.000  C
  C66      1.0000 0.56990  0.24980  0.85470  Biso   1.000  C
  C67      1.0000 0.06990  0.25020  0.35470  Biso   1.000  C
  C68      1.0000 0.56990  0.75020  0.35470  Biso   1.000  C
  C69      1.0000 0.93010  0.25020  0.14530  Biso   1.000  C
  C70      1.0000 0.43010  0.75020  0.14530  Biso   1.000  C
  C71      1.0000 0.93010  0.74980  0.64530  Biso   1.000  C
  C72      1.0000 0.43010  0.24980  0.64530  Biso   1.000  C
  H49      1.0000 0.04440  0.70860  0.89160  Biso   1.000  H
  H50      1.0000 0.54440  0.20860  0.89160  Biso   1.000  H
  H51      1.0000 0.04440  0.29140  0.39160  Biso   1.000  H
  H52      1.0000 0.54440  0.79140  0.39160  Biso   1.000  H
  H53      1.0000 0.95560  0.29140  0.10840  Biso   1.000  H
  H54      1.0000 0.45560  0.79140  0.10840  Biso   1.000  H
  H55      1.0000 0.95560  0.70860  0.60840  Biso   1.000  H
  H56      1.0000 0.45560  0.20860  0.60840  Biso   1.000  H
  C73      1.0000 0.06890  0.87280  0.85110  Biso   1.000  C
  C74      1.0000 0.56890  0.37280  0.85110  Biso   1.000  C
  C75      1.0000 0.06890  0.12720  0.35110  Biso   1.000  C
  C76      1.0000 0.56890  0.62720  0.35110  Biso   1.000  C
  C77      1.0000 0.93110  0.12720  0.14890  Biso   1.000  C
  C78      1.0000 0.43110  0.62720  0.14890  Biso   1.000  C
  C79      1.0000 0.93110  0.87280  0.64890  Biso   1.000  C
  C80      1.0000 0.43110  0.37280  0.64890  Biso   1.000  C
  H57      1.0000 0.04210  0.91520  0.88660  Biso   1.000  H
  H58      1.0000 0.54210  0.41520  0.88660  Biso   1.000  H
  H59      1.0000 0.04210  0.08480  0.38660  Biso   1.000  H
  H60      1.0000 0.54210  0.58480  0.38660  Biso   1.000  H
  H61      1.0000 0.95790  0.08480  0.11340  Biso   1.000  H
  H62      1.0000 0.45790  0.58480  0.11340  Biso   1.000  H
  H63      1.0000 0.95790  0.91520  0.61340  Biso   1.000  H
  H64      1.0000 0.45790  0.41520  0.61340  Biso   1.000  H
  C81      1.0000 0.09640  0.12220  0.64300  Biso   1.000  C
  C82      1.0000 0.59640  0.62220  0.64300  Biso   1.000  C
  C83      1.0000 0.09640  0.87780  0.14300  Biso   1.000  C
  C84      1.0000 0.59640  0.37780  0.14300  Biso   1.000  C
  C85      1.0000 0.90360  0.87780  0.35700  Biso   1.000  C
  C86      1.0000 0.40360  0.37780  0.35700  Biso   1.000  C
  C87      1.0000 0.90360  0.12220  0.85700  Biso   1.000  C
  C88      1.0000 0.40360  0.62220  0.85700  Biso   1.000  C
  C89      1.0000 0.06040  0.11890  0.55710  Biso   1.000  C
  C90      1.0000 0.56040  0.61890  0.55710  Biso   1.000  C
  C91      1.0000 0.06040  0.88110  0.05710  Biso   1.000  C
  C92      1.0000 0.56040  0.38110  0.05710  Biso   1.000  C
  C93      1.0000 0.93960  0.88110  0.44290  Biso   1.000  C
  C94      1.0000 0.43960  0.38110  0.44290  Biso   1.000  C
  C95      1.0000 0.93960  0.11890  0.94290  Biso   1.000  C
  C96      1.0000 0.43960  0.61890  0.94290  Biso   1.000  C
  H65      1.0000 0.06620  0.19800  0.53390  Biso   1.000  H
  H66      1.0000 0.56620  0.69800  0.53390  Biso   1.000  H
  H67      1.0000 0.06620  0.80200  0.03390  Biso   1.000  H
  H68      1.0000 0.56620  0.30200  0.03390  Biso   1.000  H
  H69      1.0000 0.93380  0.80200  0.46610  Biso   1.000  H
  H70      1.0000 0.43380  0.30200  0.46610  Biso   1.000  H
  H71      1.0000 0.93380  0.19800  0.96610  Biso   1.000  H
  H72      1.0000 0.43380  0.69800  0.96610  Biso   1.000  H
  H73      1.0000 0.00280  0.09790  0.55040  Biso   1.000  H
  H74      1.0000 0.50280  0.59790  0.55040  Biso   1.000  H
  H75      1.0000 0.00280  0.90210  0.05040  Biso   1.000  H
  H76      1.0000 0.50280  0.40210  0.05040  Biso   1.000  H
  H77      1.0000 0.99720  0.90210  0.44960  Biso   1.000  H
  H78      1.0000 0.49720  0.40210  0.44960  Biso   1.000  H
  H79      1.0000 0.99720  0.09790  0.94960  Biso   1.000  H
  H80      1.0000 0.49720  0.59790  0.94960  Biso   1.000  H
  H81      1.0000 0.08890  0.05870  0.53090  Biso   1.000  H
  H82      1.0000 0.58890  0.55870  0.53090  Biso   1.000  H
  H83      1.0000 0.08890  0.94130  0.03090  Biso   1.000  H
  H84      1.0000 0.58890  0.44130  0.03090  Biso   1.000  H
  H85      1.0000 0.91110  0.94130  0.46910  Biso   1.000  H
  H86      1.0000 0.41110  0.44130  0.46910  Biso   1.000  H
  H87      1.0000 0.91110  0.05870  0.96910  Biso   1.000  H
  H88      1.0000 0.41110  0.55870  0.96910  Biso   1.000  H
  C97      1.0000 0.20990  0.10610  0.93600  Biso   1.000  C
  C98      1.0000 0.70990  0.60610  0.93600  Biso   1.000  C
  C99      1.0000 0.20990  0.89390  0.43600  Biso   1.000  C
  C100     1.0000 0.70990  0.39390  0.43600  Biso   1.000  C
  C101     1.0000 0.79010  0.89390  0.06400  Biso   1.000  C
  C102     1.0000 0.29010  0.39390  0.06400  Biso   1.000  C
  C103     1.0000 0.79010  0.10610  0.56400  Biso   1.000  C
  C104     1.0000 0.29010  0.60610  0.56400  Biso   1.000  C
  C105     1.0000 0.24150  0.08640  0.02220  Biso   1.000  C
  C106     1.0000 0.74150  0.58640  0.02220  Biso   1.000  C
  C107     1.0000 0.24150  0.91360  0.52220  Biso   1.000  C
  C108     1.0000 0.74150  0.41360  0.52220  Biso   1.000  C
  C109     1.0000 0.75850  0.91360  0.97780  Biso   1.000  C
  C110     1.0000 0.25850  0.41360  0.97780  Biso   1.000  C
  C111     1.0000 0.75850  0.08640  0.47780  Biso   1.000  C
  C112     1.0000 0.25850  0.58640  0.47780  Biso   1.000  C
  H89      1.0000 0.23610  0.00130  0.03490  Biso   1.000  H
  H90      1.0000 0.73610  0.50130  0.03490  Biso   1.000  H
  H91      1.0000 0.23610  0.99870  0.53490  Biso   1.000  H
  H92      1.0000 0.73610  0.49870  0.53490  Biso   1.000  H
  H93      1.0000 0.76390  0.99870  0.96510  Biso   1.000  H
  H94      1.0000 0.26390  0.49870  0.96510  Biso   1.000  H
  H95      1.0000 0.76390  0.00130  0.46510  Biso   1.000  H
  H96      1.0000 0.26390  0.50130  0.46510  Biso   1.000  H
  H97      1.0000 0.21020  0.13520  0.05310  Biso   1.000  H
  H98      1.0000 0.71020  0.63520  0.05310  Biso   1.000  H
  H99      1.0000 0.21020  0.86480  0.55310  Biso   1.000  H
  H100     1.0000 0.71020  0.36480  0.55310  Biso   1.000  H
  H101     1.0000 0.78980  0.86480  0.94690  Biso   1.000  H
  H102     1.0000 0.28980  0.36480  0.94690  Biso   1.000  H
  H103     1.0000 0.78980  0.13520  0.44690  Biso   1.000  H
  H104     1.0000 0.28980  0.63520  0.44690  Biso   1.000  H
  H105     1.0000 0.29880  0.10960  0.03460  Biso   1.000  H
  H106     1.0000 0.79880  0.60960  0.03460  Biso   1.000  H
  H107     1.0000 0.29880  0.89040  0.53460  Biso   1.000  H
  H108     1.0000 0.79880  0.39040  0.53460  Biso   1.000  H
  H109     1.0000 0.70120  0.89040  0.96540  Biso   1.000  H
  H110     1.0000 0.20120  0.39040  0.96540  Biso   1.000  H
  H111     1.0000 0.70120  0.10960  0.46540  Biso   1.000  H
  H112     1.0000 0.20120  0.60960  0.46540  Biso   1.000  H
  O1       1.0000 0.04615  0.11640  0.69060  Biso   1.000  O
  O2       1.0000 0.54615  0.61640  0.69060  Biso   1.000  O
  O3       1.0000 0.04615  0.88360  0.19060  Biso   1.000  O
  O4       1.0000 0.54615  0.38360  0.19060  Biso   1.000  O
  O5       1.0000 0.95385  0.88360  0.30940  Biso   1.000  O
  O6       1.0000 0.45385  0.38360  0.30940  Biso   1.000  O
  O7       1.0000 0.95385  0.11640  0.80940  Biso   1.000  O
  O8       1.0000 0.45385  0.61640  0.80940  Biso   1.000  O
  O9       1.0000 0.17020  0.12870  0.66460  Biso   1.000  O
  O10      1.0000 0.67020  0.62870  0.66460  Biso   1.000  O
  O11      1.0000 0.17020  0.87130  0.16460  Biso   1.000  O
  O12      1.0000 0.67020  0.37130  0.16460  Biso   1.000  O
  O13      1.0000 0.82980  0.87130  0.33540  Biso   1.000  O
  O14      1.0000 0.32980  0.37130  0.33540  Biso   1.000  O
  O15      1.0000 0.82980  0.12870  0.83540  Biso   1.000  O
  O16      1.0000 0.32980  0.62870  0.83540  Biso   1.000  O
  O17      1.0000 0.13310  0.11440  0.91605  Biso   1.000  O
  O18      1.0000 0.63310  0.61440  0.91605  Biso   1.000  O
  O19      1.0000 0.13310  0.88560  0.41605  Biso   1.000  O
  O20      1.0000 0.63310  0.38560  0.41605  Biso   1.000  O
  O21      1.0000 0.86690  0.88560  0.08395  Biso   1.000  O
  O22      1.0000 0.36690  0.38560  0.08395  Biso   1.000  O
  O23      1.0000 0.86690  0.11440  0.58395  Biso   1.000  O
  O24      1.0000 0.36690  0.61440  0.58395  Biso   1.000  O
  O25      1.0000 0.25610  0.11600  0.88830  Biso   1.000  O
  O26      1.0000 0.75610  0.61600  0.88830  Biso   1.000  O
  O27      1.0000 0.25610  0.88400  0.38830  Biso   1.000  O
  O28      1.0000 0.75610  0.38400  0.38830  Biso   1.000  O
  O29      1.0000 0.74390  0.88400  0.11170  Biso   1.000  O
  O30      1.0000 0.24390  0.38400  0.11170  Biso   1.000  O
  O31      1.0000 0.74390  0.11600  0.61170  Biso   1.000  O
  O32      1.0000 0.24390  0.61600  0.61170  Biso   1.000  O
  O33      1.0000 0.22000  0.30320  0.56240  Biso   1.000  O
  O34      1.0000 0.72000  0.80320  0.56240  Biso   1.000  O
  O35      1.0000 0.22000  0.69680  0.06240  Biso   1.000  O
  O36      1.0000 0.72000  0.19680  0.06240  Biso   1.000  O
  O37      1.0000 0.78000  0.69680  0.43760  Biso   1.000  O
  O38      1.0000 0.28000  0.19680  0.43760  Biso   1.000  O
  O39      1.0000 0.78000  0.30320  0.93760  Biso   1.000  O
  O40      1.0000 0.28000  0.80320  0.93760  Biso   1.000  O
  O41      1.0000 0.41080  0.19160  0.95560  Biso   1.000  O
  O42      1.0000 0.91080  0.69160  0.95560  Biso   1.000  O
  O43      1.0000 0.41080  0.80840  0.45560  Biso   1.000  O
  O44      1.0000 0.91080  0.30840  0.45560  Biso   1.000  O
  O45      1.0000 0.58920  0.80840  0.04440  Biso   1.000  O
  O46      1.0000 0.08920  0.30840  0.04440  Biso   1.000  O
  O47      1.0000 0.58920  0.19160  0.54440  Biso   1.000  O
  O48      1.0000 0.08920  0.69160  0.54440  Biso   1.000  O
  O49      1.0000 0.43730  0.93740  0.97310  Biso   1.000  O
  O50      1.0000 0.93730  0.43740  0.97310  Biso   1.000  O
  O51      1.0000 0.43730  0.06260  0.47310  Biso   1.000  O
  O52      1.0000 0.93730  0.56260  0.47310  Biso   1.000  O
  O53      1.0000 0.56270  0.06260  0.02690  Biso   1.000  O
  O54      1.0000 0.06270  0.56260  0.02690  Biso   1.000  O
  O55      1.0000 0.56270  0.93740  0.52690  Biso   1.000  O
  O56      1.0000 0.06270  0.43740  0.52690  Biso   1.000  O
  O57      1.0000 0.40060  0.97180  0.93970  Biso   1.000  O
  O58      1.0000 0.90060  0.47180  0.93970  Biso   1.000  O
  O59      1.0000 0.40060  0.02820  0.43970  Biso   1.000  O
  O60      1.0000 0.90060  0.52820  0.43970  Biso   1.000  O
  O61      1.0000 0.59940  0.02820  0.06030  Biso   1.000  O
  O62      1.0000 0.09940  0.52820  0.06030  Biso   1.000  O
  O63      1.0000 0.59940  0.97180  0.56030  Biso   1.000  O
  O64      1.0000 0.09940  0.47180  0.56030  Biso   1.000  O
