data_image0
_cell_length_a       30.276
_cell_length_b       8.8492
_cell_length_c       19.47
_cell_angle_alpha    90
_cell_angle_beta     113.26
_cell_angle_gamma    90

_symmetry_space_group_name_H-M    "P 1"
_symmetry_int_tables_number       1

loop_
  _symmetry_equiv_pos_as_xyz
  'x, y, z'

loop_
  _atom_site_label
  _atom_site_occupancy
  _atom_site_fract_x
  _atom_site_fract_y
  _atom_site_fract_z
  _atom_site_thermal_displace_type
  _atom_site_B_iso_or_equiv
  _atom_site_type_symbol
  Cu1      1.0000 0.20799  0.29910  0.25519  Biso   1.000  Cu
  Cu2      1.0000 0.79201  0.29910  0.24481  Biso   1.000  Cu
  Cu3      1.0000 0.70799  0.79910  0.25519  Biso   1.000  Cu
  Cu4      1.0000 0.29201  0.79910  0.24481  Biso   1.000  Cu
  Cu5      1.0000 0.79201  0.70090  0.74481  Biso   1.000  Cu
  Cu6      1.0000 0.20799  0.70090  0.75519  Biso   1.000  Cu
  Cu7      1.0000 0.29201  0.20090  0.74481  Biso   1.000  Cu
  Cu8      1.0000 0.70799  0.20090  0.75519  Biso   1.000  Cu
  S1       1.0000 0.37847  0.39770  0.42406  Biso   1.000  S
  S2       1.0000 0.62153  0.39770  0.07594  Biso   1.000  S
  S3       1.0000 0.87847  0.89770  0.42406  Biso   1.000  S
  S4       1.0000 0.12153  0.89770  0.07594  Biso   1.000  S
  S5       1.0000 0.62153  0.60230  0.57594  Biso   1.000  S
  S6       1.0000 0.37847  0.60230  0.92406  Biso   1.000  S
  S7       1.0000 0.12153  0.10230  0.57594  Biso   1.000  S
  S8       1.0000 0.87847  0.10230  0.92406  Biso   1.000  S
  S9       1.0000 0.40961  0.68960  0.50178  Biso   1.000  S
  S10      1.0000 0.59039  0.68960  0.99822  Biso   1.000  S
  S11      1.0000 0.90961  0.18960  0.50178  Biso   1.000  S
  S12      1.0000 0.09039  0.18960  0.99822  Biso   1.000  S
  S13      1.0000 0.59039  0.31040  0.49822  Biso   1.000  S
  S14      1.0000 0.40961  0.31040  0.00178  Biso   1.000  S
  S15      1.0000 0.09039  0.81040  0.49822  Biso   1.000  S
  S16      1.0000 0.90961  0.81040  0.00178  Biso   1.000  S
  S17      1.0000 0.47282  0.23590  0.53888  Biso   1.000  S
  S18      1.0000 0.52718  0.23590  0.96112  Biso   1.000  S
  S19      1.0000 0.97282  0.73590  0.53888  Biso   1.000  S
  S20      1.0000 0.02718  0.73590  0.96112  Biso   1.000  S
  S21      1.0000 0.52718  0.76410  0.46112  Biso   1.000  S
  S22      1.0000 0.47282  0.76410  0.03888  Biso   1.000  S
  S23      1.0000 0.02718  0.26410  0.46112  Biso   1.000  S
  S24      1.0000 0.97282  0.26410  0.03888  Biso   1.000  S
  S25      1.0000 0.50937  0.52440  0.61659  Biso   1.000  S
  S26      1.0000 0.49063  0.52440  0.88341  Biso   1.000  S
  S27      1.0000 0.00937  0.02440  0.61659  Biso   1.000  S
  S28      1.0000 0.99063  0.02440  0.88341  Biso   1.000  S
  S29      1.0000 0.49063  0.47560  0.38341  Biso   1.000  S
  S30      1.0000 0.50937  0.47560  0.11659  Biso   1.000  S
  S31      1.0000 0.99063  0.97560  0.38341  Biso   1.000  S
  S32      1.0000 0.00937  0.97560  0.11659  Biso   1.000  S
  S33      1.0000 0.55140  0.05560  0.65930  Biso   1.000  S
  S34      1.0000 0.44860  0.05560  0.84070  Biso   1.000  S
  S35      1.0000 0.05140  0.55560  0.65930  Biso   1.000  S
  S36      1.0000 0.94860  0.55560  0.84070  Biso   1.000  S
  S37      1.0000 0.44860  0.94440  0.34070  Biso   1.000  S
  S38      1.0000 0.55140  0.94440  0.15930  Biso   1.000  S
  S39      1.0000 0.94860  0.44440  0.34070  Biso   1.000  S
  S40      1.0000 0.05140  0.44440  0.15930  Biso   1.000  S
  S41      1.0000 0.59596  0.38050  0.73473  Biso   1.000  S
  S42      1.0000 0.40404  0.38050  0.76527  Biso   1.000  S
  S43      1.0000 0.09596  0.88050  0.73473  Biso   1.000  S
  S44      1.0000 0.90404  0.88050  0.76527  Biso   1.000  S
  S45      1.0000 0.40404  0.61950  0.26527  Biso   1.000  S
  S46      1.0000 0.59596  0.61950  0.23473  Biso   1.000  S
  S47      1.0000 0.90404  0.11950  0.26527  Biso   1.000  S
  S48      1.0000 0.09596  0.11950  0.23473  Biso   1.000  S
  O1       1.0000 0.28375  0.37900  0.32100  Biso   1.000  O
  O2       1.0000 0.71625  0.37900  0.17900  Biso   1.000  O
  O3       1.0000 0.78375  0.87900  0.32100  Biso   1.000  O
  O4       1.0000 0.21625  0.87900  0.17900  Biso   1.000  O
  O5       1.0000 0.71625  0.62100  0.67900  Biso   1.000  O
  O6       1.0000 0.28375  0.62100  0.82100  Biso   1.000  O
  O7       1.0000 0.21625  0.12100  0.67900  Biso   1.000  O
  O8       1.0000 0.78375  0.12100  0.82100  Biso   1.000  O
  O9       1.0000 0.27327  0.60810  0.27120  Biso   1.000  O
  O10      1.0000 0.72673  0.60810  0.22880  Biso   1.000  O
  O11      1.0000 0.77327  0.10810  0.27120  Biso   1.000  O
  O12      1.0000 0.22673  0.10810  0.22880  Biso   1.000  O
  O13      1.0000 0.72673  0.39190  0.72880  Biso   1.000  O
  O14      1.0000 0.27327  0.39190  0.77120  Biso   1.000  O
  O15      1.0000 0.22673  0.89190  0.72880  Biso   1.000  O
  O16      1.0000 0.77327  0.89190  0.77120  Biso   1.000  O
  O17      1.0000 0.34430  0.92640  0.46130  Biso   1.000  O
  O18      1.0000 0.65570  0.92640  0.03870  Biso   1.000  O
  O19      1.0000 0.84430  0.42640  0.46130  Biso   1.000  O
  O20      1.0000 0.15570  0.42640  0.03870  Biso   1.000  O
  O21      1.0000 0.65570  0.07360  0.53870  Biso   1.000  O
  O22      1.0000 0.34430  0.07360  0.96130  Biso   1.000  O
  O23      1.0000 0.15570  0.57360  0.53870  Biso   1.000  O
  O24      1.0000 0.84430  0.57360  0.96130  Biso   1.000  O
  O25      1.0000 0.30377  0.88190  0.34110  Biso   1.000  O
  O26      1.0000 0.69623  0.88190  0.15890  Biso   1.000  O
  O27      1.0000 0.80377  0.38190  0.34110  Biso   1.000  O
  O28      1.0000 0.19623  0.38190  0.15890  Biso   1.000  O
  O29      1.0000 0.69623  0.11810  0.65890  Biso   1.000  O
  O30      1.0000 0.30377  0.11810  0.84110  Biso   1.000  O
  O31      1.0000 0.19623  0.61810  0.65890  Biso   1.000  O
  O32      1.0000 0.80377  0.61810  0.84110  Biso   1.000  O
  N1       1.0000 0.20638  0.21520  0.34960  Biso   1.000  N
  N2       1.0000 0.79362  0.21520  0.15040  Biso   1.000  N
  N3       1.0000 0.70638  0.71520  0.34960  Biso   1.000  N
  N4       1.0000 0.29362  0.71520  0.15040  Biso   1.000  N
  N5       1.0000 0.79362  0.78480  0.65040  Biso   1.000  N
  N6       1.0000 0.20638  0.78480  0.84960  Biso   1.000  N
  N7       1.0000 0.29362  0.28480  0.65040  Biso   1.000  N
  N8       1.0000 0.70638  0.28480  0.84960  Biso   1.000  N
  N9       1.0000 0.17830  0.47330  0.28480  Biso   1.000  N
  N10      1.0000 0.82170  0.47330  0.21520  Biso   1.000  N
  N11      1.0000 0.67830  0.97330  0.28480  Biso   1.000  N
  N12      1.0000 0.32170  0.97330  0.21520  Biso   1.000  N
  N13      1.0000 0.82170  0.52670  0.71520  Biso   1.000  N
  N14      1.0000 0.17830  0.52670  0.78480  Biso   1.000  N
  N15      1.0000 0.32170  0.02670  0.71520  Biso   1.000  N
  N16      1.0000 0.67830  0.02670  0.78480  Biso   1.000  N
  C1       1.0000 0.34250  0.55710  0.38520  Biso   1.000  C
  C2       1.0000 0.65750  0.55710  0.11480  Biso   1.000  C
  C3       1.0000 0.84250  0.05710  0.38520  Biso   1.000  C
  C4       1.0000 0.15750  0.05710  0.11480  Biso   1.000  C
  C5       1.0000 0.65750  0.44290  0.61480  Biso   1.000  C
  C6       1.0000 0.34250  0.44290  0.88520  Biso   1.000  C
  C7       1.0000 0.15750  0.94290  0.61480  Biso   1.000  C
  C8       1.0000 0.84250  0.94290  0.88520  Biso   1.000  C
  C9       1.0000 0.35660  0.69050  0.41930  Biso   1.000  C
  C10      1.0000 0.64340  0.69050  0.08070  Biso   1.000  C
  C11      1.0000 0.85660  0.19050  0.41930  Biso   1.000  C
  C12      1.0000 0.14340  0.19050  0.08070  Biso   1.000  C
  C13      1.0000 0.64340  0.30950  0.58070  Biso   1.000  C
  C14      1.0000 0.35660  0.30950  0.91930  Biso   1.000  C
  C15      1.0000 0.14340  0.80950  0.58070  Biso   1.000  C
  C16      1.0000 0.85660  0.80950  0.91930  Biso   1.000  C
  C17      1.0000 0.42290  0.49790  0.49620  Biso   1.000  C
  C18      1.0000 0.57710  0.49790  0.00380  Biso   1.000  C
  C19      1.0000 0.92290  0.99790  0.49620  Biso   1.000  C
  C20      1.0000 0.07710  0.99790  0.00380  Biso   1.000  C
  C21      1.0000 0.57710  0.50210  0.50380  Biso   1.000  C
  C22      1.0000 0.42290  0.50210  0.99620  Biso   1.000  C
  C23      1.0000 0.07710  0.00210  0.50380  Biso   1.000  C
  C24      1.0000 0.92290  0.00210  0.99620  Biso   1.000  C
  C25      1.0000 0.46220  0.43030  0.54460  Biso   1.000  C
  C26      1.0000 0.53780  0.43030  0.95540  Biso   1.000  C
  C27      1.0000 0.96220  0.93030  0.54460  Biso   1.000  C
  C28      1.0000 0.03780  0.93030  0.95540  Biso   1.000  C
  C29      1.0000 0.53780  0.56970  0.45540  Biso   1.000  C
  C30      1.0000 0.46220  0.56970  0.04460  Biso   1.000  C
  C31      1.0000 0.03780  0.06970  0.45540  Biso   1.000  C
  C32      1.0000 0.96220  0.06970  0.04460  Biso   1.000  C
  C33      1.0000 0.52630  0.23040  0.62090  Biso   1.000  C
  C34      1.0000 0.47370  0.23040  0.87910  Biso   1.000  C
  C35      1.0000 0.02630  0.73040  0.62090  Biso   1.000  C
  C36      1.0000 0.97370  0.73040  0.87910  Biso   1.000  C
  C37      1.0000 0.47370  0.76960  0.37910  Biso   1.000  C
  C38      1.0000 0.52630  0.76960  0.12090  Biso   1.000  C
  C39      1.0000 0.97370  0.26960  0.37910  Biso   1.000  C
  C40      1.0000 0.02630  0.26960  0.12090  Biso   1.000  C
  C41      1.0000 0.54230  0.36040  0.65550  Biso   1.000  C
  C42      1.0000 0.45770  0.36040  0.84450  Biso   1.000  C
  C43      1.0000 0.04230  0.86040  0.65550  Biso   1.000  C
  C44      1.0000 0.95770  0.86040  0.84450  Biso   1.000  C
  C45      1.0000 0.45770  0.63960  0.34450  Biso   1.000  C
  C46      1.0000 0.54230  0.63960  0.15550  Biso   1.000  C
  C47      1.0000 0.95770  0.13960  0.34450  Biso   1.000  C
  C48      1.0000 0.04230  0.13960  0.15550  Biso   1.000  C
  C49      1.0000 0.51020  0.93740  0.64070  Biso   1.000  C
  C50      1.0000 0.48980  0.93740  0.85930  Biso   1.000  C
  C51      1.0000 0.01020  0.43740  0.64070  Biso   1.000  C
  C52      1.0000 0.98980  0.43740  0.85930  Biso   1.000  C
  C53      1.0000 0.48980  0.06260  0.35930  Biso   1.000  C
  C54      1.0000 0.51020  0.06260  0.14070  Biso   1.000  C
  C55      1.0000 0.98980  0.56260  0.35930  Biso   1.000  C
  C56      1.0000 0.01020  0.56260  0.14070  Biso   1.000  C
  H1       1.0000 0.49150  0.95890  0.67010  Biso   1.000  H
  H2       1.0000 0.50850  0.95890  0.82990  Biso   1.000  H
  H3       1.0000 0.99150  0.45890  0.67010  Biso   1.000  H
  H4       1.0000 0.00850  0.45890  0.82990  Biso   1.000  H
  H5       1.0000 0.50850  0.04110  0.32990  Biso   1.000  H
  H6       1.0000 0.49150  0.04110  0.17010  Biso   1.000  H
  H7       1.0000 0.00850  0.54110  0.32990  Biso   1.000  H
  H8       1.0000 0.99150  0.54110  0.17010  Biso   1.000  H
  H9       1.0000 0.52380  0.83690  0.65250  Biso   1.000  H
  H10      1.0000 0.47620  0.83690  0.84750  Biso   1.000  H
  H11      1.0000 0.02380  0.33690  0.65250  Biso   1.000  H
  H12      1.0000 0.97620  0.33690  0.84750  Biso   1.000  H
  H13      1.0000 0.47620  0.16310  0.34750  Biso   1.000  H
  H14      1.0000 0.52380  0.16310  0.15250  Biso   1.000  H
  H15      1.0000 0.97620  0.66310  0.34750  Biso   1.000  H
  H16      1.0000 0.02380  0.66310  0.15250  Biso   1.000  H
  H17      1.0000 0.48960  0.94300  0.58800  Biso   1.000  H
  H18      1.0000 0.51040  0.94300  0.91200  Biso   1.000  H
  H19      1.0000 0.98960  0.44300  0.58800  Biso   1.000  H
  H20      1.0000 0.01040  0.44300  0.91200  Biso   1.000  H
  H21      1.0000 0.51040  0.05700  0.41200  Biso   1.000  H
  H22      1.0000 0.48960  0.05700  0.08800  Biso   1.000  H
  H23      1.0000 0.01040  0.55700  0.41200  Biso   1.000  H
  H24      1.0000 0.98960  0.55700  0.08800  Biso   1.000  H
  C57      1.0000 0.57450  0.38190  0.80650  Biso   1.000  C
  C58      1.0000 0.42550  0.38190  0.69350  Biso   1.000  C
  C59      1.0000 0.07450  0.88190  0.80650  Biso   1.000  C
  C60      1.0000 0.92550  0.88190  0.69350  Biso   1.000  C
  C61      1.0000 0.42550  0.61810  0.19350  Biso   1.000  C
  C62      1.0000 0.57450  0.61810  0.30650  Biso   1.000  C
  C63      1.0000 0.92550  0.11810  0.19350  Biso   1.000  C
  C64      1.0000 0.07450  0.11810  0.30650  Biso   1.000  C
  H25      1.0000 0.54810  0.45300  0.79410  Biso   1.000  H
  H26      1.0000 0.45190  0.45300  0.70590  Biso   1.000  H
  H27      1.0000 0.04810  0.95300  0.79410  Biso   1.000  H
  H28      1.0000 0.95190  0.95300  0.70590  Biso   1.000  H
  H29      1.0000 0.45190  0.54700  0.20590  Biso   1.000  H
  H30      1.0000 0.54810  0.54700  0.29410  Biso   1.000  H
  H31      1.0000 0.95190  0.04700  0.20590  Biso   1.000  H
  H32      1.0000 0.04810  0.04700  0.29410  Biso   1.000  H
  H33      1.0000 0.60020  0.41190  0.85310  Biso   1.000  H
  H34      1.0000 0.39980  0.41190  0.64690  Biso   1.000  H
  H35      1.0000 0.10020  0.91190  0.85310  Biso   1.000  H
  H36      1.0000 0.89980  0.91190  0.64690  Biso   1.000  H
  H37      1.0000 0.39980  0.58810  0.14690  Biso   1.000  H
  H38      1.0000 0.60020  0.58810  0.35310  Biso   1.000  H
  H39      1.0000 0.89980  0.08810  0.14690  Biso   1.000  H
  H40      1.0000 0.10020  0.08810  0.35310  Biso   1.000  H
  H41      1.0000 0.56340  0.28160  0.81190  Biso   1.000  H
  H42      1.0000 0.43660  0.28160  0.68810  Biso   1.000  H
  H43      1.0000 0.06340  0.78160  0.81190  Biso   1.000  H
  H44      1.0000 0.93660  0.78160  0.68810  Biso   1.000  H
  H45      1.0000 0.43660  0.71840  0.18810  Biso   1.000  H
  H46      1.0000 0.56340  0.71840  0.31190  Biso   1.000  H
  H47      1.0000 0.93660  0.21840  0.18810  Biso   1.000  H
  H48      1.0000 0.06340  0.21840  0.31190  Biso   1.000  H
  C65      1.0000 0.29620  0.51320  0.32050  Biso   1.000  C
  C66      1.0000 0.70380  0.51320  0.17950  Biso   1.000  C
  C67      1.0000 0.79620  0.01320  0.32050  Biso   1.000  C
  C68      1.0000 0.20380  0.01320  0.17950  Biso   1.000  C
  C69      1.0000 0.70380  0.48680  0.67950  Biso   1.000  C
  C70      1.0000 0.29620  0.48680  0.82050  Biso   1.000  C
  C71      1.0000 0.20380  0.98680  0.67950  Biso   1.000  C
  C72      1.0000 0.79620  0.98680  0.82050  Biso   1.000  C
  C73      1.0000 0.33260  0.84420  0.40500  Biso   1.000  C
  C74      1.0000 0.66740  0.84420  0.09500  Biso   1.000  C
  C75      1.0000 0.83260  0.34420  0.40500  Biso   1.000  C
  C76      1.0000 0.16740  0.34420  0.09500  Biso   1.000  C
  C77      1.0000 0.66740  0.15580  0.59500  Biso   1.000  C
  C78      1.0000 0.33260  0.15580  0.90500  Biso   1.000  C
  C79      1.0000 0.16740  0.65580  0.59500  Biso   1.000  C
  C80      1.0000 0.83260  0.65580  0.90500  Biso   1.000  C
  C81      1.0000 0.22350  0.07910  0.37880  Biso   1.000  C
  C82      1.0000 0.77650  0.07910  0.12120  Biso   1.000  C
  C83      1.0000 0.72350  0.57910  0.37880  Biso   1.000  C
  C84      1.0000 0.27650  0.57910  0.12120  Biso   1.000  C
  C85      1.0000 0.77650  0.92090  0.62120  Biso   1.000  C
  C86      1.0000 0.22350  0.92090  0.87880  Biso   1.000  C
  C87      1.0000 0.27650  0.42090  0.62120  Biso   1.000  C
  C88      1.0000 0.72350  0.42090  0.87880  Biso   1.000  C
  H49      1.0000 0.23720  0.01560  0.35380  Biso   1.000  H
  H50      1.0000 0.76280  0.01560  0.14620  Biso   1.000  H
  H51      1.0000 0.73720  0.51560  0.35380  Biso   1.000  H
  H52      1.0000 0.26280  0.51560  0.14620  Biso   1.000  H
  H53      1.0000 0.76280  0.98440  0.64620  Biso   1.000  H
  H54      1.0000 0.23720  0.98440  0.85380  Biso   1.000  H
  H55      1.0000 0.26280  0.48440  0.64620  Biso   1.000  H
  H56      1.0000 0.73720  0.48440  0.85380  Biso   1.000  H
  C89      1.0000 0.22120  0.03080  0.44550  Biso   1.000  C
  C90      1.0000 0.77880  0.03080  0.05450  Biso   1.000  C
  C91      1.0000 0.72120  0.53080  0.44550  Biso   1.000  C
  C92      1.0000 0.27880  0.53080  0.05450  Biso   1.000  C
  C93      1.0000 0.77880  0.96920  0.55450  Biso   1.000  C
  C94      1.0000 0.22120  0.96920  0.94550  Biso   1.000  C
  C95      1.0000 0.27880  0.46920  0.55450  Biso   1.000  C
  C96      1.0000 0.72120  0.46920  0.94550  Biso   1.000  C
  H57      1.0000 0.23370  0.93610  0.46600  Biso   1.000  H
  H58      1.0000 0.76630  0.93610  0.03400  Biso   1.000  H
  H59      1.0000 0.73370  0.43610  0.46600  Biso   1.000  H
  H60      1.0000 0.26630  0.43610  0.03400  Biso   1.000  H
  H61      1.0000 0.76630  0.06390  0.53400  Biso   1.000  H
  H62      1.0000 0.23370  0.06390  0.96600  Biso   1.000  H
  H63      1.0000 0.26630  0.56390  0.53400  Biso   1.000  H
  H64      1.0000 0.73370  0.56390  0.96600  Biso   1.000  H
  C97      1.0000 0.20050  0.12460  0.48060  Biso   1.000  C
  C98      1.0000 0.79950  0.12460  0.01940  Biso   1.000  C
  C99      1.0000 0.70050  0.62460  0.48060  Biso   1.000  C
  C100     1.0000 0.29950  0.62460  0.01940  Biso   1.000  C
  C101     1.0000 0.79950  0.87540  0.51940  Biso   1.000  C
  C102     1.0000 0.20050  0.87540  0.98060  Biso   1.000  C
  C103     1.0000 0.29950  0.37540  0.51940  Biso   1.000  C
  C104     1.0000 0.70050  0.37540  0.98060  Biso   1.000  C
  H65      1.0000 0.19850  0.09340  0.52540  Biso   1.000  H
  H66      1.0000 0.80150  0.09340  0.97460  Biso   1.000  H
  H67      1.0000 0.69850  0.59340  0.52540  Biso   1.000  H
  H68      1.0000 0.30150  0.59340  0.97460  Biso   1.000  H
  H69      1.0000 0.80150  0.90660  0.47460  Biso   1.000  H
  H70      1.0000 0.19850  0.90660  0.02540  Biso   1.000  H
  H71      1.0000 0.30150  0.40660  0.47460  Biso   1.000  H
  H72      1.0000 0.69850  0.40660  0.02540  Biso   1.000  H
  C105     1.0000 0.18260  0.26290  0.45120  Biso   1.000  C
  C106     1.0000 0.81740  0.26290  0.04880  Biso   1.000  C
  C107     1.0000 0.68260  0.76290  0.45120  Biso   1.000  C
  C108     1.0000 0.31740  0.76290  0.04880  Biso   1.000  C
  C109     1.0000 0.81740  0.73710  0.54880  Biso   1.000  C
  C110     1.0000 0.18260  0.73710  0.95120  Biso   1.000  C
  C111     1.0000 0.31740  0.23710  0.54880  Biso   1.000  C
  C112     1.0000 0.68260  0.23710  0.95120  Biso   1.000  C
  H73      1.0000 0.16840  0.32700  0.47520  Biso   1.000  H
  H74      1.0000 0.83160  0.32700  0.02480  Biso   1.000  H
  H75      1.0000 0.66840  0.82700  0.47520  Biso   1.000  H
  H76      1.0000 0.33160  0.82700  0.02480  Biso   1.000  H
  H77      1.0000 0.83160  0.67300  0.52480  Biso   1.000  H
  H78      1.0000 0.16840  0.67300  0.97520  Biso   1.000  H
  H79      1.0000 0.33160  0.17300  0.52480  Biso   1.000  H
  H80      1.0000 0.66840  0.17300  0.97520  Biso   1.000  H
  C113     1.0000 0.18610  0.30620  0.38460  Biso   1.000  C
  C114     1.0000 0.81390  0.30620  0.11540  Biso   1.000  C
  C115     1.0000 0.68610  0.80620  0.38460  Biso   1.000  C
  C116     1.0000 0.31390  0.80620  0.11540  Biso   1.000  C
  C117     1.0000 0.81390  0.69380  0.61540  Biso   1.000  C
  C118     1.0000 0.18610  0.69380  0.88460  Biso   1.000  C
  C119     1.0000 0.31390  0.19380  0.61540  Biso   1.000  C
  C120     1.0000 0.68610  0.19380  0.88460  Biso   1.000  C
  C121     1.0000 0.16570  0.60480  0.24840  Biso   1.000  C
  C122     1.0000 0.83430  0.60480  0.25160  Biso   1.000  C
  C123     1.0000 0.66570  0.10480  0.24840  Biso   1.000  C
  C124     1.0000 0.33430  0.10480  0.25160  Biso   1.000  C
  C125     1.0000 0.83430  0.39520  0.75160  Biso   1.000  C
  C126     1.0000 0.16570  0.39520  0.74840  Biso   1.000  C
  C127     1.0000 0.33430  0.89520  0.75160  Biso   1.000  C
  C128     1.0000 0.66570  0.89520  0.74840  Biso   1.000  C
  H81      1.0000 0.17170  0.61850  0.20490  Biso   1.000  H
  H82      1.0000 0.82830  0.61850  0.29510  Biso   1.000  H
  H83      1.0000 0.67170  0.11850  0.20490  Biso   1.000  H
  H84      1.0000 0.32830  0.11850  0.29510  Biso   1.000  H
  H85      1.0000 0.82830  0.38150  0.79510  Biso   1.000  H
  H86      1.0000 0.17170  0.38150  0.70490  Biso   1.000  H
  H87      1.0000 0.32830  0.88150  0.79510  Biso   1.000  H
  H88      1.0000 0.67170  0.88150  0.70490  Biso   1.000  H
  C129     1.0000 0.14450  0.72160  0.27120  Biso   1.000  C
  C130     1.0000 0.85550  0.72160  0.22880  Biso   1.000  C
  C131     1.0000 0.64450  0.22160  0.27120  Biso   1.000  C
  C132     1.0000 0.35550  0.22160  0.22880  Biso   1.000  C
  C133     1.0000 0.85550  0.27840  0.72880  Biso   1.000  C
  C134     1.0000 0.14450  0.27840  0.77120  Biso   1.000  C
  C135     1.0000 0.35550  0.77840  0.72880  Biso   1.000  C
  C136     1.0000 0.64450  0.77840  0.77120  Biso   1.000  C
  H89      1.0000 0.13630  0.81300  0.24450  Biso   1.000  H
  H90      1.0000 0.86370  0.81300  0.25550  Biso   1.000  H
  H91      1.0000 0.63630  0.31300  0.24450  Biso   1.000  H
  H92      1.0000 0.36370  0.31300  0.25550  Biso   1.000  H
  H93      1.0000 0.86370  0.18700  0.75550  Biso   1.000  H
  H94      1.0000 0.13630  0.18700  0.74450  Biso   1.000  H
  H95      1.0000 0.36370  0.68700  0.75550  Biso   1.000  H
  H96      1.0000 0.63630  0.68700  0.74450  Biso   1.000  H
  C137     1.0000 0.13560  0.69870  0.33480  Biso   1.000  C
  C138     1.0000 0.86440  0.69870  0.16520  Biso   1.000  C
  C139     1.0000 0.63560  0.19870  0.33480  Biso   1.000  C
  C140     1.0000 0.36440  0.19870  0.16520  Biso   1.000  C
  C141     1.0000 0.86440  0.30130  0.66520  Biso   1.000  C
  C142     1.0000 0.13560  0.30130  0.83480  Biso   1.000  C
  C143     1.0000 0.36440  0.80130  0.66520  Biso   1.000  C
  C144     1.0000 0.63560  0.80130  0.83480  Biso   1.000  C
  H97      1.0000 0.12050  0.77480  0.35140  Biso   1.000  H
  H98      1.0000 0.87950  0.77480  0.14860  Biso   1.000  H
  H99      1.0000 0.62050  0.27480  0.35140  Biso   1.000  H
  H100     1.0000 0.37950  0.27480  0.14860  Biso   1.000  H
  H101     1.0000 0.87950  0.22520  0.64860  Biso   1.000  H
  H102     1.0000 0.12050  0.22520  0.85140  Biso   1.000  H
  H103     1.0000 0.37950  0.72520  0.64860  Biso   1.000  H
  H104     1.0000 0.62050  0.72520  0.85140  Biso   1.000  H
  C145     1.0000 0.14860  0.56650  0.37370  Biso   1.000  C
  C146     1.0000 0.85140  0.56650  0.12630  Biso   1.000  C
  C147     1.0000 0.64860  0.06650  0.37370  Biso   1.000  C
  C148     1.0000 0.35140  0.06650  0.12630  Biso   1.000  C
  C149     1.0000 0.85140  0.43350  0.62630  Biso   1.000  C
  C150     1.0000 0.14860  0.43350  0.87370  Biso   1.000  C
  C151     1.0000 0.35140  0.93350  0.62630  Biso   1.000  C
  C152     1.0000 0.64860  0.93350  0.87370  Biso   1.000  C
  H105     1.0000 0.14320  0.55170  0.41760  Biso   1.000  H
  H106     1.0000 0.85680  0.55170  0.08240  Biso   1.000  H
  H107     1.0000 0.64320  0.05170  0.41760  Biso   1.000  H
  H108     1.0000 0.35680  0.05170  0.08240  Biso   1.000  H
  H109     1.0000 0.85680  0.44830  0.58240  Biso   1.000  H
  H110     1.0000 0.14320  0.44830  0.91760  Biso   1.000  H
  H111     1.0000 0.35680  0.94830  0.58240  Biso   1.000  H
  H112     1.0000 0.64320  0.94830  0.91760  Biso   1.000  H
  C153     1.0000 0.16980  0.45400  0.34700  Biso   1.000  C
  C154     1.0000 0.83020  0.45400  0.15300  Biso   1.000  C
  C155     1.0000 0.66980  0.95400  0.34700  Biso   1.000  C
  C156     1.0000 0.33020  0.95400  0.15300  Biso   1.000  C
  C157     1.0000 0.83020  0.54600  0.65300  Biso   1.000  C
  C158     1.0000 0.16980  0.54600  0.84700  Biso   1.000  C
  C159     1.0000 0.33020  0.04600  0.65300  Biso   1.000  C
  C160     1.0000 0.66980  0.04600  0.84700  Biso   1.000  C
  S49      1.0000 0.55885  0.05880  0.63380  Biso   1.000  S
  S50      1.0000 0.44115  0.05880  0.86620  Biso   1.000  S
  S51      1.0000 0.05885  0.55880  0.63380  Biso   1.000  S
  S52      1.0000 0.94115  0.55880  0.86620  Biso   1.000  S
  S53      1.0000 0.44115  0.94120  0.36620  Biso   1.000  S
  S54      1.0000 0.55885  0.94120  0.13380  Biso   1.000  S
  S55      1.0000 0.94115  0.44120  0.36620  Biso   1.000  S
  S56      1.0000 0.05885  0.44120  0.13380  Biso   1.000  S
