data_image0
_cell_length_a       24.908
_cell_length_b       5.8332
_cell_length_c       22.075
_cell_angle_alpha    90
_cell_angle_beta     105.628
_cell_angle_gamma    90

_symmetry_space_group_name_H-M    "P 1"
_symmetry_int_tables_number       1

loop_
  _symmetry_equiv_pos_as_xyz
  'x, y, z'

loop_
  _atom_site_label
  _atom_site_occupancy
  _atom_site_fract_x
  _atom_site_fract_y
  _atom_site_fract_z
  _atom_site_thermal_displace_type
  _atom_site_B_iso_or_equiv
  _atom_site_type_symbol
  Cu1      1.0000 0.00000  0.39290  0.25000  Biso   1.000  Cu
  Cu2      1.0000 0.50000  0.89290  0.25000  Biso   1.000  Cu
  Cu3      1.0000 0.00000  0.60710  0.75000  Biso   1.000  Cu
  Cu4      1.0000 0.50000  0.10710  0.75000  Biso   1.000  Cu
  O1       1.0000 0.00000  0.00600  0.25000  Biso   1.000  O
  O2       1.0000 0.50000  0.50600  0.25000  Biso   1.000  O
  O3       1.0000 0.00000  0.99400  0.75000  Biso   1.000  O
  O4       1.0000 0.50000  0.49400  0.75000  Biso   1.000  O
  O5       1.0000 0.00750  0.40090  0.16440  Biso   1.000  O
  O6       1.0000 0.99250  0.40090  0.33560  Biso   1.000  O
  O7       1.0000 0.50750  0.90090  0.16440  Biso   1.000  O
  O8       1.0000 0.49250  0.90090  0.33560  Biso   1.000  O
  O9       1.0000 0.99250  0.59910  0.83560  Biso   1.000  O
  O10      1.0000 0.00750  0.59910  0.66440  Biso   1.000  O
  O11      1.0000 0.49250  0.09910  0.83560  Biso   1.000  O
  O12      1.0000 0.50750  0.09910  0.66440  Biso   1.000  O
  O13      1.0000 0.97850  0.75710  0.14270  Biso   1.000  O
  O14      1.0000 0.02150  0.75710  0.35730  Biso   1.000  O
  O15      1.0000 0.47850  0.25710  0.14270  Biso   1.000  O
  O16      1.0000 0.52150  0.25710  0.35730  Biso   1.000  O
  O17      1.0000 0.02150  0.24290  0.85730  Biso   1.000  O
  O18      1.0000 0.97850  0.24290  0.64270  Biso   1.000  O
  O19      1.0000 0.52150  0.74290  0.85730  Biso   1.000  O
  O20      1.0000 0.47850  0.74290  0.64270  Biso   1.000  O
  N1       1.0000 0.08390  0.41560  0.28280  Biso   1.000  N
  N2       1.0000 0.91610  0.41560  0.21720  Biso   1.000  N
  N3       1.0000 0.58390  0.91560  0.28280  Biso   1.000  N
  N4       1.0000 0.41610  0.91560  0.21720  Biso   1.000  N
  N5       1.0000 0.91610  0.58440  0.71720  Biso   1.000  N
  N6       1.0000 0.08390  0.58440  0.78280  Biso   1.000  N
  N7       1.0000 0.41610  0.08440  0.71720  Biso   1.000  N
  N8       1.0000 0.58390  0.08440  0.78280  Biso   1.000  N
  C1       1.0000 0.99350  0.56920  0.12810  Biso   1.000  C
  C2       1.0000 0.00650  0.56920  0.37190  Biso   1.000  C
  C3       1.0000 0.49350  0.06920  0.12810  Biso   1.000  C
  C4       1.0000 0.50650  0.06920  0.37190  Biso   1.000  C
  C5       1.0000 0.00650  0.43080  0.87190  Biso   1.000  C
  C6       1.0000 0.99350  0.43080  0.62810  Biso   1.000  C
  C7       1.0000 0.50650  0.93080  0.87190  Biso   1.000  C
  C8       1.0000 0.49350  0.93080  0.62810  Biso   1.000  C
  C9       1.0000 0.99630  0.53250  0.06140  Biso   1.000  C
  C10      1.0000 0.00370  0.53250  0.43860  Biso   1.000  C
  C11      1.0000 0.49630  0.03250  0.06140  Biso   1.000  C
  C12      1.0000 0.50370  0.03250  0.43860  Biso   1.000  C
  C13      1.0000 0.00370  0.46750  0.93860  Biso   1.000  C
  C14      1.0000 0.99630  0.46750  0.56140  Biso   1.000  C
  C15      1.0000 0.50370  0.96750  0.93860  Biso   1.000  C
  C16      1.0000 0.49630  0.96750  0.56140  Biso   1.000  C
  C17      1.0000 0.01440  0.32490  0.04380  Biso   1.000  C
  C18      1.0000 0.98560  0.32490  0.45620  Biso   1.000  C
  C19      1.0000 0.51440  0.82490  0.04380  Biso   1.000  C
  C20      1.0000 0.48560  0.82490  0.45620  Biso   1.000  C
  C21      1.0000 0.98560  0.67510  0.95620  Biso   1.000  C
  C22      1.0000 0.01440  0.67510  0.54380  Biso   1.000  C
  C23      1.0000 0.48560  0.17510  0.95620  Biso   1.000  C
  C24      1.0000 0.51440  0.17510  0.54380  Biso   1.000  C
  C25      1.0000 0.98170  0.70760  0.01760  Biso   1.000  C
  C26      1.0000 0.01830  0.70760  0.48240  Biso   1.000  C
  C27      1.0000 0.48170  0.20760  0.01760  Biso   1.000  C
  C28      1.0000 0.51830  0.20760  0.48240  Biso   1.000  C
  C29      1.0000 0.01830  0.29240  0.98240  Biso   1.000  C
  C30      1.0000 0.98170  0.29240  0.51760  Biso   1.000  C
  C31      1.0000 0.51830  0.79240  0.98240  Biso   1.000  C
  C32      1.0000 0.48170  0.79240  0.51760  Biso   1.000  C
  C33      1.0000 0.11180  0.25390  0.32190  Biso   1.000  C
  C34      1.0000 0.88820  0.25390  0.17810  Biso   1.000  C
  C35      1.0000 0.61180  0.75390  0.32190  Biso   1.000  C
  C36      1.0000 0.38820  0.75390  0.17810  Biso   1.000  C
  C37      1.0000 0.88820  0.74610  0.67810  Biso   1.000  C
  C38      1.0000 0.11180  0.74610  0.82190  Biso   1.000  C
  C39      1.0000 0.38820  0.24610  0.67810  Biso   1.000  C
  C40      1.0000 0.61180  0.24610  0.82190  Biso   1.000  C
  C41      1.0000 0.16990  0.25350  0.34210  Biso   1.000  C
  C42      1.0000 0.83010  0.25350  0.15790  Biso   1.000  C
  C43      1.0000 0.66990  0.75350  0.34210  Biso   1.000  C
  C44      1.0000 0.33010  0.75350  0.15790  Biso   1.000  C
  C45      1.0000 0.83010  0.74650  0.65790  Biso   1.000  C
  C46      1.0000 0.16990  0.74650  0.84210  Biso   1.000  C
  C47      1.0000 0.33010  0.24650  0.65790  Biso   1.000  C
  C48      1.0000 0.66990  0.24650  0.84210  Biso   1.000  C
  C49      1.0000 0.20070  0.41690  0.32130  Biso   1.000  C
  C50      1.0000 0.79930  0.41690  0.17870  Biso   1.000  C
  C51      1.0000 0.70070  0.91690  0.32130  Biso   1.000  C
  C52      1.0000 0.29930  0.91690  0.17870  Biso   1.000  C
  C53      1.0000 0.79930  0.58310  0.67870  Biso   1.000  C
  C54      1.0000 0.20070  0.58310  0.82130  Biso   1.000  C
  C55      1.0000 0.29930  0.08310  0.67870  Biso   1.000  C
  C56      1.0000 0.70070  0.08310  0.82130  Biso   1.000  C
  C57      1.0000 0.17050  0.58540  0.28270  Biso   1.000  C
  C58      1.0000 0.82950  0.58540  0.21730  Biso   1.000  C
  C59      1.0000 0.67050  0.08540  0.28270  Biso   1.000  C
  C60      1.0000 0.32950  0.08540  0.21730  Biso   1.000  C
  C61      1.0000 0.82950  0.41460  0.71730  Biso   1.000  C
  C62      1.0000 0.17050  0.41460  0.78270  Biso   1.000  C
  C63      1.0000 0.32950  0.91460  0.71730  Biso   1.000  C
  C64      1.0000 0.67050  0.91460  0.78270  Biso   1.000  C
  C65      1.0000 0.11220  0.57900  0.26430  Biso   1.000  C
  C66      1.0000 0.88780  0.57900  0.23570  Biso   1.000  C
  C67      1.0000 0.61220  0.07900  0.26430  Biso   1.000  C
  C68      1.0000 0.38780  0.07900  0.23570  Biso   1.000  C
  C69      1.0000 0.88780  0.42100  0.73570  Biso   1.000  C
  C70      1.0000 0.11220  0.42100  0.76430  Biso   1.000  C
  C71      1.0000 0.38780  0.92100  0.73570  Biso   1.000  C
  C72      1.0000 0.61220  0.92100  0.76430  Biso   1.000  C
  C73      1.0000 0.26310  0.41600  0.34010  Biso   1.000  C
  C74      1.0000 0.73690  0.41600  0.15990  Biso   1.000  C
  C75      1.0000 0.76310  0.91600  0.34010  Biso   1.000  C
  C76      1.0000 0.23690  0.91600  0.15990  Biso   1.000  C
  C77      1.0000 0.73690  0.58400  0.65990  Biso   1.000  C
  C78      1.0000 0.26310  0.58400  0.84010  Biso   1.000  C
  C79      1.0000 0.23690  0.08400  0.65990  Biso   1.000  C
  C80      1.0000 0.76310  0.08400  0.84010  Biso   1.000  C
  C81      1.0000 0.29220  0.23440  0.37190  Biso   1.000  C
  C82      1.0000 0.70780  0.23440  0.12810  Biso   1.000  C
  C83      1.0000 0.79220  0.73440  0.37190  Biso   1.000  C
  C84      1.0000 0.20780  0.73440  0.12810  Biso   1.000  C
  C85      1.0000 0.70780  0.76560  0.62810  Biso   1.000  C
  C86      1.0000 0.29220  0.76560  0.87190  Biso   1.000  C
  C87      1.0000 0.20780  0.26560  0.62810  Biso   1.000  C
  C88      1.0000 0.79220  0.26560  0.87190  Biso   1.000  C
  C89      1.0000 0.35070  0.22620  0.38820  Biso   1.000  C
  C90      1.0000 0.64930  0.22620  0.11180  Biso   1.000  C
  C91      1.0000 0.85070  0.72620  0.38820  Biso   1.000  C
  C92      1.0000 0.14930  0.72620  0.11180  Biso   1.000  C
  C93      1.0000 0.64930  0.77380  0.61180  Biso   1.000  C
  C94      1.0000 0.35070  0.77380  0.88820  Biso   1.000  C
  C95      1.0000 0.14930  0.27380  0.61180  Biso   1.000  C
  C96      1.0000 0.85070  0.27380  0.88820  Biso   1.000  C
  C97      1.0000 0.37920  0.40070  0.37150  Biso   1.000  C
  C98      1.0000 0.62080  0.40070  0.12850  Biso   1.000  C
  C99      1.0000 0.87920  0.90070  0.37150  Biso   1.000  C
  C100     1.0000 0.12080  0.90070  0.12850  Biso   1.000  C
  C101     1.0000 0.62080  0.59930  0.62850  Biso   1.000  C
  C102     1.0000 0.37920  0.59930  0.87150  Biso   1.000  C
  C103     1.0000 0.12080  0.09930  0.62850  Biso   1.000  C
  C104     1.0000 0.87920  0.09930  0.87150  Biso   1.000  C
  C105     1.0000 0.35120  0.57540  0.33900  Biso   1.000  C
  C106     1.0000 0.64880  0.57540  0.16100  Biso   1.000  C
  C107     1.0000 0.85120  0.07540  0.33900  Biso   1.000  C
  C108     1.0000 0.14880  0.07540  0.16100  Biso   1.000  C
  C109     1.0000 0.64880  0.42460  0.66100  Biso   1.000  C
  C110     1.0000 0.35120  0.42460  0.83900  Biso   1.000  C
  C111     1.0000 0.14880  0.92460  0.66100  Biso   1.000  C
  C112     1.0000 0.85120  0.92460  0.83900  Biso   1.000  C
  C113     1.0000 0.29350  0.58330  0.32300  Biso   1.000  C
  C114     1.0000 0.70650  0.58330  0.17700  Biso   1.000  C
  C115     1.0000 0.79350  0.08330  0.32300  Biso   1.000  C
  C116     1.0000 0.20650  0.08330  0.17700  Biso   1.000  C
  C117     1.0000 0.70650  0.41670  0.67700  Biso   1.000  C
  C118     1.0000 0.29350  0.41670  0.82300  Biso   1.000  C
  C119     1.0000 0.20650  0.91670  0.67700  Biso   1.000  C
  C120     1.0000 0.79350  0.91670  0.82300  Biso   1.000  C
  H1       1.0000 0.02610  0.19560  0.07940  Biso   1.000  H
  H2       1.0000 0.97390  0.19560  0.42060  Biso   1.000  H
  H3       1.0000 0.52610  0.69560  0.07940  Biso   1.000  H
  H4       1.0000 0.47390  0.69560  0.42060  Biso   1.000  H
  H5       1.0000 0.97390  0.80440  0.92060  Biso   1.000  H
  H6       1.0000 0.02610  0.80440  0.57940  Biso   1.000  H
  H7       1.0000 0.47390  0.30440  0.92060  Biso   1.000  H
  H8       1.0000 0.52610  0.30440  0.57940  Biso   1.000  H
  H9       1.0000 0.98760  0.86920  0.04700  Biso   1.000  H
  H10      1.0000 0.01240  0.86920  0.45300  Biso   1.000  H
  H11      1.0000 0.48760  0.36920  0.04700  Biso   1.000  H
  H12      1.0000 0.51240  0.36920  0.45300  Biso   1.000  H
  H13      1.0000 0.01240  0.13080  0.95300  Biso   1.000  H
  H14      1.0000 0.98760  0.13080  0.54700  Biso   1.000  H
  H15      1.0000 0.51240  0.63080  0.95300  Biso   1.000  H
  H16      1.0000 0.48760  0.63080  0.54700  Biso   1.000  H
  H17      1.0000 0.09320  0.07780  0.32240  Biso   1.000  H
  H18      1.0000 0.90680  0.07780  0.17760  Biso   1.000  H
  H19      1.0000 0.59320  0.57780  0.32240  Biso   1.000  H
  H20      1.0000 0.40680  0.57780  0.17760  Biso   1.000  H
  H21      1.0000 0.90680  0.92220  0.67760  Biso   1.000  H
  H22      1.0000 0.09320  0.92220  0.82240  Biso   1.000  H
  H23      1.0000 0.40680  0.42220  0.67760  Biso   1.000  H
  H24      1.0000 0.59320  0.42220  0.82240  Biso   1.000  H
  H25      1.0000 0.18090  0.13020  0.34500  Biso   1.000  H
  H26      1.0000 0.81910  0.13020  0.15500  Biso   1.000  H
  H27      1.0000 0.68090  0.63020  0.34500  Biso   1.000  H
  H28      1.0000 0.31910  0.63020  0.15500  Biso   1.000  H
  H29      1.0000 0.81910  0.86980  0.65500  Biso   1.000  H
  H30      1.0000 0.18090  0.86980  0.84500  Biso   1.000  H
  H31      1.0000 0.31910  0.36980  0.65500  Biso   1.000  H
  H32      1.0000 0.68090  0.36980  0.84500  Biso   1.000  H
  H33      1.0000 0.18950  0.70730  0.26890  Biso   1.000  H
  H34      1.0000 0.81050  0.70730  0.23110  Biso   1.000  H
  H35      1.0000 0.68950  0.20730  0.26890  Biso   1.000  H
  H36      1.0000 0.31050  0.20730  0.23110  Biso   1.000  H
  H37      1.0000 0.81050  0.29270  0.73110  Biso   1.000  H
  H38      1.0000 0.18950  0.29270  0.76890  Biso   1.000  H
  H39      1.0000 0.31050  0.79270  0.73110  Biso   1.000  H
  H40      1.0000 0.68950  0.79270  0.76890  Biso   1.000  H
  H41      1.0000 0.08590  0.69560  0.21910  Biso   1.000  H
  H42      1.0000 0.91410  0.69560  0.28090  Biso   1.000  H
  H43      1.0000 0.58590  0.19560  0.21910  Biso   1.000  H
  H44      1.0000 0.41410  0.19560  0.28090  Biso   1.000  H
  H45      1.0000 0.91410  0.30440  0.78090  Biso   1.000  H
  H46      1.0000 0.08590  0.30440  0.71910  Biso   1.000  H
  H47      1.0000 0.41410  0.80440  0.78090  Biso   1.000  H
  H48      1.0000 0.58590  0.80440  0.71910  Biso   1.000  H
  H49      1.0000 0.28090  0.11350  0.36380  Biso   1.000  H
  H50      1.0000 0.71910  0.11350  0.13620  Biso   1.000  H
  H51      1.0000 0.78090  0.61350  0.36380  Biso   1.000  H
  H52      1.0000 0.21910  0.61350  0.13620  Biso   1.000  H
  H53      1.0000 0.71910  0.88650  0.63620  Biso   1.000  H
  H54      1.0000 0.28090  0.88650  0.86380  Biso   1.000  H
  H55      1.0000 0.21910  0.38650  0.63620  Biso   1.000  H
  H56      1.0000 0.78090  0.38650  0.86380  Biso   1.000  H
  H57      1.0000 0.38070  0.08230  0.38220  Biso   1.000  H
  H58      1.0000 0.61930  0.08230  0.11780  Biso   1.000  H
  H59      1.0000 0.88070  0.58230  0.38220  Biso   1.000  H
  H60      1.0000 0.11930  0.58230  0.11780  Biso   1.000  H
  H61      1.0000 0.61930  0.91770  0.61780  Biso   1.000  H
  H62      1.0000 0.38070  0.91770  0.88220  Biso   1.000  H
  H63      1.0000 0.11930  0.41770  0.61780  Biso   1.000  H
  H64      1.0000 0.88070  0.41770  0.88220  Biso   1.000  H
  H65      1.0000 0.42160  0.38910  0.38200  Biso   1.000  H
  H66      1.0000 0.57840  0.38910  0.11800  Biso   1.000  H
  H67      1.0000 0.92160  0.88910  0.38200  Biso   1.000  H
  H68      1.0000 0.07840  0.88910  0.11800  Biso   1.000  H
  H69      1.0000 0.57840  0.61090  0.61800  Biso   1.000  H
  H70      1.0000 0.42160  0.61090  0.88200  Biso   1.000  H
  H71      1.0000 0.07840  0.11090  0.61800  Biso   1.000  H
  H72      1.0000 0.92160  0.11090  0.88200  Biso   1.000  H
  H73      1.0000 0.37010  0.67780  0.32850  Biso   1.000  H
  H74      1.0000 0.62990  0.67780  0.17150  Biso   1.000  H
  H75      1.0000 0.87010  0.17780  0.32850  Biso   1.000  H
  H76      1.0000 0.12990  0.17780  0.17150  Biso   1.000  H
  H77      1.0000 0.62990  0.32220  0.67150  Biso   1.000  H
  H78      1.0000 0.37010  0.32220  0.82850  Biso   1.000  H
  H79      1.0000 0.12990  0.82220  0.67150  Biso   1.000  H
  H80      1.0000 0.87010  0.82220  0.82850  Biso   1.000  H
  H81      1.0000 0.28000  0.68620  0.30100  Biso   1.000  H
  H82      1.0000 0.72000  0.68620  0.19900  Biso   1.000  H
  H83      1.0000 0.78000  0.18620  0.30100  Biso   1.000  H
  H84      1.0000 0.22000  0.18620  0.19900  Biso   1.000  H
  H85      1.0000 0.72000  0.31380  0.69900  Biso   1.000  H
  H86      1.0000 0.28000  0.31380  0.80100  Biso   1.000  H
  H87      1.0000 0.22000  0.81380  0.69900  Biso   1.000  H
  H88      1.0000 0.78000  0.81380  0.80100  Biso   1.000  H
  H89      1.0000 0.00380  0.90720  0.20640  Biso   1.000  H
  H90      1.0000 0.99620  0.90720  0.29360  Biso   1.000  H
  H91      1.0000 0.50380  0.40720  0.20640  Biso   1.000  H
  H92      1.0000 0.49620  0.40720  0.29360  Biso   1.000  H
  H93      1.0000 0.99620  0.09280  0.79360  Biso   1.000  H
  H94      1.0000 0.00380  0.09280  0.70640  Biso   1.000  H
  H95      1.0000 0.49620  0.59280  0.79360  Biso   1.000  H
  H96      1.0000 0.50380  0.59280  0.70640  Biso   1.000  H
