data_image0
_cell_length_a       17.8636
_cell_length_b       5.9305
_cell_length_c       22.001
_cell_angle_alpha    90
_cell_angle_beta     114.239
_cell_angle_gamma    90

_symmetry_space_group_name_H-M    "P 1"
_symmetry_int_tables_number       1

loop_
  _symmetry_equiv_pos_as_xyz
  'x, y, z'

loop_
  _atom_site_label
  _atom_site_occupancy
  _atom_site_fract_x
  _atom_site_fract_y
  _atom_site_fract_z
  _atom_site_thermal_displace_type
  _atom_site_B_iso_or_equiv
  _atom_site_type_symbol
  Cu1      1.0000 0.09200  0.43080  0.41200  Biso   1.000  Cu
  Cu2      1.0000 0.09200  0.56920  0.91200  Biso   1.000  Cu
  Cu3      1.0000 0.59200  0.93080  0.41200  Biso   1.000  Cu
  Cu4      1.0000 0.59200  0.06920  0.91200  Biso   1.000  Cu
  O1       1.0000 0.08900  0.04780  0.41100  Biso   1.000  O
  O2       1.0000 0.08900  0.95220  0.91100  Biso   1.000  O
  O3       1.0000 0.58900  0.54780  0.41100  Biso   1.000  O
  O4       1.0000 0.58900  0.45220  0.91100  Biso   1.000  O
  O5       1.0000 0.09400  0.41900  0.32500  Biso   1.000  O
  O6       1.0000 0.09400  0.58100  0.82500  Biso   1.000  O
  O7       1.0000 0.59400  0.91900  0.32500  Biso   1.000  O
  O8       1.0000 0.59400  0.08100  0.82500  Biso   1.000  O
  O9       1.0000 0.09000  0.56800  0.99800  Biso   1.000  O
  O10      1.0000 0.09000  0.43200  0.49800  Biso   1.000  O
  O11      1.0000 0.59000  0.06800  0.99800  Biso   1.000  O
  O12      1.0000 0.59000  0.93200  0.49800  Biso   1.000  O
  O13      1.0000 0.10100  0.79100  0.31200  Biso   1.000  O
  O14      1.0000 0.10100  0.20900  0.81200  Biso   1.000  O
  O15      1.0000 0.60100  0.29100  0.31200  Biso   1.000  O
  O16      1.0000 0.60100  0.70900  0.81200  Biso   1.000  O
  O17      1.0000 0.08300  0.20000  0.01400  Biso   1.000  O
  O18      1.0000 0.08300  0.80000  0.51400  Biso   1.000  O
  O19      1.0000 0.58300  0.70000  0.01400  Biso   1.000  O
  O20      1.0000 0.58300  0.30000  0.51400  Biso   1.000  O
  N1       1.0000 0.96500  0.44500  0.37000  Biso   1.000  N
  N2       1.0000 0.96500  0.55500  0.87000  Biso   1.000  N
  N3       1.0000 0.46500  0.94500  0.37000  Biso   1.000  N
  N4       1.0000 0.46500  0.05500  0.87000  Biso   1.000  N
  N5       1.0000 0.21600  0.46000  0.45200  Biso   1.000  N
  N6       1.0000 0.21600  0.54000  0.95200  Biso   1.000  N
  N7       1.0000 0.71600  0.96000  0.45200  Biso   1.000  N
  N8       1.0000 0.71600  0.04000  0.95200  Biso   1.000  N
  N9       1.0000 0.39200  0.09800  0.65900  Biso   1.000  N
  N10      1.0000 0.39200  0.90200  0.15900  Biso   1.000  N
  N11      1.0000 0.89200  0.59800  0.65900  Biso   1.000  N
  N12      1.0000 0.89200  0.40200  0.15900  Biso   1.000  N
  C1       1.0000 0.92500  0.61400  0.33000  Biso   1.000  C
  C2       1.0000 0.92500  0.38600  0.83000  Biso   1.000  C
  C3       1.0000 0.42500  0.11400  0.33000  Biso   1.000  C
  C4       1.0000 0.42500  0.88600  0.83000  Biso   1.000  C
  C5       1.0000 0.84000  0.61500  0.30400  Biso   1.000  C
  C6       1.0000 0.84000  0.38500  0.80400  Biso   1.000  C
  C7       1.0000 0.34000  0.11500  0.30400  Biso   1.000  C
  C8       1.0000 0.34000  0.88500  0.80400  Biso   1.000  C
  C9       1.0000 0.79200  0.45100  0.31000  Biso   1.000  C
  C10      1.0000 0.79200  0.54900  0.81000  Biso   1.000  C
  C11      1.0000 0.29200  0.95100  0.31000  Biso   1.000  C
  C12      1.0000 0.29200  0.04900  0.81000  Biso   1.000  C
  C13      1.0000 0.84100  0.28800  0.35300  Biso   1.000  C
  C14      1.0000 0.84100  0.71200  0.85300  Biso   1.000  C
  C15      1.0000 0.34100  0.78800  0.35300  Biso   1.000  C
  C16      1.0000 0.34100  0.21200  0.85300  Biso   1.000  C
  C17      1.0000 0.92100  0.26500  0.38100  Biso   1.000  C
  C18      1.0000 0.92100  0.73500  0.88100  Biso   1.000  C
  C19      1.0000 0.42100  0.76500  0.38100  Biso   1.000  C
  C20      1.0000 0.42100  0.23500  0.88100  Biso   1.000  C
  C21      1.0000 0.26100  0.62600  0.49100  Biso   1.000  C
  C22      1.0000 0.26100  0.37400  0.99100  Biso   1.000  C
  C23      1.0000 0.76100  0.12600  0.49100  Biso   1.000  C
  C24      1.0000 0.76100  0.87400  0.99100  Biso   1.000  C
  C25      1.0000 0.34400  0.63800  0.52200  Biso   1.000  C
  C26      1.0000 0.34400  0.36200  0.02200  Biso   1.000  C
  C27      1.0000 0.84400  0.13800  0.52200  Biso   1.000  C
  C28      1.0000 0.84400  0.86200  0.02200  Biso   1.000  C
  C29      1.0000 0.38100  0.45100  0.50600  Biso   1.000  C
  C30      1.0000 0.38100  0.54900  0.00600  Biso   1.000  C
  C31      1.0000 0.88100  0.95100  0.50600  Biso   1.000  C
  C32      1.0000 0.88100  0.04900  0.00600  Biso   1.000  C
  C33      1.0000 0.34300  0.27600  0.46900  Biso   1.000  C
  C34      1.0000 0.34300  0.72400  0.96900  Biso   1.000  C
  C35      1.0000 0.84300  0.77600  0.46900  Biso   1.000  C
  C36      1.0000 0.84300  0.22400  0.96900  Biso   1.000  C
  C37      1.0000 0.25700  0.30200  0.44200  Biso   1.000  C
  C38      1.0000 0.25700  0.69800  0.94200  Biso   1.000  C
  C39      1.0000 0.75700  0.80200  0.44200  Biso   1.000  C
  C40      1.0000 0.75700  0.19800  0.94200  Biso   1.000  C
  C41      1.0000 0.09800  0.59400  0.29100  Biso   1.000  C
  C42      1.0000 0.09800  0.40600  0.79100  Biso   1.000  C
  C43      1.0000 0.59800  0.09400  0.29100  Biso   1.000  C
  C44      1.0000 0.59800  0.90600  0.79100  Biso   1.000  C
  C45      1.0000 0.09600  0.53600  0.22500  Biso   1.000  C
  C46      1.0000 0.09600  0.46400  0.72500  Biso   1.000  C
  C47      1.0000 0.59600  0.03600  0.22500  Biso   1.000  C
  C48      1.0000 0.59600  0.96400  0.72500  Biso   1.000  C
  C49      1.0000 0.08600  0.39700  0.03000  Biso   1.000  C
  C50      1.0000 0.08600  0.60300  0.53000  Biso   1.000  C
  C51      1.0000 0.58600  0.89700  0.03000  Biso   1.000  C
  C52      1.0000 0.58600  0.10300  0.53000  Biso   1.000  C
  C53      1.0000 0.08700  0.44400  0.09800  Biso   1.000  C
  C54      1.0000 0.08700  0.55600  0.59800  Biso   1.000  C
  C55      1.0000 0.58700  0.94400  0.09800  Biso   1.000  C
  C56      1.0000 0.58700  0.05600  0.59800  Biso   1.000  C
  C57      1.0000 0.10800  0.28700  0.14600  Biso   1.000  C
  C58      1.0000 0.10800  0.71300  0.64600  Biso   1.000  C
  C59      1.0000 0.60800  0.78700  0.14600  Biso   1.000  C
  C60      1.0000 0.60800  0.21300  0.64600  Biso   1.000  C
  C61      1.0000 0.11100  0.34900  0.20900  Biso   1.000  C
  C62      1.0000 0.11100  0.65100  0.70900  Biso   1.000  C
  C63      1.0000 0.61100  0.84900  0.20900  Biso   1.000  C
  C64      1.0000 0.61100  0.15100  0.70900  Biso   1.000  C
  C65      1.0000 0.06700  0.68500  0.11200  Biso   1.000  C
  C66      1.0000 0.06700  0.31500  0.61200  Biso   1.000  C
  C67      1.0000 0.56700  0.18500  0.11200  Biso   1.000  C
  C68      1.0000 0.56700  0.81500  0.61200  Biso   1.000  C
  C69      1.0000 0.06900  0.71800  0.17500  Biso   1.000  C
  C70      1.0000 0.06900  0.28200  0.67500  Biso   1.000  C
  C71      1.0000 0.56900  0.21800  0.17500  Biso   1.000  C
  C72      1.0000 0.56900  0.78200  0.67500  Biso   1.000  C
  C73      1.0000 0.26400  0.20100  0.61800  Biso   1.000  C
  C74      1.0000 0.26400  0.79900  0.11800  Biso   1.000  C
  C75      1.0000 0.76400  0.70100  0.61800  Biso   1.000  C
  C76      1.0000 0.76400  0.29900  0.11800  Biso   1.000  C
  C77      1.0000 0.31800  0.07400  0.61800  Biso   1.000  C
  C78      1.0000 0.31800  0.92600  0.11800  Biso   1.000  C
  C79      1.0000 0.81800  0.57400  0.61800  Biso   1.000  C
  C80      1.0000 0.81800  0.42600  0.11800  Biso   1.000  C
  C81      1.0000 0.42000  0.27300  0.70200  Biso   1.000  C
  C82      1.0000 0.42000  0.72700  0.20200  Biso   1.000  C
  C83      1.0000 0.92000  0.77300  0.70200  Biso   1.000  C
  C84      1.0000 0.92000  0.22700  0.20200  Biso   1.000  C
  C85      1.0000 0.36800  0.45300  0.68500  Biso   1.000  C
  C86      1.0000 0.36800  0.54700  0.18500  Biso   1.000  C
  C87      1.0000 0.86800  0.95300  0.68500  Biso   1.000  C
  C88      1.0000 0.86800  0.04700  0.18500  Biso   1.000  C
  C89      1.0000 0.28700  0.40700  0.63600  Biso   1.000  C
  C90      1.0000 0.28700  0.59300  0.13600  Biso   1.000  C
  C91      1.0000 0.78700  0.90700  0.63600  Biso   1.000  C
  C92      1.0000 0.78700  0.09300  0.13600  Biso   1.000  C
  H1       1.0000 0.08660  0.96880  0.37230  Biso   1.000  H
  H2       1.0000 0.08660  0.03120  0.87230  Biso   1.000  H
  H3       1.0000 0.58660  0.46880  0.37230  Biso   1.000  H
  H4       1.0000 0.58660  0.53120  0.87230  Biso   1.000  H
  H5       1.0000 0.08530  0.96680  0.44670  Biso   1.000  H
  H6       1.0000 0.08530  0.03320  0.94670  Biso   1.000  H
  H7       1.0000 0.58530  0.46680  0.44670  Biso   1.000  H
  H8       1.0000 0.58530  0.53320  0.94670  Biso   1.000  H
  H9       1.0000 0.95310  0.73360  0.32310  Biso   1.000  H
  H10      1.0000 0.95310  0.26640  0.82310  Biso   1.000  H
  H11      1.0000 0.45310  0.23360  0.32310  Biso   1.000  H
  H12      1.0000 0.45310  0.76640  0.82310  Biso   1.000  H
  H13      1.0000 0.81270  0.73170  0.27250  Biso   1.000  H
  H14      1.0000 0.81270  0.26830  0.77250  Biso   1.000  H
  H15      1.0000 0.31270  0.23170  0.27250  Biso   1.000  H
  H16      1.0000 0.31270  0.76830  0.77250  Biso   1.000  H
  H17      1.0000 0.73190  0.43430  0.28980  Biso   1.000  H
  H18      1.0000 0.73190  0.56570  0.78980  Biso   1.000  H
  H19      1.0000 0.23190  0.93430  0.28980  Biso   1.000  H
  H20      1.0000 0.23190  0.06570  0.78980  Biso   1.000  H
  H21      1.0000 0.81480  0.16860  0.36260  Biso   1.000  H
  H22      1.0000 0.81480  0.83140  0.86260  Biso   1.000  H
  H23      1.0000 0.31480  0.66860  0.36260  Biso   1.000  H
  H24      1.0000 0.31480  0.33140  0.86260  Biso   1.000  H
  H25      1.0000 0.94580  0.14160  0.41050  Biso   1.000  H
  H26      1.0000 0.94580  0.85840  0.91050  Biso   1.000  H
  H27      1.0000 0.44580  0.64160  0.41050  Biso   1.000  H
  H28      1.0000 0.44580  0.35840  0.91050  Biso   1.000  H
  H29      1.0000 0.23120  0.74620  0.50110  Biso   1.000  H
  H30      1.0000 0.23120  0.25380  0.00110  Biso   1.000  H
  H31      1.0000 0.73120  0.24620  0.50110  Biso   1.000  H
  H32      1.0000 0.73120  0.75380  0.00110  Biso   1.000  H
  H33      1.0000 0.37330  0.76570  0.54390  Biso   1.000  H
  H34      1.0000 0.37330  0.23430  0.04390  Biso   1.000  H
  H35      1.0000 0.87330  0.26570  0.54390  Biso   1.000  H
  H36      1.0000 0.87330  0.73430  0.04390  Biso   1.000  H
  H37      1.0000 0.43830  0.46020  0.52650  Biso   1.000  H
  H38      1.0000 0.43830  0.53980  0.02650  Biso   1.000  H
  H39      1.0000 0.93830  0.96020  0.52650  Biso   1.000  H
  H40      1.0000 0.93830  0.03980  0.02650  Biso   1.000  H
  H41      1.0000 0.37390  0.15160  0.46110  Biso   1.000  H
  H42      1.0000 0.37390  0.84840  0.96110  Biso   1.000  H
  H43      1.0000 0.87390  0.65160  0.46110  Biso   1.000  H
  H44      1.0000 0.87390  0.34840  0.96110  Biso   1.000  H
  H45      1.0000 0.22440  0.18360  0.41480  Biso   1.000  H
  H46      1.0000 0.22440  0.81640  0.91480  Biso   1.000  H
  H47      1.0000 0.72440  0.68360  0.41480  Biso   1.000  H
  H48      1.0000 0.72440  0.31640  0.91480  Biso   1.000  H
  H49      1.0000 0.11790  0.13910  0.13570  Biso   1.000  H
  H50      1.0000 0.11790  0.86090  0.63570  Biso   1.000  H
  H51      1.0000 0.61790  0.63910  0.13570  Biso   1.000  H
  H52      1.0000 0.61790  0.36090  0.63570  Biso   1.000  H
  H53      1.0000 0.05270  0.79830  0.07920  Biso   1.000  H
  H54      1.0000 0.05270  0.20170  0.57920  Biso   1.000  H
  H55      1.0000 0.55270  0.29830  0.07920  Biso   1.000  H
  H56      1.0000 0.55270  0.70170  0.57920  Biso   1.000  H
  H57      1.0000 0.20930  0.15050  0.60590  Biso   1.000  H
  H58      1.0000 0.20930  0.84950  0.10590  Biso   1.000  H
  H59      1.0000 0.70930  0.65050  0.60590  Biso   1.000  H
  H60      1.0000 0.70930  0.34950  0.10590  Biso   1.000  H
  H61      1.0000 0.30640  0.95210  0.58850  Biso   1.000  H
  H62      1.0000 0.30640  0.04790  0.08850  Biso   1.000  H
  H63      1.0000 0.80640  0.45210  0.58850  Biso   1.000  H
  H64      1.0000 0.80640  0.54790  0.08850  Biso   1.000  H
  H65      1.0000 0.47010  0.27690  0.74010  Biso   1.000  H
  H66      1.0000 0.47010  0.72310  0.24010  Biso   1.000  H
  H67      1.0000 0.97010  0.77690  0.74010  Biso   1.000  H
  H68      1.0000 0.97010  0.22310  0.24010  Biso   1.000  H
  H69      1.0000 0.38510  0.59770  0.70690  Biso   1.000  H
  H70      1.0000 0.38510  0.40230  0.20690  Biso   1.000  H
  H71      1.0000 0.88510  0.09770  0.70690  Biso   1.000  H
  H72      1.0000 0.88510  0.90230  0.20690  Biso   1.000  H
  H73      1.0000 0.24690  0.53070  0.61780  Biso   1.000  H
  H74      1.0000 0.24690  0.46930  0.11780  Biso   1.000  H
  H75      1.0000 0.74690  0.03070  0.61780  Biso   1.000  H
  H76      1.0000 0.74690  0.96930  0.11780  Biso   1.000  H
