data_image0
_cell_length_a       7.456
_cell_length_b       11.283
_cell_length_c       11.326
_cell_angle_alpha    78.15
_cell_angle_beta     89.07
_cell_angle_gamma    88.32

_symmetry_space_group_name_H-M    "P 1"
_symmetry_int_tables_number       1

loop_
  _symmetry_equiv_pos_as_xyz
  'x, y, z'

loop_
  _atom_site_label
  _atom_site_occupancy
  _atom_site_fract_x
  _atom_site_fract_y
  _atom_site_fract_z
  _atom_site_thermal_displace_type
  _atom_site_B_iso_or_equiv
  _atom_site_type_symbol
  Cu1      1.0000 0.75592  0.87953  0.83551  Biso   1.000  Cu
  Cu2      1.0000 0.24408  0.12047  0.16449  Biso   1.000  Cu
  Na1      1.0000 0.00000  0.00000  0.00000  Biso   1.000  Na
  Na2      1.0000 0.50000  0.00000  0.00000  Biso   1.000  Na
  Cl1      1.0000 0.24640  0.87841  0.78934  Biso   1.000  Cl
  Cl2      1.0000 0.75360  0.12159  0.21066  Biso   1.000  Cl
  O1       1.0000 0.76380  0.04610  0.85040  Biso   1.000  O
  O2       1.0000 0.23620  0.95390  0.14960  Biso   1.000  O
  O3       1.0000 0.74180  0.84650  0.00800  Biso   1.000  O
  O4       1.0000 0.25820  0.15350  0.99200  Biso   1.000  O
  O5       1.0000 0.40090  0.91840  0.84070  Biso   1.000  O
  O6       1.0000 0.59910  0.08160  0.15930  Biso   1.000  O
  O7       1.0000 0.29440  0.77240  0.74640  Biso   1.000  O
  O8       1.0000 0.70560  0.22760  0.25360  Biso   1.000  O
  O9       1.0000 0.18840  0.96850  0.68790  Biso   1.000  O
  O10      1.0000 0.81160  0.03150  0.31210  Biso   1.000  O
  O11      1.0000 0.10410  0.85670  0.87630  Biso   1.000  O
  O12      1.0000 0.89590  0.14330  0.12370  Biso   1.000  O
  N1       1.0000 0.78590  0.91880  0.65540  Biso   1.000  N
  N2       1.0000 0.21410  0.08120  0.34460  Biso   1.000  N
  H1       1.0000 0.90410  0.93090  0.63730  Biso   1.000  H
  H2       1.0000 0.09590  0.06910  0.36270  Biso   1.000  H
  C1       1.0000 0.80070  0.14270  0.76070  Biso   1.000  C
  C2       1.0000 0.19930  0.85730  0.23930  Biso   1.000  C
  N3       1.0000 0.72750  0.70750  0.81930  Biso   1.000  N
  N4       1.0000 0.27250  0.29250  0.18070  Biso   1.000  N
  H3       1.0000 0.60800  0.69280  0.82280  Biso   1.000  H
  H4       1.0000 0.39200  0.30720  0.17720  Biso   1.000  H
  C3       1.0000 0.87280  0.24570  0.78620  Biso   1.000  C
  C4       1.0000 0.12720  0.75430  0.21380  Biso   1.000  C
  H5       1.0000 0.89560  0.24800  0.86620  Biso   1.000  H
  H6       1.0000 0.10440  0.75200  0.13380  Biso   1.000  H
  C5       1.0000 0.91220  0.34480  0.69810  Biso   1.000  C
  C6       1.0000 0.08780  0.65520  0.30190  Biso   1.000  C
  H7       1.0000 0.96220  0.41220  0.71880  Biso   1.000  H
  H8       1.0000 0.03780  0.58780  0.28120  Biso   1.000  H
  C7       1.0000 0.87760  0.34440  0.57840  Biso   1.000  C
  C8       1.0000 0.12240  0.65560  0.42160  Biso   1.000  C
  H9       1.0000 0.90400  0.41080  0.51770  Biso   1.000  H
  H10      1.0000 0.09600  0.58920  0.48230  Biso   1.000  H
  C9       1.0000 0.80260  0.24270  0.55210  Biso   1.000  C
  C10      1.0000 0.19740  0.75730  0.44790  Biso   1.000  C
  H11      1.0000 0.77690  0.24280  0.47200  Biso   1.000  H
  H12      1.0000 0.22310  0.75720  0.52800  Biso   1.000  H
  C11      1.0000 0.76350  0.14040  0.63820  Biso   1.000  C
  C12      1.0000 0.23650  0.85960  0.36180  Biso   1.000  C
  C13      1.0000 0.68380  0.03080  0.60510  Biso   1.000  C
  C14      1.0000 0.31620  0.96920  0.39490  Biso   1.000  C
  H13      1.0000 0.56100  0.02340  0.63480  Biso   1.000  H
  H14      1.0000 0.43900  0.97660  0.36520  Biso   1.000  H
  H15      1.0000 0.68130  0.04160  0.51790  Biso   1.000  H
  H16      1.0000 0.31870  0.95840  0.48210  Biso   1.000  H
  C15      1.0000 0.72940  0.80990  0.60930  Biso   1.000  C
  C16      1.0000 0.27060  0.19010  0.39070  Biso   1.000  C
  H17      1.0000 0.59970  0.81030  0.60310  Biso   1.000  H
  H18      1.0000 0.40030  0.18970  0.39690  Biso   1.000  H
  H19      1.0000 0.78110  0.81140  0.52990  Biso   1.000  H
  H20      1.0000 0.21890  0.18860  0.47010  Biso   1.000  H
  C17      1.0000 0.79340  0.69890  0.69580  Biso   1.000  C
  C18      1.0000 0.20660  0.30110  0.30420  Biso   1.000  C
  H21      1.0000 0.92350  0.69320  0.69440  Biso   1.000  H
  H22      1.0000 0.07650  0.30680  0.30560  Biso   1.000  H
  H23      1.0000 0.74740  0.62710  0.67330  Biso   1.000  H
  H24      1.0000 0.25260  0.37290  0.32670  Biso   1.000  H
  C19      1.0000 0.81480  0.61930  0.92040  Biso   1.000  C
  C20      1.0000 0.18520  0.38070  0.07960  Biso   1.000  C
  H25      1.0000 0.94120  0.63660  0.92250  Biso   1.000  H
  H26      1.0000 0.05880  0.36340  0.07750  Biso   1.000  H
  H27      1.0000 0.80520  0.53780  0.90610  Biso   1.000  H
  H28      1.0000 0.19480  0.46220  0.09390  Biso   1.000  H
  C21      1.0000 0.72880  0.62600  0.03980  Biso   1.000  C
  C22      1.0000 0.27120  0.37400  0.96020  Biso   1.000  C
  C23      1.0000 0.69060  0.51860  0.12140  Biso   1.000  C
  C24      1.0000 0.30940  0.48140  0.87860  Biso   1.000  C
  H29      1.0000 0.71230  0.44510  0.09800  Biso   1.000  H
  H30      1.0000 0.28770  0.55490  0.90200  Biso   1.000  H
  C25      1.0000 0.62170  0.51790  0.23530  Biso   1.000  C
  C26      1.0000 0.37830  0.48210  0.76470  Biso   1.000  C
  H31      1.0000 0.59570  0.44490  0.28680  Biso   1.000  H
  H32      1.0000 0.40430  0.55510  0.71320  Biso   1.000  H
  C27      1.0000 0.59150  0.62590  0.27240  Biso   1.000  C
  C28      1.0000 0.40850  0.37410  0.72760  Biso   1.000  C
  H33      1.0000 0.54440  0.62630  0.34890  Biso   1.000  H
  H34      1.0000 0.45560  0.37370  0.65110  Biso   1.000  H
  C29      1.0000 0.63240  0.73480  0.19390  Biso   1.000  C
  C30      1.0000 0.36760  0.26520  0.80610  Biso   1.000  C
  H35      1.0000 0.61220  0.80740  0.21950  Biso   1.000  H
  H36      1.0000 0.38780  0.19260  0.78050  Biso   1.000  H
  C31      1.0000 0.70350  0.73800  0.07700  Biso   1.000  C
  C32      1.0000 0.29650  0.26200  0.92300  Biso   1.000  C
