data_image0
_cell_length_a       10.5626
_cell_length_b       15.3884
_cell_length_c       13.7398
_cell_angle_alpha    90
_cell_angle_beta     100.219
_cell_angle_gamma    90

_symmetry_space_group_name_H-M    "P 1"
_symmetry_int_tables_number       1

loop_
  _symmetry_equiv_pos_as_xyz
  'x, y, z'

loop_
  _atom_site_label
  _atom_site_occupancy
  _atom_site_fract_x
  _atom_site_fract_y
  _atom_site_fract_z
  _atom_site_thermal_displace_type
  _atom_site_B_iso_or_equiv
  _atom_site_type_symbol
  C1       1.0000 0.00000  0.52760  0.75000  Biso   1.000  C
  C2       1.0000 0.00000  0.47240  0.25000  Biso   1.000  C
  C3       1.0000 0.99910  0.47270  0.84210  Biso   1.000  C
  C4       1.0000 0.99910  0.52730  0.34210  Biso   1.000  C
  C5       1.0000 0.00090  0.52730  0.15790  Biso   1.000  C
  C6       1.0000 0.00090  0.47270  0.65790  Biso   1.000  C
  H1       1.0000 0.01320  0.51360  0.90700  Biso   1.000  H
  H2       1.0000 0.01320  0.48640  0.40700  Biso   1.000  H
  H3       1.0000 0.98680  0.48640  0.09300  Biso   1.000  H
  H4       1.0000 0.98680  0.51360  0.59300  Biso   1.000  H
  H5       1.0000 0.90770  0.44000  0.83710  Biso   1.000  H
  H6       1.0000 0.90770  0.56000  0.33710  Biso   1.000  H
  H7       1.0000 0.09230  0.56000  0.16290  Biso   1.000  H
  H8       1.0000 0.09230  0.44000  0.66290  Biso   1.000  H
  C7       1.0000 0.13540  0.37150  0.93750  Biso   1.000  C
  C8       1.0000 0.13540  0.62850  0.43750  Biso   1.000  C
  C9       1.0000 0.86460  0.62850  0.06250  Biso   1.000  C
  C10      1.0000 0.86460  0.37150  0.56250  Biso   1.000  C
  C11      1.0000 0.23760  0.30580  0.93820  Biso   1.000  C
  C12      1.0000 0.23760  0.69420  0.43820  Biso   1.000  C
  C13      1.0000 0.76240  0.69420  0.06180  Biso   1.000  C
  C14      1.0000 0.76240  0.30580  0.56180  Biso   1.000  C
  C15      1.0000 0.30530  0.29810  0.86080  Biso   1.000  C
  C16      1.0000 0.30530  0.70190  0.36080  Biso   1.000  C
  C17      1.0000 0.69470  0.70190  0.13920  Biso   1.000  C
  C18      1.0000 0.69470  0.29810  0.63920  Biso   1.000  C
  H9       1.0000 0.28440  0.34270  0.79930  Biso   1.000  H
  H10      1.0000 0.28440  0.65730  0.29930  Biso   1.000  H
  H11      1.0000 0.71560  0.65730  0.20070  Biso   1.000  H
  H12      1.0000 0.71560  0.34270  0.70070  Biso   1.000  H
  C19      1.0000 0.42000  0.18120  0.93650  Biso   1.000  C
  C20      1.0000 0.42000  0.81880  0.43650  Biso   1.000  C
  C21      1.0000 0.58000  0.81880  0.06350  Biso   1.000  C
  C22      1.0000 0.58000  0.18120  0.56350  Biso   1.000  C
  H13      1.0000 0.49070  0.13080  0.93480  Biso   1.000  H
  H14      1.0000 0.49070  0.86920  0.43480  Biso   1.000  H
  H15      1.0000 0.50930  0.86920  0.06520  Biso   1.000  H
  H16      1.0000 0.50930  0.13080  0.56520  Biso   1.000  H
  C23      1.0000 0.35840  0.18570  0.01670  Biso   1.000  C
  C24      1.0000 0.35840  0.81430  0.51670  Biso   1.000  C
  C25      1.0000 0.64160  0.81430  0.98330  Biso   1.000  C
  C26      1.0000 0.64160  0.18570  0.48330  Biso   1.000  C
  H17      1.0000 0.38230  0.14090  0.07770  Biso   1.000  H
  H18      1.0000 0.38230  0.85910  0.57770  Biso   1.000  H
  H19      1.0000 0.61770  0.85910  0.92230  Biso   1.000  H
  H20      1.0000 0.61770  0.14090  0.42230  Biso   1.000  H
  C27      1.0000 0.26520  0.24890  0.01740  Biso   1.000  C
  C28      1.0000 0.26520  0.75110  0.51740  Biso   1.000  C
  C29      1.0000 0.73480  0.75110  0.98260  Biso   1.000  C
  C30      1.0000 0.73480  0.24890  0.48260  Biso   1.000  C
  H21      1.0000 0.21460  0.25380  0.07900  Biso   1.000  H
  H22      1.0000 0.21460  0.74620  0.57900  Biso   1.000  H
  H23      1.0000 0.78540  0.74620  0.92100  Biso   1.000  H
  H24      1.0000 0.78540  0.25380  0.42100  Biso   1.000  H
  C31      1.0000 0.12190  0.58370  0.75960  Biso   1.000  C
  C32      1.0000 0.12190  0.41630  0.25960  Biso   1.000  C
  C33      1.0000 0.87810  0.41630  0.24040  Biso   1.000  C
  C34      1.0000 0.87810  0.58370  0.74040  Biso   1.000  C
  H25      1.0000 0.20590  0.54240  0.77050  Biso   1.000  H
  H26      1.0000 0.20590  0.45760  0.27050  Biso   1.000  H
  H27      1.0000 0.79410  0.45760  0.22950  Biso   1.000  H
  H28      1.0000 0.79410  0.54240  0.72950  Biso   1.000  H
  H29      1.0000 0.12060  0.62040  0.69250  Biso   1.000  H
  H30      1.0000 0.12060  0.37960  0.19250  Biso   1.000  H
  H31      1.0000 0.87940  0.37960  0.30750  Biso   1.000  H
  H32      1.0000 0.87940  0.62040  0.80750  Biso   1.000  H
  C35      1.0000 0.21810  0.62910  0.92100  Biso   1.000  C
  C36      1.0000 0.21810  0.37090  0.42100  Biso   1.000  C
  C37      1.0000 0.78190  0.37090  0.07900  Biso   1.000  C
  C38      1.0000 0.78190  0.62910  0.57900  Biso   1.000  C
  C39      1.0000 0.21900  0.69670  0.99830  Biso   1.000  C
  C40      1.0000 0.21900  0.30330  0.49830  Biso   1.000  C
  C41      1.0000 0.78100  0.30330  0.00170  Biso   1.000  C
  C42      1.0000 0.78100  0.69670  0.50170  Biso   1.000  C
  C43      1.0000 0.32470  0.70040  0.07350  Biso   1.000  C
  C44      1.0000 0.32470  0.29960  0.57350  Biso   1.000  C
  C45      1.0000 0.67530  0.29960  0.92650  Biso   1.000  C
  C46      1.0000 0.67530  0.70040  0.42650  Biso   1.000  C
  H33      1.0000 0.40140  0.65390  0.07370  Biso   1.000  H
  H34      1.0000 0.40140  0.34610  0.57370  Biso   1.000  H
  H35      1.0000 0.59860  0.34610  0.92630  Biso   1.000  H
  H36      1.0000 0.59860  0.65390  0.42630  Biso   1.000  H
  C47      1.0000 0.23870  0.81520  0.14630  Biso   1.000  C
  C48      1.0000 0.23870  0.18480  0.64630  Biso   1.000  C
  C49      1.0000 0.76130  0.18480  0.85370  Biso   1.000  C
  C50      1.0000 0.76130  0.81520  0.35370  Biso   1.000  C
  H37      1.0000 0.24540  0.86180  0.20580  Biso   1.000  H
  H38      1.0000 0.24540  0.13820  0.70580  Biso   1.000  H
  H39      1.0000 0.75460  0.13820  0.79420  Biso   1.000  H
  H40      1.0000 0.75460  0.86180  0.29420  Biso   1.000  H
  C51      1.0000 0.13030  0.81580  0.07370  Biso   1.000  C
  C52      1.0000 0.13030  0.18420  0.57370  Biso   1.000  C
  C53      1.0000 0.86970  0.18420  0.92630  Biso   1.000  C
  C54      1.0000 0.86970  0.81580  0.42630  Biso   1.000  C
  H41      1.0000 0.05430  0.86220  0.07660  Biso   1.000  H
  H42      1.0000 0.05430  0.13780  0.57660  Biso   1.000  H
  H43      1.0000 0.94570  0.13780  0.92340  Biso   1.000  H
  H44      1.0000 0.94570  0.86220  0.42340  Biso   1.000  H
  C55      1.0000 0.11980  0.75630  0.99680  Biso   1.000  C
  C56      1.0000 0.11980  0.24370  0.49680  Biso   1.000  C
  C57      1.0000 0.88020  0.24370  0.00320  Biso   1.000  C
  C58      1.0000 0.88020  0.75630  0.50320  Biso   1.000  C
  H45      1.0000 0.03730  0.75620  0.93780  Biso   1.000  H
  H46      1.0000 0.03730  0.24380  0.43780  Biso   1.000  H
  H47      1.0000 0.96270  0.24380  0.06220  Biso   1.000  H
  H48      1.0000 0.96270  0.75620  0.56220  Biso   1.000  H
  N1       1.0000 0.39540  0.23740  0.85980  Biso   1.000  N
  N2       1.0000 0.39540  0.76260  0.35980  Biso   1.000  N
  N3       1.0000 0.60460  0.76260  0.14020  Biso   1.000  N
  N4       1.0000 0.60460  0.23740  0.64020  Biso   1.000  N
  N5       1.0000 0.33570  0.75980  0.14640  Biso   1.000  N
  N6       1.0000 0.33570  0.24020  0.64640  Biso   1.000  N
  N7       1.0000 0.66430  0.24020  0.85360  Biso   1.000  N
  N8       1.0000 0.66430  0.75980  0.35360  Biso   1.000  N
  O1       1.0000 0.10230  0.40951  0.84913  Biso   1.000  O
  O2       1.0000 0.10230  0.59049  0.34913  Biso   1.000  O
  O3       1.0000 0.89770  0.59049  0.15087  Biso   1.000  O
  O4       1.0000 0.89770  0.40951  0.65087  Biso   1.000  O
  O5       1.0000 0.08480  0.38710  0.00690  Biso   1.000  O
  O6       1.0000 0.08480  0.61290  0.50690  Biso   1.000  O
  O7       1.0000 0.91520  0.61290  0.99310  Biso   1.000  O
  O8       1.0000 0.91520  0.38710  0.49310  Biso   1.000  O
  O9       1.0000 0.12830  0.64270  0.84283  Biso   1.000  O
  O10      1.0000 0.12830  0.35730  0.34283  Biso   1.000  O
  O11      1.0000 0.87170  0.35730  0.15717  Biso   1.000  O
  O12      1.0000 0.87170  0.64270  0.65717  Biso   1.000  O
  O13      1.0000 0.29090  0.56750  0.93050  Biso   1.000  O
  O14      1.0000 0.29090  0.43250  0.43050  Biso   1.000  O
  O15      1.0000 0.70910  0.43250  0.06950  Biso   1.000  O
  O16      1.0000 0.70910  0.56750  0.56950  Biso   1.000  O
  S1       1.0000 0.50000  0.99750  0.75000  Biso   1.000  S
  S2       1.0000 0.50000  0.00250  0.25000  Biso   1.000  S
  O17      1.0000 0.53400  0.08200  0.76700  Biso   1.000  O
  O18      1.0000 0.53400  0.91800  0.26700  Biso   1.000  O
  O19      1.0000 0.46600  0.91800  0.23300  Biso   1.000  O
  O20      1.0000 0.46600  0.08200  0.73300  Biso   1.000  O
  O21      1.0000 0.55700  0.95360  0.67000  Biso   1.000  O
  O22      1.0000 0.55700  0.04640  0.17000  Biso   1.000  O
  O23      1.0000 0.44300  0.04640  0.33000  Biso   1.000  O
  O24      1.0000 0.44300  0.95360  0.83000  Biso   1.000  O
  O25      1.0000 0.54900  0.92600  0.76300  Biso   1.000  O
  O26      1.0000 0.54900  0.07400  0.26300  Biso   1.000  O
  O27      1.0000 0.45100  0.07400  0.23700  Biso   1.000  O
  O28      1.0000 0.45100  0.92600  0.73700  Biso   1.000  O
  O29      1.0000 0.61100  0.99280  0.85000  Biso   1.000  O
  O30      1.0000 0.61100  0.00720  0.35000  Biso   1.000  O
  O31      1.0000 0.38900  0.00720  0.15000  Biso   1.000  O
  O32      1.0000 0.38900  0.99280  0.65000  Biso   1.000  O
  O33      1.0000 0.33460  0.01030  0.76400  Biso   1.000  O
  O34      1.0000 0.33460  0.98970  0.26400  Biso   1.000  O
  O35      1.0000 0.66540  0.98970  0.23600  Biso   1.000  O
  O36      1.0000 0.66540  0.01030  0.73600  Biso   1.000  O
  S3       1.0000 0.46440  0.00460  0.73620  Biso   1.000  S
  S4       1.0000 0.46440  0.99540  0.23620  Biso   1.000  S
  S5       1.0000 0.53560  0.99540  0.26380  Biso   1.000  S
  S6       1.0000 0.53560  0.00460  0.76380  Biso   1.000  S
  O37      1.0000 0.50000  0.09200  0.75000  Biso   1.000  O
  O38      1.0000 0.50000  0.90800  0.25000  Biso   1.000  O
  O39      1.0000 0.53300  0.93800  0.78700  Biso   1.000  O
  O40      1.0000 0.53300  0.06200  0.28700  Biso   1.000  O
  O41      1.0000 0.46700  0.06200  0.21300  Biso   1.000  O
  O42      1.0000 0.46700  0.93800  0.71300  Biso   1.000  O
  O43      1.0000 0.54200  0.99840  0.87890  Biso   1.000  O
  O44      1.0000 0.54200  0.00160  0.37890  Biso   1.000  O
  O45      1.0000 0.45800  0.00160  0.12110  Biso   1.000  O
  O46      1.0000 0.45800  0.99840  0.62110  Biso   1.000  O
  O47      1.0000 0.39600  0.95400  0.77200  Biso   1.000  O
  O48      1.0000 0.39600  0.04600  0.27200  Biso   1.000  O
  O49      1.0000 0.60400  0.04600  0.22800  Biso   1.000  O
  O50      1.0000 0.60400  0.95400  0.72800  Biso   1.000  O
  Cu1      1.0000 0.50000  0.23310  0.75000  Biso   1.000  Cu
  Cu2      1.0000 0.50000  0.76690  0.25000  Biso   1.000  Cu
  O51      1.0000 0.50000  0.39910  0.75000  Biso   1.000  O
  O52      1.0000 0.50000  0.60090  0.25000  Biso   1.000  O
  H49      1.0000 0.55000  0.44100  0.79700  Biso   1.000  H
  H50      1.0000 0.55000  0.55900  0.29700  Biso   1.000  H
  H51      1.0000 0.45000  0.55900  0.20300  Biso   1.000  H
  H52      1.0000 0.45000  0.44100  0.70300  Biso   1.000  H
  O53      1.0000 0.89530  0.19610  0.29830  Biso   1.000  O
  O54      1.0000 0.89530  0.80390  0.79830  Biso   1.000  O
  O55      1.0000 0.10470  0.80390  0.70170  Biso   1.000  O
  O56      1.0000 0.10470  0.19610  0.20170  Biso   1.000  O
  H53      1.0000 0.90500  0.13540  0.32500  Biso   1.000  H
  H54      1.0000 0.90500  0.86460  0.82500  Biso   1.000  H
  H55      1.0000 0.09500  0.86460  0.67500  Biso   1.000  H
  H56      1.0000 0.09500  0.13540  0.17500  Biso   1.000  H
  H57      1.0000 0.81400  0.19700  0.24900  Biso   1.000  H
  H58      1.0000 0.81400  0.80300  0.74900  Biso   1.000  H
  H59      1.0000 0.18600  0.80300  0.75100  Biso   1.000  H
  H60      1.0000 0.18600  0.19700  0.25100  Biso   1.000  H
  O57      1.0000 0.65240  0.21310  0.18550  Biso   1.000  O
  O58      1.0000 0.65240  0.78690  0.68550  Biso   1.000  O
  O59      1.0000 0.34760  0.78690  0.81450  Biso   1.000  O
  O60      1.0000 0.34760  0.21310  0.31450  Biso   1.000  O
  H61      1.0000 0.65900  0.15300  0.15800  Biso   1.000  H
  H62      1.0000 0.65900  0.84700  0.65800  Biso   1.000  H
  H63      1.0000 0.34100  0.84700  0.84200  Biso   1.000  H
  H64      1.0000 0.34100  0.15300  0.34200  Biso   1.000  H
  H65      1.0000 0.70200  0.21300  0.25500  Biso   1.000  H
  H66      1.0000 0.70200  0.78700  0.75500  Biso   1.000  H
  H67      1.0000 0.29800  0.78700  0.74500  Biso   1.000  H
  H68      1.0000 0.29800  0.21300  0.24500  Biso   1.000  H
  O61      1.0000 0.50000  0.34410  0.25000  Biso   1.000  O
  O62      1.0000 0.50000  0.65590  0.75000  Biso   1.000  O
  H69      1.0000 0.55200  0.29700  0.22500  Biso   1.000  H
  H70      1.0000 0.55200  0.70300  0.72500  Biso   1.000  H
  H71      1.0000 0.44800  0.70300  0.77500  Biso   1.000  H
  H72      1.0000 0.44800  0.29700  0.27500  Biso   1.000  H
  O63      1.0000 0.67350  0.05070  0.04520  Biso   1.000  O
  O64      1.0000 0.67350  0.94930  0.54520  Biso   1.000  O
  O65      1.0000 0.32650  0.94930  0.95480  Biso   1.000  O
  O66      1.0000 0.32650  0.05070  0.45480  Biso   1.000  O
  O67      1.0000 0.15700  0.03280  0.88100  Biso   1.000  O
  O68      1.0000 0.15700  0.96720  0.38100  Biso   1.000  O
  O69      1.0000 0.84300  0.96720  0.11900  Biso   1.000  O
  O70      1.0000 0.84300  0.03280  0.61900  Biso   1.000  O
  O71      1.0000 0.88460  0.02700  0.35520  Biso   1.000  O
  O72      1.0000 0.88460  0.97300  0.85520  Biso   1.000  O
  O73      1.0000 0.11540  0.97300  0.64480  Biso   1.000  O
  O74      1.0000 0.11540  0.02700  0.14480  Biso   1.000  O
  O75      1.0000 0.82400  0.04560  0.38100  Biso   1.000  O
  O76      1.0000 0.82400  0.95440  0.88100  Biso   1.000  O
  O77      1.0000 0.17600  0.95440  0.61900  Biso   1.000  O
  O78      1.0000 0.17600  0.04560  0.11900  Biso   1.000  O
  O79      1.0000 0.91240  0.01550  0.56450  Biso   1.000  O
  O80      1.0000 0.91240  0.98450  0.06450  Biso   1.000  O
  O81      1.0000 0.08760  0.98450  0.43550  Biso   1.000  O
  O82      1.0000 0.08760  0.01550  0.93550  Biso   1.000  O
  O83      1.0000 0.62990  0.52420  0.86980  Biso   1.000  O
  O84      1.0000 0.62990  0.47580  0.36980  Biso   1.000  O
  O85      1.0000 0.37010  0.47580  0.13020  Biso   1.000  O
  O86      1.0000 0.37010  0.52420  0.63020  Biso   1.000  O
  H73      1.0000 0.69800  0.49200  0.84300  Biso   1.000  H
  H74      1.0000 0.69800  0.50800  0.34300  Biso   1.000  H
  H75      1.0000 0.30200  0.50800  0.15700  Biso   1.000  H
  H76      1.0000 0.30200  0.49200  0.65700  Biso   1.000  H
  C59      1.0000 0.53980  0.51190  0.91830  Biso   1.000  C
  C60      1.0000 0.53980  0.48810  0.41830  Biso   1.000  C
  C61      1.0000 0.46020  0.48810  0.08170  Biso   1.000  C
  C62      1.0000 0.46020  0.51190  0.58170  Biso   1.000  C
  H77      1.0000 0.47930  0.55240  0.89170  Biso   1.000  H
  H78      1.0000 0.47930  0.44760  0.39170  Biso   1.000  H
  H79      1.0000 0.52070  0.44760  0.10830  Biso   1.000  H
  H80      1.0000 0.52070  0.55240  0.60830  Biso   1.000  H
  H81      1.0000 0.57320  0.53300  0.98020  Biso   1.000  H
  H82      1.0000 0.57320  0.46700  0.48020  Biso   1.000  H
  H83      1.0000 0.42680  0.46700  0.01980  Biso   1.000  H
  H84      1.0000 0.42680  0.53300  0.51980  Biso   1.000  H
  H85      1.0000 0.48900  0.46690  0.93300  Biso   1.000  H
  H86      1.0000 0.48900  0.53310  0.43300  Biso   1.000  H
  H87      1.0000 0.51100  0.53310  0.06700  Biso   1.000  H
  H88      1.0000 0.51100  0.46690  0.56700  Biso   1.000  H
