data_image0
_cell_length_a       9.4185
_cell_length_b       10.203
_cell_length_c       12.3617
_cell_angle_alpha    106.223
_cell_angle_beta     93.856
_cell_angle_gamma    116.698

_symmetry_space_group_name_H-M    "P 1"
_symmetry_int_tables_number       1

loop_
  _symmetry_equiv_pos_as_xyz
  'x, y, z'

loop_
  _atom_site_label
  _atom_site_occupancy
  _atom_site_fract_x
  _atom_site_fract_y
  _atom_site_fract_z
  _atom_site_thermal_displace_type
  _atom_site_B_iso_or_equiv
  _atom_site_type_symbol
  Cu1      1.0000 0.35716  0.02614  0.42589  Biso   1.000  Cu
  Cu2      1.0000 0.64284  0.97386  0.57411  Biso   1.000  Cu
  Cl1      1.0000 0.36022  0.79919  0.40832  Biso   1.000  Cl
  Cl2      1.0000 0.63978  0.20081  0.59168  Biso   1.000  Cl
  O1       1.0000 0.46020  0.05410  0.29830  Biso   1.000  O
  O2       1.0000 0.53980  0.94590  0.70170  Biso   1.000  O
  O3       1.0000 0.21170  0.90380  0.18740  Biso   1.000  O
  O4       1.0000 0.78830  0.09620  0.81260  Biso   1.000  O
  O5       1.0000 0.08410  0.57350  0.62930  Biso   1.000  O
  O6       1.0000 0.91590  0.42650  0.37070  Biso   1.000  O
  O7       1.0000 0.04650  0.52530  0.78130  Biso   1.000  O
  O8       1.0000 0.95350  0.47470  0.21870  Biso   1.000  O
  O9       1.0000 0.46390  0.52560  0.80900  Biso   1.000  O
  O10      1.0000 0.53610  0.47440  0.19100  Biso   1.000  O
  N1       1.0000 0.31330  0.20820  0.43990  Biso   1.000  N
  N2       1.0000 0.68670  0.79180  0.56010  Biso   1.000  N
  N3       1.0000 0.23170  0.01370  0.55340  Biso   1.000  N
  N4       1.0000 0.76830  0.98630  0.44660  Biso   1.000  N
  N5       1.0000 0.08140  0.50050  0.69000  Biso   1.000  N
  N6       1.0000 0.91860  0.49950  0.31000  Biso   1.000  N
  N7       1.0000 0.67390  0.53670  0.90930  Biso   1.000  N
  N8       1.0000 0.32610  0.46330  0.09070  Biso   1.000  N
  C1       1.0000 0.35450  0.30040  0.37790  Biso   1.000  C
  C2       1.0000 0.64550  0.69960  0.62210  Biso   1.000  C
  C3       1.0000 0.32180  0.42470  0.39890  Biso   1.000  C
  C4       1.0000 0.67820  0.57530  0.60110  Biso   1.000  C
  C5       1.0000 0.24870  0.45530  0.48560  Biso   1.000  C
  C6       1.0000 0.75130  0.54470  0.51440  Biso   1.000  C
  C7       1.0000 0.20200  0.36050  0.55330  Biso   1.000  C
  C8       1.0000 0.79800  0.63950  0.44670  Biso   1.000  C
  C9       1.0000 0.12070  0.37070  0.64640  Biso   1.000  C
  C10      1.0000 0.87930  0.62930  0.35360  Biso   1.000  C
  C11      1.0000 0.07320  0.26830  0.70430  Biso   1.000  C
  C12      1.0000 0.92680  0.73170  0.29570  Biso   1.000  C
  C13      1.0000 0.10860  0.14280  0.67550  Biso   1.000  C
  C14      1.0000 0.89140  0.85720  0.32450  Biso   1.000  C
  C15      1.0000 0.06660  0.03320  0.73110  Biso   1.000  C
  C16      1.0000 0.93340  0.96680  0.26890  Biso   1.000  C
  C17      1.0000 0.10900  0.91910  0.69840  Biso   1.000  C
  C18      1.0000 0.89100  0.08090  0.30160  Biso   1.000  C
  C19      1.0000 0.19260  0.91310  0.61020  Biso   1.000  C
  C20      1.0000 0.80740  0.08690  0.38980  Biso   1.000  C
  C21      1.0000 0.19260  0.12810  0.58690  Biso   1.000  C
  C22      1.0000 0.80740  0.87190  0.41310  Biso   1.000  C
  C23      1.0000 0.23760  0.23560  0.52470  Biso   1.000  C
  C24      1.0000 0.76240  0.76440  0.47530  Biso   1.000  C
  C25      1.0000 0.36040  0.98040  0.20100  Biso   1.000  C
  C26      1.0000 0.63960  0.01960  0.79900  Biso   1.000  C
  C27      1.0000 0.43280  0.99130  0.09700  Biso   1.000  C
  C28      1.0000 0.56720  0.00870  0.90300  Biso   1.000  C
  C29      1.0000 0.59670  0.09400  0.10820  Biso   1.000  C
  C30      1.0000 0.40330  0.90600  0.89180  Biso   1.000  C
  C31      1.0000 0.33880  0.89790  0.98720  Biso   1.000  C
  C32      1.0000 0.66120  0.10210  0.01280  Biso   1.000  C
  C33      1.0000 0.54540  0.47000  0.85130  Biso   1.000  C
  C34      1.0000 0.45460  0.53000  0.14870  Biso   1.000  C
  H1       1.0000 0.49280  0.36150  0.83180  Biso   1.000  H
  H2       1.0000 0.50720  0.63850  0.16820  Biso   1.000  H
  C35      1.0000 0.76100  0.70200  0.93820  Biso   1.000  C
  C36      1.0000 0.23900  0.29800  0.06180  Biso   1.000  C
  H3       1.0000 0.86610  0.74370  0.98700  Biso   1.000  H
  H4       1.0000 0.13390  0.25630  0.01300  Biso   1.000  H
  H5       1.0000 0.70100  0.74720  0.97830  Biso   1.000  H
  H6       1.0000 0.29900  0.25280  0.02170  Biso   1.000  H
  H7       1.0000 0.77470  0.72650  0.86880  Biso   1.000  H
  H8       1.0000 0.22530  0.27350  0.13120  Biso   1.000  H
  C37      1.0000 0.75710  0.46810  0.95100  Biso   1.000  C
  C38      1.0000 0.24290  0.53190  0.04900  Biso   1.000  C
  H9       1.0000 0.67920  0.37140  0.95770  Biso   1.000  H
  H10      1.0000 0.32080  0.62860  0.04230  Biso   1.000  H
  H11      1.0000 0.82740  0.53820  0.02540  Biso   1.000  H
  H12      1.0000 0.17260  0.46180  0.97460  Biso   1.000  H
  H13      1.0000 0.82110  0.44820  0.89800  Biso   1.000  H
  H14      1.0000 0.17890  0.55180  0.10200  Biso   1.000  H
  H15      1.0000 0.40900  0.27500  0.31600  Biso   1.000  H
  H16      1.0000 0.59100  0.72500  0.68400  Biso   1.000  H
  H17      1.0000 0.36500  0.47800  0.35100  Biso   1.000  H
  H18      1.0000 0.63500  0.52200  0.64900  Biso   1.000  H
  H19      1.0000 0.23800  0.54200  0.52000  Biso   1.000  H
  H20      1.0000 0.76200  0.45800  0.48000  Biso   1.000  H
  H21      1.0000 0.02600  0.29900  0.77600  Biso   1.000  H
  H22      1.0000 0.97400  0.70100  0.22400  Biso   1.000  H
  H23      1.0000 0.00600  0.04100  0.78400  Biso   1.000  H
  H24      1.0000 0.99400  0.95900  0.21600  Biso   1.000  H
  H25      1.0000 0.06700  0.83200  0.71900  Biso   1.000  H
  H26      1.0000 0.93300  0.16800  0.28100  Biso   1.000  H
  H27      1.0000 0.22000  0.82500  0.58000  Biso   1.000  H
  H28      1.0000 0.78000  0.17500  0.42000  Biso   1.000  H
  H29      1.0000 0.66900  0.17600  0.18500  Biso   1.000  H
  H30      1.0000 0.33100  0.82400  0.81500  Biso   1.000  H
  H31      1.0000 0.23000  0.83500  0.97500  Biso   1.000  H
  H32      1.0000 0.77000  0.16500  0.02500  Biso   1.000  H
