data_image0
_cell_length_a       6.826
_cell_length_b       9.04
_cell_length_c       10.93
_cell_angle_alpha    101.068
_cell_angle_beta     95.054
_cell_angle_gamma    96.278

_symmetry_space_group_name_H-M    "P 1"
_symmetry_int_tables_number       1

loop_
  _symmetry_equiv_pos_as_xyz
  'x, y, z'

loop_
  _atom_site_label
  _atom_site_occupancy
  _atom_site_fract_x
  _atom_site_fract_y
  _atom_site_fract_z
  _atom_site_thermal_displace_type
  _atom_site_B_iso_or_equiv
  _atom_site_type_symbol
  Cu1      1.0000 0.50000  0.00000  0.00000  Biso   1.000  Cu
  N1       1.0000 0.68340  0.11110  0.15600  Biso   1.000  N
  N2       1.0000 0.31660  0.88890  0.84400  Biso   1.000  N
  N3       1.0000 0.43200  0.23100  0.50010  Biso   1.000  N
  N4       1.0000 0.56800  0.76900  0.49990  Biso   1.000  N
  N5       1.0000 0.55330  0.42130  0.65330  Biso   1.000  N
  N6       1.0000 0.44670  0.57870  0.34670  Biso   1.000  N
  H1       1.0000 0.56170  0.48630  0.72280  Biso   1.000  H
  H2       1.0000 0.43830  0.51370  0.27720  Biso   1.000  H
  N7       1.0000 0.69360  0.41520  0.57270  Biso   1.000  N
  N8       1.0000 0.30640  0.58480  0.42730  Biso   1.000  N
  O1       1.0000 0.68290  0.06770  0.89130  Biso   1.000  O
  O2       1.0000 0.31710  0.93230  0.10870  Biso   1.000  O
  O3       1.0000 0.65850  0.31710  0.94430  Biso   1.000  O
  O4       1.0000 0.34150  0.68290  0.05570  Biso   1.000  O
  C1       1.0000 0.60430  0.15950  0.26340  Biso   1.000  C
  C2       1.0000 0.39570  0.84050  0.73660  Biso   1.000  C
  H3       1.0000 0.46980  0.13130  0.26590  Biso   1.000  H
  H4       1.0000 0.53020  0.86870  0.73410  Biso   1.000  H
  C3       1.0000 0.71340  0.24890  0.36990  Biso   1.000  C
  C4       1.0000 0.28660  0.75110  0.63010  Biso   1.000  C
  C5       1.0000 0.91670  0.29090  0.36610  Biso   1.000  C
  C6       1.0000 0.08330  0.70910  0.63390  Biso   1.000  C
  H5       1.0000 0.99480  0.35150  0.43550  Biso   1.000  H
  H6       1.0000 0.00520  0.64850  0.56450  Biso   1.000  H
  C7       1.0000 0.99770  0.24040  0.25700  Biso   1.000  C
  C8       1.0000 0.00230  0.75960  0.74300  Biso   1.000  C
  H7       1.0000 0.13210  0.26600  0.25240  Biso   1.000  H
  H8       1.0000 0.86790  0.73400  0.74760  Biso   1.000  H
  C9       1.0000 0.87910  0.15180  0.15490  Biso   1.000  C
  C10      1.0000 0.12090  0.84820  0.84510  Biso   1.000  C
  H9       1.0000 0.93650  0.11860  0.08220  Biso   1.000  H
  H10      1.0000 0.06350  0.88140  0.91780  Biso   1.000  H
  C11      1.0000 0.61390  0.29910  0.48180  Biso   1.000  C
  C12      1.0000 0.38610  0.70090  0.51820  Biso   1.000  C
  C13      1.0000 0.39860  0.31150  0.60970  Biso   1.000  C
  C14      1.0000 0.60140  0.68850  0.39030  Biso   1.000  C
  C15      1.0000 0.22370  0.28800  0.67600  Biso   1.000  C
  C16      1.0000 0.77630  0.71200  0.32400  Biso   1.000  C
  C17      1.0000 0.09790  0.14890  0.64410  Biso   1.000  C
  C18      1.0000 0.90210  0.85110  0.35590  Biso   1.000  C
  H11      1.0000 0.12390  0.07330  0.57920  Biso   1.000  H
  H12      1.0000 0.87610  0.92670  0.42080  Biso   1.000  H
  C19      1.0000 0.93630  0.12390  0.70850  Biso   1.000  C
  C20      1.0000 0.06370  0.87610  0.29150  Biso   1.000  C
  H13      1.0000 0.85440  0.03150  0.68660  Biso   1.000  H
  H14      1.0000 0.14560  0.96850  0.31340  Biso   1.000  H
  C21      1.0000 0.89470  0.23620  0.80650  Biso   1.000  C
  C22      1.0000 0.10530  0.76380  0.19350  Biso   1.000  C
  C23      1.0000 0.01560  0.37690  0.83400  Biso   1.000  C
  C24      1.0000 0.98440  0.62310  0.16600  Biso   1.000  C
  H15      1.0000 0.98550  0.45460  0.89580  Biso   1.000  H
  H16      1.0000 0.01450  0.54540  0.10420  Biso   1.000  H
  C25      1.0000 0.17850  0.40150  0.77090  Biso   1.000  C
  C26      1.0000 0.82150  0.59850  0.22910  Biso   1.000  C
  H17      1.0000 0.25880  0.49460  0.79180  Biso   1.000  H
  H18      1.0000 0.74120  0.50540  0.20820  Biso   1.000  H
  C27      1.0000 0.73140  0.20830  0.88570  Biso   1.000  C
  C28      1.0000 0.26860  0.79170  0.11430  Biso   1.000  C
  O5       1.0000 0.36360  0.37950  0.10190  Biso   1.000  O
  O6       1.0000 0.63640  0.62050  0.89810  Biso   1.000  O
  H19      1.0000 0.35700  0.46830  0.08810  Biso   1.000  H
  H20      1.0000 0.64300  0.53170  0.91190  Biso   1.000  H
  H21      1.0000 0.46300  0.34890  0.04670  Biso   1.000  H
  H22      1.0000 0.53700  0.65110  0.95330  Biso   1.000  H
