data_image0
_cell_length_a       21.42
_cell_length_b       7.601
_cell_length_c       23.698
_cell_angle_alpha    90
_cell_angle_beta     112.09
_cell_angle_gamma    90

_symmetry_space_group_name_H-M    "P 1"
_symmetry_int_tables_number       1

loop_
  _symmetry_equiv_pos_as_xyz
  'x, y, z'

loop_
  _atom_site_label
  _atom_site_occupancy
  _atom_site_fract_x
  _atom_site_fract_y
  _atom_site_fract_z
  _atom_site_thermal_displace_type
  _atom_site_B_iso_or_equiv
  _atom_site_type_symbol
  Cu1      1.0000 0.86315  0.10980  0.30275  Biso   1.000  Cu
  Cu2      1.0000 0.13685  0.10980  0.19725  Biso   1.000  Cu
  Cu3      1.0000 0.36315  0.60980  0.30275  Biso   1.000  Cu
  Cu4      1.0000 0.63685  0.60980  0.19725  Biso   1.000  Cu
  Cu5      1.0000 0.13685  0.89020  0.69725  Biso   1.000  Cu
  Cu6      1.0000 0.86315  0.89020  0.80275  Biso   1.000  Cu
  Cu7      1.0000 0.63685  0.39020  0.69725  Biso   1.000  Cu
  Cu8      1.0000 0.36315  0.39020  0.80275  Biso   1.000  Cu
  K1       1.0000 0.00000  0.28240  0.25000  Biso   1.000  K
  K2       1.0000 0.50000  0.78240  0.25000  Biso   1.000  K
  K3       1.0000 0.00000  0.71760  0.75000  Biso   1.000  K
  K4       1.0000 0.50000  0.21760  0.75000  Biso   1.000  K
  O1       1.0000 0.87521  0.11210  0.22822  Biso   1.000  O
  O2       1.0000 0.12479  0.11210  0.27178  Biso   1.000  O
  O3       1.0000 0.37521  0.61210  0.22822  Biso   1.000  O
  O4       1.0000 0.62479  0.61210  0.27178  Biso   1.000  O
  O5       1.0000 0.12479  0.88790  0.77178  Biso   1.000  O
  O6       1.0000 0.87521  0.88790  0.72822  Biso   1.000  O
  O7       1.0000 0.62479  0.38790  0.77178  Biso   1.000  O
  O8       1.0000 0.37521  0.38790  0.72822  Biso   1.000  O
  O9       1.0000 0.95284  0.19760  0.34273  Biso   1.000  O
  O10      1.0000 0.04716  0.19760  0.15727  Biso   1.000  O
  O11      1.0000 0.45284  0.69760  0.34273  Biso   1.000  O
  O12      1.0000 0.54716  0.69760  0.15727  Biso   1.000  O
  O13      1.0000 0.04716  0.80240  0.65727  Biso   1.000  O
  O14      1.0000 0.95284  0.80240  0.84273  Biso   1.000  O
  O15      1.0000 0.54716  0.30240  0.65727  Biso   1.000  O
  O16      1.0000 0.45284  0.30240  0.84273  Biso   1.000  O
  O17      1.0000 0.06233  0.38560  0.37180  Biso   1.000  O
  O18      1.0000 0.93767  0.38560  0.12820  Biso   1.000  O
  O19      1.0000 0.56233  0.88560  0.37180  Biso   1.000  O
  O20      1.0000 0.43767  0.88560  0.12820  Biso   1.000  O
  O21      1.0000 0.93767  0.61440  0.62820  Biso   1.000  O
  O22      1.0000 0.06233  0.61440  0.87180  Biso   1.000  O
  O23      1.0000 0.43767  0.11440  0.62820  Biso   1.000  O
  O24      1.0000 0.56233  0.11440  0.87180  Biso   1.000  O
  O25      1.0000 0.67598  0.91720  0.19471  Biso   1.000  O
  O26      1.0000 0.32402  0.91720  0.30529  Biso   1.000  O
  O27      1.0000 0.17598  0.41720  0.19471  Biso   1.000  O
  O28      1.0000 0.82402  0.41720  0.30529  Biso   1.000  O
  O29      1.0000 0.32402  0.08280  0.80529  Biso   1.000  O
  O30      1.0000 0.67598  0.08280  0.69471  Biso   1.000  O
  O31      1.0000 0.82402  0.58280  0.80529  Biso   1.000  O
  O32      1.0000 0.17598  0.58280  0.69471  Biso   1.000  O
  O33      1.0000 0.92310  0.56820  0.26950  Biso   1.000  O
  O34      1.0000 0.07690  0.56820  0.23050  Biso   1.000  O
  O35      1.0000 0.42310  0.06820  0.26950  Biso   1.000  O
  O36      1.0000 0.57690  0.06820  0.23050  Biso   1.000  O
  O37      1.0000 0.07690  0.43180  0.73050  Biso   1.000  O
  O38      1.0000 0.92310  0.43180  0.76950  Biso   1.000  O
  O39      1.0000 0.57690  0.93180  0.73050  Biso   1.000  O
  O40      1.0000 0.42310  0.93180  0.76950  Biso   1.000  O
  N1       1.0000 0.77390  0.01220  0.26810  Biso   1.000  N
  N2       1.0000 0.22610  0.01220  0.23190  Biso   1.000  N
  N3       1.0000 0.27390  0.51220  0.26810  Biso   1.000  N
  N4       1.0000 0.72610  0.51220  0.23190  Biso   1.000  N
  N5       1.0000 0.22610  0.98780  0.73190  Biso   1.000  N
  N6       1.0000 0.77390  0.98780  0.76810  Biso   1.000  N
  N7       1.0000 0.72610  0.48780  0.73190  Biso   1.000  N
  N8       1.0000 0.27390  0.48780  0.76810  Biso   1.000  N
  N9       1.0000 0.85700  0.04820  0.38090  Biso   1.000  N
  N10      1.0000 0.14300  0.04820  0.11910  Biso   1.000  N
  N11      1.0000 0.35700  0.54820  0.38090  Biso   1.000  N
  N12      1.0000 0.64300  0.54820  0.11910  Biso   1.000  N
  N13      1.0000 0.14300  0.95180  0.61910  Biso   1.000  N
  N14      1.0000 0.85700  0.95180  0.88090  Biso   1.000  N
  N15      1.0000 0.64300  0.45180  0.61910  Biso   1.000  N
  N16      1.0000 0.35700  0.45180  0.88090  Biso   1.000  N
  C1       1.0000 0.83370  0.04130  0.17600  Biso   1.000  C
  C2       1.0000 0.16630  0.04130  0.32400  Biso   1.000  C
  C3       1.0000 0.33370  0.54130  0.17600  Biso   1.000  C
  C4       1.0000 0.66630  0.54130  0.32400  Biso   1.000  C
  C5       1.0000 0.16630  0.95870  0.82400  Biso   1.000  C
  C6       1.0000 0.83370  0.95870  0.67600  Biso   1.000  C
  C7       1.0000 0.66630  0.45870  0.82400  Biso   1.000  C
  C8       1.0000 0.33370  0.45870  0.67600  Biso   1.000  C
  C9       1.0000 0.85920  0.02520  0.12980  Biso   1.000  C
  C10      1.0000 0.14080  0.02520  0.37020  Biso   1.000  C
  C11      1.0000 0.35920  0.52520  0.12980  Biso   1.000  C
  C12      1.0000 0.64080  0.52520  0.37020  Biso   1.000  C
  C13      1.0000 0.14080  0.97480  0.87020  Biso   1.000  C
  C14      1.0000 0.85920  0.97480  0.62980  Biso   1.000  C
  C15      1.0000 0.64080  0.47480  0.87020  Biso   1.000  C
  C16      1.0000 0.35920  0.47480  0.62980  Biso   1.000  C
  H1       1.0000 0.90390  0.05480  0.13760  Biso   1.000  H
  H2       1.0000 0.09610  0.05480  0.36240  Biso   1.000  H
  H3       1.0000 0.40390  0.55480  0.13760  Biso   1.000  H
  H4       1.0000 0.59610  0.55480  0.36240  Biso   1.000  H
  H5       1.0000 0.09610  0.94520  0.86240  Biso   1.000  H
  H6       1.0000 0.90390  0.94520  0.63760  Biso   1.000  H
  H7       1.0000 0.59610  0.44520  0.86240  Biso   1.000  H
  H8       1.0000 0.40390  0.44520  0.63760  Biso   1.000  H
  C17      1.0000 0.81850  0.96530  0.07230  Biso   1.000  C
  C18      1.0000 0.18150  0.96530  0.42770  Biso   1.000  C
  C19      1.0000 0.31850  0.46530  0.07230  Biso   1.000  C
  C20      1.0000 0.68150  0.46530  0.42770  Biso   1.000  C
  C21      1.0000 0.18150  0.03470  0.92770  Biso   1.000  C
  C22      1.0000 0.81850  0.03470  0.57230  Biso   1.000  C
  C23      1.0000 0.68150  0.53470  0.92770  Biso   1.000  C
  C24      1.0000 0.31850  0.53470  0.57230  Biso   1.000  C
  H9       1.0000 0.83560  0.95800  0.04170  Biso   1.000  H
  H10      1.0000 0.16440  0.95800  0.45830  Biso   1.000  H
  H11      1.0000 0.33560  0.45800  0.04170  Biso   1.000  H
  H12      1.0000 0.66440  0.45800  0.45830  Biso   1.000  H
  H13      1.0000 0.16440  0.04200  0.95830  Biso   1.000  H
  H14      1.0000 0.83560  0.04200  0.54170  Biso   1.000  H
  H15      1.0000 0.66440  0.54200  0.95830  Biso   1.000  H
  H16      1.0000 0.33560  0.54200  0.54170  Biso   1.000  H
  C25      1.0000 0.75250  0.91660  0.06040  Biso   1.000  C
  C26      1.0000 0.24750  0.91660  0.43960  Biso   1.000  C
  C27      1.0000 0.25250  0.41660  0.06040  Biso   1.000  C
  C28      1.0000 0.74750  0.41660  0.43960  Biso   1.000  C
  C29      1.0000 0.24750  0.08340  0.93960  Biso   1.000  C
  C30      1.0000 0.75250  0.08340  0.56040  Biso   1.000  C
  C31      1.0000 0.74750  0.58340  0.93960  Biso   1.000  C
  C32      1.0000 0.25250  0.58340  0.56040  Biso   1.000  C
  H17      1.0000 0.72510  0.87740  0.02180  Biso   1.000  H
  H18      1.0000 0.27490  0.87740  0.47820  Biso   1.000  H
  H19      1.0000 0.22510  0.37740  0.02180  Biso   1.000  H
  H20      1.0000 0.77490  0.37740  0.47820  Biso   1.000  H
  H21      1.0000 0.27490  0.12260  0.97820  Biso   1.000  H
  H22      1.0000 0.72510  0.12260  0.52180  Biso   1.000  H
  H23      1.0000 0.77490  0.62260  0.97820  Biso   1.000  H
  H24      1.0000 0.22510  0.62260  0.52180  Biso   1.000  H
  C33      1.0000 0.72790  0.92640  0.10560  Biso   1.000  C
  C34      1.0000 0.27210  0.92640  0.39440  Biso   1.000  C
  C35      1.0000 0.22790  0.42640  0.10560  Biso   1.000  C
  C36      1.0000 0.77210  0.42640  0.39440  Biso   1.000  C
  C37      1.0000 0.27210  0.07360  0.89440  Biso   1.000  C
  C38      1.0000 0.72790  0.07360  0.60560  Biso   1.000  C
  C39      1.0000 0.77210  0.57360  0.89440  Biso   1.000  C
  C40      1.0000 0.22790  0.57360  0.60560  Biso   1.000  C
  H25      1.0000 0.68340  0.89400  0.09730  Biso   1.000  H
  H26      1.0000 0.31660  0.89400  0.40270  Biso   1.000  H
  H27      1.0000 0.18340  0.39400  0.09730  Biso   1.000  H
  H28      1.0000 0.81660  0.39400  0.40270  Biso   1.000  H
  H29      1.0000 0.31660  0.10600  0.90270  Biso   1.000  H
  H30      1.0000 0.68340  0.10600  0.59730  Biso   1.000  H
  H31      1.0000 0.81660  0.60600  0.90270  Biso   1.000  H
  H32      1.0000 0.18340  0.60600  0.59730  Biso   1.000  H
  C41      1.0000 0.76770  0.98370  0.16400  Biso   1.000  C
  C42      1.0000 0.23230  0.98370  0.33600  Biso   1.000  C
  C43      1.0000 0.26770  0.48370  0.16400  Biso   1.000  C
  C44      1.0000 0.73230  0.48370  0.33600  Biso   1.000  C
  C45      1.0000 0.23230  0.01630  0.83600  Biso   1.000  C
  C46      1.0000 0.76770  0.01630  0.66400  Biso   1.000  C
  C47      1.0000 0.73230  0.51630  0.83600  Biso   1.000  C
  C48      1.0000 0.26770  0.51630  0.66400  Biso   1.000  C
  C49      1.0000 0.73700  0.97270  0.21100  Biso   1.000  C
  C50      1.0000 0.26300  0.97270  0.28900  Biso   1.000  C
  C51      1.0000 0.23700  0.47270  0.21100  Biso   1.000  C
  C52      1.0000 0.76300  0.47270  0.28900  Biso   1.000  C
  C53      1.0000 0.26300  0.02730  0.78900  Biso   1.000  C
  C54      1.0000 0.73700  0.02730  0.71100  Biso   1.000  C
  C55      1.0000 0.76300  0.52730  0.78900  Biso   1.000  C
  C56      1.0000 0.23700  0.52730  0.71100  Biso   1.000  C
  C57      1.0000 0.74300  0.98870  0.31390  Biso   1.000  C
  C58      1.0000 0.25700  0.98870  0.18610  Biso   1.000  C
  C59      1.0000 0.24300  0.48870  0.31390  Biso   1.000  C
  C60      1.0000 0.75700  0.48870  0.18610  Biso   1.000  C
  C61      1.0000 0.25700  0.01130  0.68610  Biso   1.000  C
  C62      1.0000 0.74300  0.01130  0.81390  Biso   1.000  C
  C63      1.0000 0.75700  0.51130  0.68610  Biso   1.000  C
  C64      1.0000 0.24300  0.51130  0.81390  Biso   1.000  C
  H33      1.0000 0.70900  0.89730  0.30080  Biso   1.000  H
  H34      1.0000 0.29100  0.89730  0.19920  Biso   1.000  H
  H35      1.0000 0.20900  0.39730  0.30080  Biso   1.000  H
  H36      1.0000 0.79100  0.39730  0.19920  Biso   1.000  H
  H37      1.0000 0.29100  0.10270  0.69920  Biso   1.000  H
  H38      1.0000 0.70900  0.10270  0.80080  Biso   1.000  H
  H39      1.0000 0.79100  0.60270  0.69920  Biso   1.000  H
  H40      1.0000 0.20900  0.60270  0.80080  Biso   1.000  H
  H41      1.0000 0.72170  0.09730  0.31860  Biso   1.000  H
  H42      1.0000 0.27830  0.09730  0.18140  Biso   1.000  H
  H43      1.0000 0.22170  0.59730  0.31860  Biso   1.000  H
  H44      1.0000 0.77830  0.59730  0.18140  Biso   1.000  H
  H45      1.0000 0.27830  0.90270  0.68140  Biso   1.000  H
  H46      1.0000 0.72170  0.90270  0.81860  Biso   1.000  H
  H47      1.0000 0.77830  0.40270  0.68140  Biso   1.000  H
  H48      1.0000 0.22170  0.40270  0.81860  Biso   1.000  H
  C65      1.0000 0.79750  0.93840  0.37310  Biso   1.000  C
  C66      1.0000 0.20250  0.93840  0.12690  Biso   1.000  C
  C67      1.0000 0.29750  0.43840  0.37310  Biso   1.000  C
  C68      1.0000 0.70250  0.43840  0.12690  Biso   1.000  C
  C69      1.0000 0.20250  0.06160  0.62690  Biso   1.000  C
  C70      1.0000 0.79750  0.06160  0.87310  Biso   1.000  C
  C71      1.0000 0.70250  0.56160  0.62690  Biso   1.000  C
  C72      1.0000 0.29750  0.56160  0.87310  Biso   1.000  C
  H49      1.0000 0.78260  0.95810  0.40650  Biso   1.000  H
  H50      1.0000 0.21740  0.95810  0.09350  Biso   1.000  H
  H51      1.0000 0.28260  0.45810  0.40650  Biso   1.000  H
  H52      1.0000 0.71740  0.45810  0.09350  Biso   1.000  H
  H53      1.0000 0.21740  0.04190  0.59350  Biso   1.000  H
  H54      1.0000 0.78260  0.04190  0.90650  Biso   1.000  H
  H55      1.0000 0.71740  0.54190  0.59350  Biso   1.000  H
  H56      1.0000 0.28260  0.54190  0.90650  Biso   1.000  H
  H57      1.0000 0.80870  0.81480  0.37260  Biso   1.000  H
  H58      1.0000 0.19130  0.81480  0.12740  Biso   1.000  H
  H59      1.0000 0.30870  0.31480  0.37260  Biso   1.000  H
  H60      1.0000 0.69130  0.31480  0.12740  Biso   1.000  H
  H61      1.0000 0.19130  0.18520  0.62740  Biso   1.000  H
  H62      1.0000 0.80870  0.18520  0.87260  Biso   1.000  H
  H63      1.0000 0.69130  0.68520  0.62740  Biso   1.000  H
  H64      1.0000 0.30870  0.68520  0.87260  Biso   1.000  H
  C73      1.0000 0.89870  0.08900  0.43400  Biso   1.000  C
  C74      1.0000 0.10130  0.08900  0.06600  Biso   1.000  C
  C75      1.0000 0.39870  0.58900  0.43400  Biso   1.000  C
  C76      1.0000 0.60130  0.58900  0.06600  Biso   1.000  C
  C77      1.0000 0.10130  0.91100  0.56600  Biso   1.000  C
  C78      1.0000 0.89870  0.91100  0.93400  Biso   1.000  C
  C79      1.0000 0.60130  0.41100  0.56600  Biso   1.000  C
  C80      1.0000 0.39870  0.41100  0.93400  Biso   1.000  C
  H65      1.0000 0.88890  0.05140  0.46710  Biso   1.000  H
  H66      1.0000 0.11110  0.05140  0.03290  Biso   1.000  H
  H67      1.0000 0.38890  0.55140  0.46710  Biso   1.000  H
  H68      1.0000 0.61110  0.55140  0.03290  Biso   1.000  H
  H69      1.0000 0.11110  0.94860  0.53290  Biso   1.000  H
  H70      1.0000 0.88890  0.94860  0.96710  Biso   1.000  H
  H71      1.0000 0.61110  0.44860  0.53290  Biso   1.000  H
  H72      1.0000 0.38890  0.44860  0.96710  Biso   1.000  H
  C81      1.0000 0.95950  0.18870  0.44650  Biso   1.000  C
  C82      1.0000 0.04050  0.18870  0.05350  Biso   1.000  C
  C83      1.0000 0.45950  0.68870  0.44650  Biso   1.000  C
  C84      1.0000 0.54050  0.68870  0.05350  Biso   1.000  C
  C85      1.0000 0.04050  0.81130  0.55350  Biso   1.000  C
  C86      1.0000 0.95950  0.81130  0.94650  Biso   1.000  C
  C87      1.0000 0.54050  0.31130  0.55350  Biso   1.000  C
  C88      1.0000 0.45950  0.31130  0.94650  Biso   1.000  C
  C89      1.0000 0.99620  0.23490  0.50790  Biso   1.000  C
  C90      1.0000 0.00380  0.23490  0.99210  Biso   1.000  C
  C91      1.0000 0.49620  0.73490  0.50790  Biso   1.000  C
  C92      1.0000 0.50380  0.73490  0.99210  Biso   1.000  C
  C93      1.0000 0.00380  0.76510  0.49210  Biso   1.000  C
  C94      1.0000 0.99620  0.76510  0.00790  Biso   1.000  C
  C95      1.0000 0.50380  0.26510  0.49210  Biso   1.000  C
  C96      1.0000 0.49620  0.26510  0.00790  Biso   1.000  C
  H73      1.0000 0.98000  0.20330  0.53780  Biso   1.000  H
  H74      1.0000 0.02000  0.20330  0.96220  Biso   1.000  H
  H75      1.0000 0.48000  0.70330  0.53780  Biso   1.000  H
  H76      1.0000 0.52000  0.70330  0.96220  Biso   1.000  H
  H77      1.0000 0.02000  0.79670  0.46220  Biso   1.000  H
  H78      1.0000 0.98000  0.79670  0.03780  Biso   1.000  H
  H79      1.0000 0.52000  0.29670  0.46220  Biso   1.000  H
  H80      1.0000 0.48000  0.29670  0.03780  Biso   1.000  H
  C97      1.0000 0.05590  0.32660  0.52370  Biso   1.000  C
  C98      1.0000 0.94410  0.32660  0.97630  Biso   1.000  C
  C99      1.0000 0.55590  0.82660  0.52370  Biso   1.000  C
  C100     1.0000 0.44410  0.82660  0.97630  Biso   1.000  C
  C101     1.0000 0.94410  0.67340  0.47630  Biso   1.000  C
  C102     1.0000 0.05590  0.67340  0.02370  Biso   1.000  C
  C103     1.0000 0.44410  0.17340  0.47630  Biso   1.000  C
  C104     1.0000 0.55590  0.17340  0.02370  Biso   1.000  C
  H81      1.0000 0.08040  0.35450  0.56430  Biso   1.000  H
  H82      1.0000 0.91960  0.35450  0.93570  Biso   1.000  H
  H83      1.0000 0.58040  0.85450  0.56430  Biso   1.000  H
  H84      1.0000 0.41960  0.85450  0.93570  Biso   1.000  H
  H85      1.0000 0.91960  0.64550  0.43570  Biso   1.000  H
  H86      1.0000 0.08040  0.64550  0.06430  Biso   1.000  H
  H87      1.0000 0.41960  0.14550  0.43570  Biso   1.000  H
  H88      1.0000 0.58040  0.14550  0.06430  Biso   1.000  H
  C105     1.0000 0.07910  0.37700  0.47870  Biso   1.000  C
  C106     1.0000 0.92090  0.37700  0.02130  Biso   1.000  C
  C107     1.0000 0.57910  0.87700  0.47870  Biso   1.000  C
  C108     1.0000 0.42090  0.87700  0.02130  Biso   1.000  C
  C109     1.0000 0.92090  0.62300  0.52130  Biso   1.000  C
  C110     1.0000 0.07910  0.62300  0.97870  Biso   1.000  C
  C111     1.0000 0.42090  0.12300  0.52130  Biso   1.000  C
  C112     1.0000 0.57910  0.12300  0.97870  Biso   1.000  C
  H89      1.0000 0.11920  0.43960  0.48950  Biso   1.000  H
  H90      1.0000 0.88080  0.43960  0.01050  Biso   1.000  H
  H91      1.0000 0.61920  0.93960  0.48950  Biso   1.000  H
  H92      1.0000 0.38080  0.93960  0.01050  Biso   1.000  H
  H93      1.0000 0.88080  0.56040  0.51050  Biso   1.000  H
  H94      1.0000 0.11920  0.56040  0.98950  Biso   1.000  H
  H95      1.0000 0.38080  0.06040  0.51050  Biso   1.000  H
  H96      1.0000 0.61920  0.06040  0.98950  Biso   1.000  H
  C113     1.0000 0.04410  0.33620  0.41910  Biso   1.000  C
  C114     1.0000 0.95590  0.33620  0.08090  Biso   1.000  C
  C115     1.0000 0.54410  0.83620  0.41910  Biso   1.000  C
  C116     1.0000 0.45590  0.83620  0.08090  Biso   1.000  C
  C117     1.0000 0.95590  0.66380  0.58090  Biso   1.000  C
  C118     1.0000 0.04410  0.66380  0.91910  Biso   1.000  C
  C119     1.0000 0.45590  0.16380  0.58090  Biso   1.000  C
  C120     1.0000 0.54410  0.16380  0.91910  Biso   1.000  C
  C121     1.0000 0.98280  0.24010  0.40100  Biso   1.000  C
  C122     1.0000 0.01720  0.24010  0.09900  Biso   1.000  C
  C123     1.0000 0.48280  0.74010  0.40100  Biso   1.000  C
  C124     1.0000 0.51720  0.74010  0.09900  Biso   1.000  C
  C125     1.0000 0.01720  0.75990  0.59900  Biso   1.000  C
  C126     1.0000 0.98280  0.75990  0.90100  Biso   1.000  C
  C127     1.0000 0.51720  0.25990  0.59900  Biso   1.000  C
  C128     1.0000 0.48280  0.25990  0.90100  Biso   1.000  C
  C129     1.0000 0.12150  0.49200  0.38670  Biso   1.000  C
  C130     1.0000 0.87850  0.49200  0.11330  Biso   1.000  C
  C131     1.0000 0.62150  0.99200  0.38670  Biso   1.000  C
  C132     1.0000 0.37850  0.99200  0.11330  Biso   1.000  C
  C133     1.0000 0.87850  0.50800  0.61330  Biso   1.000  C
  C134     1.0000 0.12150  0.50800  0.88670  Biso   1.000  C
  C135     1.0000 0.37850  0.00800  0.61330  Biso   1.000  C
  C136     1.0000 0.62150  0.00800  0.88670  Biso   1.000  C
  H97      1.0000 0.15980  0.42830  0.41380  Biso   1.000  H
  H98      1.0000 0.84020  0.42830  0.08620  Biso   1.000  H
  H99      1.0000 0.65980  0.92830  0.41380  Biso   1.000  H
  H100     1.0000 0.34020  0.92830  0.08620  Biso   1.000  H
  H101     1.0000 0.84020  0.57170  0.58620  Biso   1.000  H
  H102     1.0000 0.15980  0.57170  0.91380  Biso   1.000  H
  H103     1.0000 0.34020  0.07170  0.58620  Biso   1.000  H
  H104     1.0000 0.65980  0.07170  0.91380  Biso   1.000  H
  H105     1.0000 0.11590  0.59820  0.40620  Biso   1.000  H
  H106     1.0000 0.88410  0.59820  0.09380  Biso   1.000  H
  H107     1.0000 0.61590  0.09820  0.40620  Biso   1.000  H
  H108     1.0000 0.38410  0.09820  0.09380  Biso   1.000  H
  H109     1.0000 0.88410  0.40180  0.59380  Biso   1.000  H
  H110     1.0000 0.11590  0.40180  0.90620  Biso   1.000  H
  H111     1.0000 0.38410  0.90180  0.59380  Biso   1.000  H
  H112     1.0000 0.61590  0.90180  0.90620  Biso   1.000  H
  H113     1.0000 0.12870  0.52100  0.35020  Biso   1.000  H
  H114     1.0000 0.87130  0.52100  0.14980  Biso   1.000  H
  H115     1.0000 0.62870  0.02100  0.35020  Biso   1.000  H
  H116     1.0000 0.37130  0.02100  0.14980  Biso   1.000  H
  H117     1.0000 0.87130  0.47900  0.64980  Biso   1.000  H
  H118     1.0000 0.12870  0.47900  0.85020  Biso   1.000  H
  H119     1.0000 0.37130  0.97900  0.64980  Biso   1.000  H
  H120     1.0000 0.62870  0.97900  0.85020  Biso   1.000  H
  C137     1.0000 0.94110  0.72970  0.30520  Biso   1.000  C
  C138     1.0000 0.05890  0.72970  0.19480  Biso   1.000  C
  C139     1.0000 0.44110  0.22970  0.30520  Biso   1.000  C
  C140     1.0000 0.55890  0.22970  0.19480  Biso   1.000  C
  C141     1.0000 0.05890  0.27030  0.69480  Biso   1.000  C
  C142     1.0000 0.94110  0.27030  0.80520  Biso   1.000  C
  C143     1.0000 0.55890  0.77030  0.69480  Biso   1.000  C
  C144     1.0000 0.44110  0.77030  0.80520  Biso   1.000  C
  H121     1.0000 0.90150  0.78010  0.30850  Biso   1.000  H
  H122     1.0000 0.09850  0.78010  0.19150  Biso   1.000  H
  H123     1.0000 0.40150  0.28010  0.30850  Biso   1.000  H
  H124     1.0000 0.59850  0.28010  0.19150  Biso   1.000  H
  H125     1.0000 0.09850  0.21990  0.69150  Biso   1.000  H
  H126     1.0000 0.90150  0.21990  0.80850  Biso   1.000  H
  H127     1.0000 0.59850  0.71990  0.69150  Biso   1.000  H
  H128     1.0000 0.40150  0.71990  0.80850  Biso   1.000  H
  H129     1.0000 0.96040  0.81180  0.28560  Biso   1.000  H
  H130     1.0000 0.03960  0.81180  0.21440  Biso   1.000  H
  H131     1.0000 0.46040  0.31180  0.28560  Biso   1.000  H
  H132     1.0000 0.53960  0.31180  0.21440  Biso   1.000  H
  H133     1.0000 0.03960  0.18820  0.71440  Biso   1.000  H
  H134     1.0000 0.96040  0.18820  0.78560  Biso   1.000  H
  H135     1.0000 0.53960  0.68820  0.71440  Biso   1.000  H
  H136     1.0000 0.46040  0.68820  0.78560  Biso   1.000  H
  H137     1.0000 0.97340  0.70350  0.34520  Biso   1.000  H
  H138     1.0000 0.02660  0.70350  0.15480  Biso   1.000  H
  H139     1.0000 0.47340  0.20350  0.34520  Biso   1.000  H
  H140     1.0000 0.52660  0.20350  0.15480  Biso   1.000  H
  H141     1.0000 0.02660  0.29650  0.65480  Biso   1.000  H
  H142     1.0000 0.97340  0.29650  0.84520  Biso   1.000  H
  H143     1.0000 0.52660  0.79650  0.65480  Biso   1.000  H
  H144     1.0000 0.47340  0.79650  0.84520  Biso   1.000  H
