data_image0
_cell_length_a       13.91
_cell_length_b       15.097
_cell_length_c       18.928
_cell_angle_alpha    87.86
_cell_angle_beta     85.12
_cell_angle_gamma    68.33

_symmetry_space_group_name_H-M    "P 1"
_symmetry_int_tables_number       1

loop_
  _symmetry_equiv_pos_as_xyz
  'x, y, z'

loop_
  _atom_site_label
  _atom_site_occupancy
  _atom_site_fract_x
  _atom_site_fract_y
  _atom_site_fract_z
  _atom_site_thermal_displace_type
  _atom_site_B_iso_or_equiv
  _atom_site_type_symbol
  C1       1.0000 0.99760  0.92960  0.40870  Biso   1.000  C
  C2       1.0000 0.00240  0.07040  0.59130  Biso   1.000  C
  C3       1.0000 0.04380  0.95620  0.34780  Biso   1.000  C
  C4       1.0000 0.95620  0.04380  0.65220  Biso   1.000  C
  C5       1.0000 0.14880  0.94150  0.34360  Biso   1.000  C
  C6       1.0000 0.85120  0.05850  0.65640  Biso   1.000  C
  H1       1.0000 0.18040  0.95970  0.30200  Biso   1.000  H
  H2       1.0000 0.81960  0.04030  0.69800  Biso   1.000  H
  C7       1.0000 0.20760  0.90030  0.40030  Biso   1.000  C
  C8       1.0000 0.79240  0.09970  0.59970  Biso   1.000  C
  H3       1.0000 0.27940  0.89030  0.39740  Biso   1.000  H
  H4       1.0000 0.72060  0.10970  0.60260  Biso   1.000  H
  C9       1.0000 0.16140  0.87370  0.46120  Biso   1.000  C
  C10      1.0000 0.83860  0.12630  0.53880  Biso   1.000  C
  H5       1.0000 0.20170  0.84550  0.49990  Biso   1.000  H
  H6       1.0000 0.79830  0.15450  0.50010  Biso   1.000  H
  C11      1.0000 0.05640  0.88830  0.46540  Biso   1.000  C
  C12      1.0000 0.94360  0.11170  0.53460  Biso   1.000  C
  C13      1.0000 0.01900  0.85330  0.52670  Biso   1.000  C
  C14      1.0000 0.98100  0.14670  0.47330  Biso   1.000  C
  H7       1.0000 0.06880  0.82300  0.55990  Biso   1.000  H
  H8       1.0000 0.93120  0.17700  0.44010  Biso   1.000  H
  C15      1.0000 0.02110  0.01940  0.22800  Biso   1.000  C
  C16      1.0000 0.97890  0.98060  0.77200  Biso   1.000  C
  H9       1.0000 0.04280  0.07320  0.23480  Biso   1.000  H
  H10      1.0000 0.95720  0.92680  0.76520  Biso   1.000  H
  H11      1.0000 0.96780  0.03740  0.19390  Biso   1.000  H
  H12      1.0000 0.03220  0.96260  0.80610  Biso   1.000  H
  H13      1.0000 0.08110  0.96460  0.21000  Biso   1.000  H
  H14      1.0000 0.91890  0.03540  0.79000  Biso   1.000  H
  C17      1.0000 0.90770  0.81020  0.60960  Biso   1.000  C
  C18      1.0000 0.09230  0.18980  0.39040  Biso   1.000  C
  H15      1.0000 0.97310  0.75600  0.61710  Biso   1.000  H
  H16      1.0000 0.02690  0.24400  0.38290  Biso   1.000  H
  H17      1.0000 0.89610  0.85560  0.64880  Biso   1.000  H
  H18      1.0000 0.10390  0.14440  0.35120  Biso   1.000  H
  C19      1.0000 0.83020  0.77710  0.61570  Biso   1.000  C
  C20      1.0000 0.16980  0.22290  0.38430  Biso   1.000  C
  H19      1.0000 0.83340  0.74720  0.66330  Biso   1.000  H
  H20      1.0000 0.16660  0.25280  0.33670  Biso   1.000  H
  H21      1.0000 0.85080  0.72420  0.58140  Biso   1.000  H
  H22      1.0000 0.14920  0.27580  0.41860  Biso   1.000  H
  C21      1.0000 0.72370  0.82860  0.60820  Biso   1.000  C
  C22      1.0000 0.27630  0.17140  0.39180  Biso   1.000  C
  H23      1.0000 0.68900  0.85040  0.65570  Biso   1.000  H
  H24      1.0000 0.31100  0.14960  0.34430  Biso   1.000  H
  H25      1.0000 0.69320  0.78480  0.59040  Biso   1.000  H
  H26      1.0000 0.30680  0.21520  0.40960  Biso   1.000  H
  C23      1.0000 0.61510  0.07650  0.45900  Biso   1.000  C
  C24      1.0000 0.38490  0.92350  0.54100  Biso   1.000  C
  C25      1.0000 0.56710  0.15670  0.41820  Biso   1.000  C
  C26      1.0000 0.43290  0.84330  0.58180  Biso   1.000  C
  C27      1.0000 0.47640  0.22780  0.44500  Biso   1.000  C
  C28      1.0000 0.52360  0.77220  0.55500  Biso   1.000  C
  H27      1.0000 0.44360  0.28260  0.41710  Biso   1.000  H
  H28      1.0000 0.55640  0.71740  0.58290  Biso   1.000  H
  C29      1.0000 0.43380  0.21860  0.51270  Biso   1.000  C
  C30      1.0000 0.56620  0.78140  0.48730  Biso   1.000  C
  H29      1.0000 0.37180  0.26720  0.53110  Biso   1.000  H
  H30      1.0000 0.62820  0.73280  0.46890  Biso   1.000  H
  C31      1.0000 0.48180  0.13840  0.55360  Biso   1.000  C
  C32      1.0000 0.51820  0.86160  0.44640  Biso   1.000  C
  H31      1.0000 0.45270  0.13210  0.59990  Biso   1.000  H
  H32      1.0000 0.54730  0.86790  0.40010  Biso   1.000  H
  C33      1.0000 0.57240  0.06730  0.52680  Biso   1.000  C
  C34      1.0000 0.42760  0.93270  0.47320  Biso   1.000  C
  C35      1.0000 0.61430  0.97820  0.56900  Biso   1.000  C
  C36      1.0000 0.38570  0.02180  0.43100  Biso   1.000  C
  H33      1.0000 0.57010  0.96980  0.60770  Biso   1.000  H
  H34      1.0000 0.42990  0.03020  0.39230  Biso   1.000  H
  C37      1.0000 0.55560  0.22610  0.29840  Biso   1.000  C
  C38      1.0000 0.44440  0.77390  0.70160  Biso   1.000  C
  H35      1.0000 0.48060  0.24190  0.30610  Biso   1.000  H
  H36      1.0000 0.51940  0.75810  0.69390  Biso   1.000  H
  H37      1.0000 0.57880  0.20460  0.24950  Biso   1.000  H
  H38      1.0000 0.42120  0.79540  0.75050  Biso   1.000  H
  H39      1.0000 0.57160  0.28270  0.30670  Biso   1.000  H
  H40      1.0000 0.42840  0.71730  0.69330  Biso   1.000  H
  C39      1.0000 0.82790  0.45190  0.28470  Biso   1.000  C
  C40      1.0000 0.17210  0.54810  0.71530  Biso   1.000  C
  C41      1.0000 0.80560  0.42360  0.21250  Biso   1.000  C
  C42      1.0000 0.19440  0.57640  0.78750  Biso   1.000  C
  C43      1.0000 0.80450  0.32820  0.21320  Biso   1.000  C
  C44      1.0000 0.19550  0.67180  0.78680  Biso   1.000  C
  H41      1.0000 0.80380  0.29510  0.17170  Biso   1.000  H
  H42      1.0000 0.19620  0.70490  0.82830  Biso   1.000  H
  C45      1.0000 0.80460  0.29060  0.28060  Biso   1.000  C
  C46      1.0000 0.19540  0.70940  0.71940  Biso   1.000  C
  C47      1.0000 0.80890  0.48120  0.15720  Biso   1.000  C
  C48      1.0000 0.19110  0.51880  0.84280  Biso   1.000  C
  C49      1.0000 0.80840  0.46570  0.08020  Biso   1.000  C
  C50      1.0000 0.19160  0.53430  0.91980  Biso   1.000  C
  C51      1.0000 0.79990  0.55970  0.04950  Biso   1.000  C
  C52      1.0000 0.20010  0.44030  0.95050  Biso   1.000  C
  C53      1.0000 0.81460  0.62350  0.10070  Biso   1.000  C
  C54      1.0000 0.18540  0.37650  0.89930  Biso   1.000  C
  C55      1.0000 0.81000  0.57390  0.16920  Biso   1.000  C
  C56      1.0000 0.19000  0.42610  0.83080  Biso   1.000  C
  C57      1.0000 0.77720  0.55370  0.29800  Biso   1.000  C
  C58      1.0000 0.22280  0.44630  0.70200  Biso   1.000  C
  C59      1.0000 0.80360  0.60930  0.23440  Biso   1.000  C
  C60      1.0000 0.19640  0.39070  0.76560  Biso   1.000  C
  C61      1.0000 0.80050  0.69890  0.25770  Biso   1.000  C
  C62      1.0000 0.19950  0.30110  0.74230  Biso   1.000  C
  H43      1.0000 0.79650  0.75040  0.22610  Biso   1.000  H
  H44      1.0000 0.20350  0.24960  0.77390  Biso   1.000  H
  C63      1.0000 0.80380  0.70490  0.32710  Biso   1.000  C
  C64      1.0000 0.19620  0.29510  0.67290  Biso   1.000  C
  C65      1.0000 0.93960  0.45680  0.28950  Biso   1.000  C
  C66      1.0000 0.06040  0.54320  0.71050  Biso   1.000  C
  H45      1.0000 0.93880  0.51910  0.27230  Biso   1.000  H
  H46      1.0000 0.06120  0.48090  0.72770  Biso   1.000  H
  H47      1.0000 0.99110  0.40650  0.26020  Biso   1.000  H
  H48      1.0000 0.00890  0.59350  0.73980  Biso   1.000  H
  H49      1.0000 0.95760  0.44770  0.33890  Biso   1.000  H
  H50      1.0000 0.04240  0.55230  0.66110  Biso   1.000  H
  C67      1.0000 0.66460  0.54820  0.30020  Biso   1.000  C
  C68      1.0000 0.33540  0.45180  0.69980  Biso   1.000  C
  H51      1.0000 0.62730  0.58580  0.26090  Biso   1.000  H
  H52      1.0000 0.37270  0.41420  0.73910  Biso   1.000  H
  H53      1.0000 0.62600  0.57380  0.34530  Biso   1.000  H
  H54      1.0000 0.37400  0.42620  0.65470  Biso   1.000  H
  H55      1.0000 0.67130  0.48170  0.29580  Biso   1.000  H
  H56      1.0000 0.32870  0.51830  0.70420  Biso   1.000  H
  C69      1.0000 0.80320  0.19560  0.29840  Biso   1.000  C
  C70      1.0000 0.19680  0.80440  0.70160  Biso   1.000  C
  C71      1.0000 0.79890  0.79070  0.36500  Biso   1.000  C
  C72      1.0000 0.20110  0.20930  0.63500  Biso   1.000  C
  C73      1.0000 0.59630  0.95170  0.01840  Biso   1.000  C
  C74      1.0000 0.40370  0.04830  0.98160  Biso   1.000  C
  C75      1.0000 0.71400  0.92710  0.00250  Biso   1.000  C
  C76      1.0000 0.28600  0.07290  0.99750  Biso   1.000  C
  C77      1.0000 0.76420  0.92520  0.06640  Biso   1.000  C
  C78      1.0000 0.23580  0.07480  0.93360  Biso   1.000  C
  H57      1.0000 0.83660  0.89380  0.07040  Biso   1.000  H
  H58      1.0000 0.16340  0.10620  0.92960  Biso   1.000  H
  C79      1.0000 0.69610  0.97330  0.12080  Biso   1.000  C
  C80      1.0000 0.30390  0.02670  0.87920  Biso   1.000  C
  C81      1.0000 0.75370  0.87470  0.94230  Biso   1.000  C
  C82      1.0000 0.24630  0.12530  0.05770  Biso   1.000  C
  C83      1.0000 0.86320  0.81880  0.91870  Biso   1.000  C
  C84      1.0000 0.13680  0.18120  0.08130  Biso   1.000  C
  C85      1.0000 0.85200  0.77100  0.85280  Biso   1.000  C
  C86      1.0000 0.14800  0.22900  0.14720  Biso   1.000  C
  C87      1.0000 0.75110  0.83060  0.81980  Biso   1.000  C
  C88      1.0000 0.24890  0.16940  0.18020  Biso   1.000  C
  C89      1.0000 0.68930  0.87290  0.88730  Biso   1.000  C
  C90      1.0000 0.31070  0.12710  0.11270  Biso   1.000  C
  C91      1.0000 0.54310  0.00050  0.95340  Biso   1.000  C
  C92      1.0000 0.45690  0.99950  0.04660  Biso   1.000  C
  C93      1.0000 0.58270  0.92240  0.89590  Biso   1.000  C
  C94      1.0000 0.41730  0.07760  0.10410  Biso   1.000  C
  C95      1.0000 0.50510  0.93920  0.84730  Biso   1.000  C
  C96      1.0000 0.49490  0.06080  0.15270  Biso   1.000  C
  H59      1.0000 0.52120  0.91560  0.80020  Biso   1.000  H
  H60      1.0000 0.47880  0.08440  0.19980  Biso   1.000  H
  C97      1.0000 0.59310  0.00930  0.12750  Biso   1.000  C
  C98      1.0000 0.40690  0.99070  0.87250  Biso   1.000  C
  C99      1.0000 0.53700  0.88300  0.00490  Biso   1.000  C
  C100     1.0000 0.46300  0.11700  0.99510  Biso   1.000  C
  H61      1.0000 0.55350  0.83200  0.04030  Biso   1.000  H
  H62      1.0000 0.44650  0.16800  0.95970  Biso   1.000  H
  H63      1.0000 0.55840  0.85600  0.95740  Biso   1.000  H
  H64      1.0000 0.44160  0.14400  0.04260  Biso   1.000  H
  H65      1.0000 0.46200  0.91970  0.00860  Biso   1.000  H
  H66      1.0000 0.53800  0.08030  0.99140  Biso   1.000  H
  C101     1.0000 0.59200  0.07900  0.96260  Biso   1.000  C
  C102     1.0000 0.40800  0.92100  0.03740  Biso   1.000  C
  H67      1.0000 0.56990  0.12730  0.92540  Biso   1.000  H
  H68      1.0000 0.43010  0.87270  0.07460  Biso   1.000  H
  H69      1.0000 0.66780  0.04850  0.95870  Biso   1.000  H
  H70      1.0000 0.33220  0.95150  0.04130  Biso   1.000  H
  H71      1.0000 0.43170  0.89160  0.99080  Biso   1.000  H
  H72      1.0000 0.56830  0.10840  0.00920  Biso   1.000  H
  C103     1.0000 0.72430  0.99090  0.19190  Biso   1.000  C
  C104     1.0000 0.27570  0.00910  0.80810  Biso   1.000  C
  C105     1.0000 0.69130  0.97400  0.16380  Biso   1.000  C
  C106     1.0000 0.30870  0.02600  0.83620  Biso   1.000  C
  C107     1.0000 0.99900  0.83600  0.22500  Biso   1.000  C
  C108     1.0000 0.00100  0.16400  0.77500  Biso   1.000  C
  H73      1.0000 0.99190  0.81250  0.27420  Biso   1.000  H
  H74      1.0000 0.00810  0.18750  0.72580  Biso   1.000  H
  H75      1.0000 0.05430  0.86200  0.22300  Biso   1.000  H
  H76      1.0000 0.94570  0.13800  0.77700  Biso   1.000  H
  C109     1.0000 0.03400  0.75300  0.17800  Biso   1.000  C
  C110     1.0000 0.96600  0.24700  0.82200  Biso   1.000  C
  H77      1.0000 0.98930  0.77770  0.13830  Biso   1.000  H
  H78      1.0000 0.01070  0.22230  0.86170  Biso   1.000  H
  H79      1.0000 0.00370  0.70990  0.20450  Biso   1.000  H
  H80      1.0000 0.99630  0.29010  0.79550  Biso   1.000  H
  C111     1.0000 0.12800  0.68300  0.14100  Biso   1.000  C
  C112     1.0000 0.87200  0.31700  0.85900  Biso   1.000  C
  H81      1.0000 0.13020  0.69310  0.08930  Biso   1.000  H
  H82      1.0000 0.86980  0.30690  0.91070  Biso   1.000  H
  H83      1.0000 0.19240  0.68380  0.15930  Biso   1.000  H
  H84      1.0000 0.80760  0.31620  0.84070  Biso   1.000  H
  C113     1.0000 0.11200  0.59400  0.16100  Biso   1.000  C
  C114     1.0000 0.88800  0.40600  0.83900  Biso   1.000  C
  H85      1.0000 0.10250  0.58920  0.21250  Biso   1.000  H
  H86      1.0000 0.89750  0.41080  0.78750  Biso   1.000  H
  H87      1.0000 0.17250  0.53910  0.14300  Biso   1.000  H
  H88      1.0000 0.82750  0.46090  0.85700  Biso   1.000  H
  H89      1.0000 0.05000  0.59340  0.13980  Biso   1.000  H
  H90      1.0000 0.95000  0.40660  0.86020  Biso   1.000  H
  F1       1.0000 0.73540  0.43310  0.06450  Biso   1.000  F
  F2       1.0000 0.26460  0.56690  0.93550  Biso   1.000  F
  F3       1.0000 0.89520  0.39920  0.05230  Biso   1.000  F
  F4       1.0000 0.10480  0.60080  0.94770  Biso   1.000  F
  F5       1.0000 0.81190  0.56840  0.97980  Biso   1.000  F
  F6       1.0000 0.18810  0.43160  0.02020  Biso   1.000  F
  F7       1.0000 0.69430  0.59660  0.04650  Biso   1.000  F
  F8       1.0000 0.30570  0.40340  0.95350  Biso   1.000  F
  F9       1.0000 0.90870  0.62430  0.07950  Biso   1.000  F
  F10      1.0000 0.09130  0.37570  0.92050  Biso   1.000  F
  F11      1.0000 0.74350  0.71040  0.09490  Biso   1.000  F
  F12      1.0000 0.25650  0.28960  0.90510  Biso   1.000  F
  F13      1.0000 0.92270  0.87130  0.90180  Biso   1.000  F
  F14      1.0000 0.07730  0.12870  0.09820  Biso   1.000  F
  F15      1.0000 0.91500  0.75660  0.96850  Biso   1.000  F
  F16      1.0000 0.08500  0.24340  0.03150  Biso   1.000  F
  F17      1.0000 0.85180  0.68320  0.86930  Biso   1.000  F
  F18      1.0000 0.14820  0.31680  0.13070  Biso   1.000  F
  F19      1.0000 0.93430  0.75550  0.80540  Biso   1.000  F
  F20      1.0000 0.06570  0.24450  0.19460  Biso   1.000  F
  F21      1.0000 0.77130  0.89550  0.77430  Biso   1.000  F
  F22      1.0000 0.22870  0.10450  0.22570  Biso   1.000  F
  F23      1.0000 0.70720  0.77630  0.78770  Biso   1.000  F
  F24      1.0000 0.29280  0.22370  0.21230  Biso   1.000  F
  N1       1.0000 0.92310  0.85650  0.54510  Biso   1.000  N
  N2       1.0000 0.07690  0.14350  0.45490  Biso   1.000  N
  N3       1.0000 0.69990  0.91410  0.55930  Biso   1.000  N
  N4       1.0000 0.30010  0.08590  0.44070  Biso   1.000  N
  O1       1.0000 0.89430  0.94600  0.40950  Biso   1.000  O
  O2       1.0000 0.10570  0.05400  0.59050  Biso   1.000  O
  O3       1.0000 0.69960  0.01130  0.42960  Biso   1.000  O
  O4       1.0000 0.30040  0.98870  0.57040  Biso   1.000  O
  O5       1.0000 0.97890  0.99430  0.29560  Biso   1.000  O
  O6       1.0000 0.02110  0.00570  0.70440  Biso   1.000  O
  O7       1.0000 0.60890  0.15020  0.34730  Biso   1.000  O
  O8       1.0000 0.39110  0.84980  0.65270  Biso   1.000  O
  O9       1.0000 0.79090  0.14880  0.24560  Biso   1.000  O
  O10      1.0000 0.20910  0.85120  0.75440  Biso   1.000  O
  O11      1.0000 0.80980  0.16410  0.35870  Biso   1.000  O
  O12      1.0000 0.19020  0.83590  0.64130  Biso   1.000  O
  O13      1.0000 0.78490  0.86260  0.32470  Biso   1.000  O
  O14      1.0000 0.21510  0.13740  0.67530  Biso   1.000  O
  O15      1.0000 0.81240  0.78530  0.43010  Biso   1.000  O
  O16      1.0000 0.18760  0.21470  0.56990  Biso   1.000  O
  O17      1.0000 0.81900  0.96030  0.20150  Biso   1.000  O
  O18      1.0000 0.18100  0.03970  0.79850  Biso   1.000  O
  O19      1.0000 0.65570  0.02110  0.24290  Biso   1.000  O
  O20      1.0000 0.34430  0.97890  0.75710  Biso   1.000  O
  O21      1.0000 0.68630  0.02080  0.22070  Biso   1.000  O
  O22      1.0000 0.31370  0.97920  0.77930  Biso   1.000  O
  O23      1.0000 0.76310  0.90420  0.13750  Biso   1.000  O
  O24      1.0000 0.23690  0.09580  0.86250  Biso   1.000  O
  O25      1.0000 0.90140  0.91450  0.21270  Biso   1.000  O
  O26      1.0000 0.09860  0.08550  0.78730  Biso   1.000  O
  S1       1.0000 0.80640  0.36495  0.34865  Biso   1.000  S
  S2       1.0000 0.19360  0.63505  0.65135  Biso   1.000  S
  S3       1.0000 0.56670  0.02110  0.10000  Biso   1.000  S
  S4       1.0000 0.43330  0.97890  0.90000  Biso   1.000  S
  S5       1.0000 0.80870  0.60159  0.37585  Biso   1.000  S
  S6       1.0000 0.19130  0.39841  0.62415  Biso   1.000  S
  S7       1.0000 0.60080  0.96460  0.04310  Biso   1.000  S
  S8       1.0000 0.39920  0.03540  0.95690  Biso   1.000  S
  Cu1      1.0000 0.80647  0.91649  0.48445  Biso   1.000  Cu
  Cu2      1.0000 0.19353  0.08351  0.51555  Biso   1.000  Cu
  Tb1      1.0000 0.78705  0.01536  0.31721  Biso   1.000  Tb
  Tb2      1.0000 0.21295  0.98464  0.68279  Biso   1.000  Tb
