data_image0
_cell_length_a       7.31
_cell_length_b       13.117
_cell_length_c       14.628
_cell_angle_alpha    90
_cell_angle_beta     100.98
_cell_angle_gamma    90

_symmetry_space_group_name_H-M    "P 1"
_symmetry_int_tables_number       1

loop_
  _symmetry_equiv_pos_as_xyz
  'x, y, z'

loop_
  _atom_site_label
  _atom_site_occupancy
  _atom_site_fract_x
  _atom_site_fract_y
  _atom_site_fract_z
  _atom_site_thermal_displace_type
  _atom_site_B_iso_or_equiv
  _atom_site_type_symbol
  Cu1      1.0000 0.31550  0.18232  0.25729  Biso   1.000  Cu
  Cu2      1.0000 0.18450  0.68232  0.24271  Biso   1.000  Cu
  Cu3      1.0000 0.68450  0.81768  0.74271  Biso   1.000  Cu
  Cu4      1.0000 0.81550  0.31768  0.75729  Biso   1.000  Cu
  S1       1.0000 0.76947  0.38045  0.15543  Biso   1.000  S
  S2       1.0000 0.73053  0.88045  0.34457  Biso   1.000  S
  S3       1.0000 0.23053  0.61955  0.84457  Biso   1.000  S
  S4       1.0000 0.26947  0.11955  0.65543  Biso   1.000  S
  O1       1.0000 0.57410  0.39860  0.11030  Biso   1.000  O
  O2       1.0000 0.92590  0.89860  0.38970  Biso   1.000  O
  O3       1.0000 0.42590  0.60140  0.88970  Biso   1.000  O
  O4       1.0000 0.07410  0.10140  0.61030  Biso   1.000  O
  O5       1.0000 0.78750  0.27540  0.19150  Biso   1.000  O
  O6       1.0000 0.71250  0.77540  0.30850  Biso   1.000  O
  O7       1.0000 0.21250  0.72460  0.80850  Biso   1.000  O
  O8       1.0000 0.28750  0.22460  0.69150  Biso   1.000  O
  O9       1.0000 0.89140  0.39380  0.08750  Biso   1.000  O
  O10      1.0000 0.60860  0.89380  0.41250  Biso   1.000  O
  O11      1.0000 0.10860  0.60620  0.91250  Biso   1.000  O
  O12      1.0000 0.39140  0.10620  0.58750  Biso   1.000  O
  O13      1.0000 0.82450  0.45030  0.23330  Biso   1.000  O
  O14      1.0000 0.67550  0.95030  0.26670  Biso   1.000  O
  O15      1.0000 0.17550  0.54970  0.76670  Biso   1.000  O
  O16      1.0000 0.32450  0.04970  0.73330  Biso   1.000  O
  O17      1.0000 0.53460  0.13190  0.21080  Biso   1.000  O
  O18      1.0000 0.96540  0.63190  0.28920  Biso   1.000  O
  O19      1.0000 0.46540  0.86810  0.78920  Biso   1.000  O
  O20      1.0000 0.03460  0.36810  0.71080  Biso   1.000  O
  O21      1.0000 0.10300  0.23210  0.30900  Biso   1.000  O
  O22      1.0000 0.39700  0.73210  0.19100  Biso   1.000  O
  O23      1.0000 0.89700  0.76790  0.69100  Biso   1.000  O
  O24      1.0000 0.60300  0.26790  0.80900  Biso   1.000  O
  O25      1.0000 0.39510  0.07580  0.39090  Biso   1.000  O
  O26      1.0000 0.10490  0.57580  0.10910  Biso   1.000  O
  O27      1.0000 0.60490  0.92420  0.60910  Biso   1.000  O
  O28      1.0000 0.89510  0.42420  0.89090  Biso   1.000  O
  O29      1.0000 0.24500  0.29440  0.12710  Biso   1.000  O
  O30      1.0000 0.25500  0.79440  0.37290  Biso   1.000  O
  O31      1.0000 0.75500  0.70560  0.87290  Biso   1.000  O
  O32      1.0000 0.74500  0.20560  0.62710  Biso   1.000  O
  O33      1.0000 0.96240  0.10940  0.41980  Biso   1.000  O
  O34      1.0000 0.53760  0.60940  0.08020  Biso   1.000  O
  O35      1.0000 0.03760  0.89060  0.58020  Biso   1.000  O
  O36      1.0000 0.46240  0.39060  0.91980  Biso   1.000  O
  N1       1.0000 0.15520  0.06870  0.18360  Biso   1.000  N
  N2       1.0000 0.34480  0.56870  0.31640  Biso   1.000  N
  N3       1.0000 0.84480  0.93130  0.81640  Biso   1.000  N
  N4       1.0000 0.65520  0.43130  0.68360  Biso   1.000  N
  N5       1.0000 0.86460  0.03700  0.08040  Biso   1.000  N
  N6       1.0000 0.63540  0.53700  0.41960  Biso   1.000  N
  N7       1.0000 0.13540  0.96300  0.91960  Biso   1.000  N
  N8       1.0000 0.36460  0.46300  0.58040  Biso   1.000  N
  N9       1.0000 0.47160  0.29420  0.32980  Biso   1.000  N
  N10      1.0000 0.02840  0.79420  0.17020  Biso   1.000  N
  N11      1.0000 0.52840  0.70580  0.67020  Biso   1.000  N
  N12      1.0000 0.97160  0.20580  0.82980  Biso   1.000  N
  N13      1.0000 0.77830  0.85930  0.07580  Biso   1.000  N
  N14      1.0000 0.72170  0.35930  0.42420  Biso   1.000  N
  N15      1.0000 0.22170  0.14070  0.92420  Biso   1.000  N
  N16      1.0000 0.27830  0.64070  0.57580  Biso   1.000  N
  C1       1.0000 0.00100  0.09660  0.12280  Biso   1.000  C
  C2       1.0000 0.49900  0.59660  0.37720  Biso   1.000  C
  C3       1.0000 0.99900  0.90340  0.87720  Biso   1.000  C
  C4       1.0000 0.50100  0.40340  0.62280  Biso   1.000  C
  C5       1.0000 0.89380  0.93930  0.10410  Biso   1.000  C
  C6       1.0000 0.60620  0.43930  0.39590  Biso   1.000  C
  C7       1.0000 0.10620  0.06070  0.89590  Biso   1.000  C
  C8       1.0000 0.39380  0.56070  0.60410  Biso   1.000  C
  C9       1.0000 0.44870  0.39910  0.33680  Biso   1.000  C
  C10      1.0000 0.05130  0.89910  0.16320  Biso   1.000  C
  C11      1.0000 0.55130  0.60090  0.66320  Biso   1.000  C
  C12      1.0000 0.94870  0.10090  0.83680  Biso   1.000  C
  C13      1.0000 0.18370  0.96810  0.20330  Biso   1.000  C
  C14      1.0000 0.31630  0.46810  0.29670  Biso   1.000  C
  C15      1.0000 0.81630  0.03190  0.79670  Biso   1.000  C
  C16      1.0000 0.68370  0.53190  0.70330  Biso   1.000  C
  C17      1.0000 0.63590  0.27530  0.38250  Biso   1.000  C
  C18      1.0000 0.86410  0.77530  0.11750  Biso   1.000  C
  C19      1.0000 0.36410  0.72470  0.61750  Biso   1.000  C
  C20      1.0000 0.13590  0.22470  0.88250  Biso   1.000  C
  C21      1.0000 0.58830  0.86520  0.02050  Biso   1.000  C
  C22      1.0000 0.91170  0.36520  0.47950  Biso   1.000  C
  C23      1.0000 0.41170  0.13480  0.97950  Biso   1.000  C
  C24      1.0000 0.08830  0.63480  0.52050  Biso   1.000  C
  H1       1.0000 0.98300  0.16600  0.10500  Biso   1.000  H
  H2       1.0000 0.51700  0.66600  0.39500  Biso   1.000  H
  H3       1.0000 0.01700  0.83400  0.89500  Biso   1.000  H
  H4       1.0000 0.48300  0.33400  0.60500  Biso   1.000  H
  H5       1.0000 0.29800  0.94900  0.25200  Biso   1.000  H
  H6       1.0000 0.20200  0.44900  0.24800  Biso   1.000  H
  H7       1.0000 0.70200  0.05100  0.74800  Biso   1.000  H
  H8       1.0000 0.79800  0.55100  0.75200  Biso   1.000  H
  H9       1.0000 0.69500  0.20700  0.39500  Biso   1.000  H
  H10      1.0000 0.80500  0.70700  0.10500  Biso   1.000  H
  H11      1.0000 0.30500  0.79300  0.60500  Biso   1.000  H
  H12      1.0000 0.19500  0.29300  0.89500  Biso   1.000  H
  H13      1.0000 0.58300  0.08900  0.23100  Biso   1.000  H
  H14      1.0000 0.91700  0.58900  0.26900  Biso   1.000  H
  H15      1.0000 0.41700  0.91100  0.76900  Biso   1.000  H
  H16      1.0000 0.08300  0.41100  0.73100  Biso   1.000  H
  H17      1.0000 0.61600  0.17200  0.19900  Biso   1.000  H
  H18      1.0000 0.88400  0.67200  0.30100  Biso   1.000  H
  H19      1.0000 0.38400  0.82800  0.80100  Biso   1.000  H
  H20      1.0000 0.11600  0.32800  0.69900  Biso   1.000  H
  H21      1.0000 0.07100  0.19000  0.34400  Biso   1.000  H
  H22      1.0000 0.42900  0.69000  0.15600  Biso   1.000  H
  H23      1.0000 0.92900  0.81000  0.65600  Biso   1.000  H
  H24      1.0000 0.57100  0.31000  0.84400  Biso   1.000  H
  H25      1.0000 0.02500  0.24800  0.27600  Biso   1.000  H
  H26      1.0000 0.47500  0.74800  0.22400  Biso   1.000  H
  H27      1.0000 0.97500  0.75200  0.72400  Biso   1.000  H
  H28      1.0000 0.52500  0.25200  0.77600  Biso   1.000  H
  H29      1.0000 0.46400  0.03100  0.39600  Biso   1.000  H
  H30      1.0000 0.03600  0.53100  0.10400  Biso   1.000  H
  H31      1.0000 0.53600  0.96900  0.60400  Biso   1.000  H
  H32      1.0000 0.96400  0.46900  0.89600  Biso   1.000  H
  H33      1.0000 0.36900  0.08800  0.43600  Biso   1.000  H
  H34      1.0000 0.13100  0.58800  0.06400  Biso   1.000  H
  H35      1.0000 0.63100  0.91200  0.56400  Biso   1.000  H
  H36      1.0000 0.86900  0.41200  0.93600  Biso   1.000  H
  H37      1.0000 0.15700  0.33200  0.11500  Biso   1.000  H
  H38      1.0000 0.34300  0.83200  0.38500  Biso   1.000  H
  H39      1.0000 0.84300  0.66800  0.88500  Biso   1.000  H
  H40      1.0000 0.65700  0.16800  0.61500  Biso   1.000  H
  H41      1.0000 0.31300  0.32800  0.11600  Biso   1.000  H
  H42      1.0000 0.18700  0.82800  0.38400  Biso   1.000  H
  H43      1.0000 0.68700  0.67200  0.88400  Biso   1.000  H
  H44      1.0000 0.81300  0.17200  0.61600  Biso   1.000  H
  H45      1.0000 0.99900  0.10800  0.47100  Biso   1.000  H
  H46      1.0000 0.50100  0.60800  0.02900  Biso   1.000  H
  H47      1.0000 0.00100  0.89200  0.52900  Biso   1.000  H
  H48      1.0000 0.49900  0.39200  0.97100  Biso   1.000  H
  H49      1.0000 0.94700  0.05200  0.40200  Biso   1.000  H
  H50      1.0000 0.55300  0.55200  0.09800  Biso   1.000  H
  H51      1.0000 0.05300  0.94800  0.59800  Biso   1.000  H
  H52      1.0000 0.44700  0.44800  0.90200  Biso   1.000  H
  H53      1.0000 0.54000  0.79800  0.99400  Biso   1.000  H
  H54      1.0000 0.96000  0.29800  0.50600  Biso   1.000  H
  H55      1.0000 0.46000  0.20200  0.00600  Biso   1.000  H
  H56      1.0000 0.04000  0.70200  0.49400  Biso   1.000  H
  H57      1.0000 0.49200  0.89400  0.05800  Biso   1.000  H
  H58      1.0000 0.00800  0.39400  0.44200  Biso   1.000  H
  H59      1.0000 0.50800  0.10600  0.94200  Biso   1.000  H
  H60      1.0000 0.99200  0.60600  0.55800  Biso   1.000  H
  H61      1.0000 0.59000  0.90700  0.95800  Biso   1.000  H
  H62      1.0000 0.91000  0.40700  0.54200  Biso   1.000  H
  H63      1.0000 0.41000  0.09300  0.04200  Biso   1.000  H
  H64      1.0000 0.09000  0.59300  0.45800  Biso   1.000  H
