data_image0
_cell_length_a       11.2597
_cell_length_b       15.0649
_cell_length_c       15.4127
_cell_angle_alpha    115.545
_cell_angle_beta     108.78
_cell_angle_gamma    92.975

_symmetry_space_group_name_H-M    "P 1"
_symmetry_int_tables_number       1

loop_
  _symmetry_equiv_pos_as_xyz
  'x, y, z'

loop_
  _atom_site_label
  _atom_site_occupancy
  _atom_site_fract_x
  _atom_site_fract_y
  _atom_site_fract_z
  _atom_site_thermal_displace_type
  _atom_site_B_iso_or_equiv
  _atom_site_type_symbol
  Cu1      1.0000 0.72988  0.44373  0.32008  Biso   1.000  Cu
  Cu2      1.0000 0.27012  0.55627  0.67992  Biso   1.000  Cu
  O1       1.0000 0.81230  0.50550  0.47350  Biso   1.000  O
  O2       1.0000 0.18770  0.49450  0.52650  Biso   1.000  O
  N1       1.0000 0.83740  0.55200  0.32380  Biso   1.000  N
  N2       1.0000 0.16260  0.44800  0.67620  Biso   1.000  N
  N3       1.0000 0.60540  0.33840  0.30620  Biso   1.000  N
  N4       1.0000 0.39460  0.66160  0.69380  Biso   1.000  N
  O3       1.0000 0.90120  0.34990  0.32340  Biso   1.000  O
  O4       1.0000 0.09880  0.65010  0.67660  Biso   1.000  O
  O5       1.0000 0.63670  0.38600  0.16410  Biso   1.000  O
  O6       1.0000 0.36330  0.61400  0.83590  Biso   1.000  O
  C1       1.0000 0.77520  0.51650  0.54670  Biso   1.000  C
  C2       1.0000 0.22480  0.48350  0.45330  Biso   1.000  C
  C3       1.0000 0.94280  0.61600  0.40190  Biso   1.000  C
  C4       1.0000 0.05720  0.38400  0.59810  Biso   1.000  C
  C5       1.0000 0.82940  0.56700  0.24020  Biso   1.000  C
  C6       1.0000 0.17060  0.43300  0.75980  Biso   1.000  C
  C7       1.0000 0.63780  0.26800  0.33820  Biso   1.000  C
  C8       1.0000 0.36220  0.73200  0.66180  Biso   1.000  C
  C9       1.0000 0.48280  0.30600  0.24610  Biso   1.000  C
  C10      1.0000 0.51720  0.69400  0.75390  Biso   1.000  C
  O7       1.0000 0.84830  0.53410  0.63480  Biso   1.000  O
  O8       1.0000 0.15170  0.46590  0.36520  Biso   1.000  O
  C11      1.0000 0.63270  0.51180  0.52540  Biso   1.000  C
  C12      1.0000 0.36730  0.48820  0.47460  Biso   1.000  C
  N5       1.0000 0.00210  0.67060  0.37160  Biso   1.000  N
  N6       1.0000 0.99790  0.32940  0.62840  Biso   1.000  N
  H1       1.0000 0.97190  0.62260  0.46850  Biso   1.000  H
  H2       1.0000 0.02810  0.37740  0.53150  Biso   1.000  H
  H3       1.0000 0.76430  0.53210  0.17440  Biso   1.000  H
  H4       1.0000 0.23570  0.46790  0.82560  Biso   1.000  H
  C13      1.0000 0.92930  0.63930  0.26790  Biso   1.000  C
  C14      1.0000 0.07070  0.36070  0.73210  Biso   1.000  C
  H5       1.0000 0.71880  0.27170  0.38280  Biso   1.000  H
  H6       1.0000 0.28120  0.72830  0.61720  Biso   1.000  H
  C15      1.0000 0.53440  0.19300  0.29510  Biso   1.000  C
  C16      1.0000 0.46560  0.80700  0.70490  Biso   1.000  C
  N7       1.0000 0.43460  0.21780  0.23640  Biso   1.000  N
  N8       1.0000 0.56540  0.78220  0.76360  Biso   1.000  N
  H7       1.0000 0.43540  0.34010  0.21430  Biso   1.000  H
  H8       1.0000 0.56460  0.65990  0.78570  Biso   1.000  H
  C17      1.0000 0.57050  0.57720  0.49450  Biso   1.000  C
  C18      1.0000 0.42950  0.42280  0.50550  Biso   1.000  C
  C19      1.0000 0.56230  0.43610  0.53140  Biso   1.000  C
  C20      1.0000 0.43770  0.56390  0.46860  Biso   1.000  C
  C21      1.0000 0.11850  0.74800  0.43350  Biso   1.000  C
  C22      1.0000 0.88150  0.25200  0.56650  Biso   1.000  C
  H9       1.0000 0.94630  0.66350  0.22590  Biso   1.000  H
  H10      1.0000 0.05370  0.33650  0.77410  Biso   1.000  H
  H11      1.0000 0.53060  0.13530  0.30310  Biso   1.000  H
  H12      1.0000 0.46940  0.86470  0.69690  Biso   1.000  H
  C23      1.0000 0.30840  0.15560  0.16990  Biso   1.000  C
  C24      1.0000 0.69160  0.84440  0.83010  Biso   1.000  C
  C25      1.0000 0.64410  0.66310  0.49400  Biso   1.000  C
  C26      1.0000 0.35590  0.33690  0.50600  Biso   1.000  C
  H13      1.0000 0.60540  0.39390  0.55320  Biso   1.000  H
  H14      1.0000 0.39460  0.60610  0.44680  Biso   1.000  H
  C27      1.0000 0.13470  0.82190  0.53170  Biso   1.000  C
  C28      1.0000 0.86530  0.17810  0.46830  Biso   1.000  C
  C29      1.0000 0.21070  0.74860  0.39310  Biso   1.000  C
  C30      1.0000 0.78930  0.25140  0.60690  Biso   1.000  C
  C31      1.0000 0.20550  0.19860  0.15050  Biso   1.000  C
  C32      1.0000 0.79450  0.80140  0.84950  Biso   1.000  C
  C33      1.0000 0.29170  0.05230  0.12240  Biso   1.000  C
  C34      1.0000 0.70830  0.94770  0.87760  Biso   1.000  C
  C35      1.0000 0.61160  0.68090  0.40740  Biso   1.000  C
  C36      1.0000 0.38840  0.31910  0.59260  Biso   1.000  C
  C37      1.0000 0.75200  0.72900  0.58370  Biso   1.000  C
  C38      1.0000 0.24800  0.27100  0.41630  Biso   1.000  C
  H15      1.0000 0.07250  0.82000  0.55890  Biso   1.000  H
  H16      1.0000 0.92750  0.18000  0.44110  Biso   1.000  H
  C39      1.0000 0.24490  0.89900  0.58940  Biso   1.000  C
  C40      1.0000 0.75510  0.10100  0.41060  Biso   1.000  C
  H17      1.0000 0.19910  0.69820  0.32720  Biso   1.000  H
  H18      1.0000 0.80090  0.30180  0.67280  Biso   1.000  H
  C41      1.0000 0.32220  0.82590  0.45210  Biso   1.000  C
  C42      1.0000 0.67780  0.17410  0.54790  Biso   1.000  C
  C43      1.0000 0.08410  0.13690  0.08430  Biso   1.000  C
  C44      1.0000 0.91590  0.86310  0.91570  Biso   1.000  C
  H19      1.0000 0.21680  0.26850  0.18140  Biso   1.000  H
  H20      1.0000 0.78320  0.73150  0.81860  Biso   1.000  H
  C45      1.0000 0.17070  0.99190  0.05650  Biso   1.000  C
  C46      1.0000 0.82930  0.00810  0.94350  Biso   1.000  C
  H21      1.0000 0.36200  0.02320  0.13480  Biso   1.000  H
  H22      1.0000 0.63800  0.97680  0.86520  Biso   1.000  H
  C47      1.0000 0.68700  0.76010  0.41180  Biso   1.000  C
  C48      1.0000 0.31300  0.23990  0.58820  Biso   1.000  C
  C49      1.0000 0.50050  0.61840  0.30770  Biso   1.000  C
  C50      1.0000 0.49950  0.38160  0.69230  Biso   1.000  C
  H23      1.0000 0.77480  0.71870  0.64170  Biso   1.000  H
  H24      1.0000 0.22520  0.28130  0.35830  Biso   1.000  H
  C51      1.0000 0.82530  0.80880  0.58800  Biso   1.000  C
  C52      1.0000 0.17470  0.19120  0.41200  Biso   1.000  C
  H25      1.0000 0.25540  0.94920  0.65510  Biso   1.000  H
  H26      1.0000 0.74460  0.05080  0.34490  Biso   1.000  H
  C53      1.0000 0.34010  0.90250  0.55040  Biso   1.000  C
  C54      1.0000 0.65990  0.09750  0.44960  Biso   1.000  C
  H27      1.0000 0.38520  0.82620  0.42520  Biso   1.000  H
  H28      1.0000 0.61480  0.17380  0.57480  Biso   1.000  H
  H29      1.0000 0.01410  0.16620  0.07210  Biso   1.000  H
  H30      1.0000 0.98590  0.83380  0.92790  Biso   1.000  H
  C55      1.0000 0.06460  0.03260  0.03600  Biso   1.000  C
  C56      1.0000 0.93540  0.96740  0.96400  Biso   1.000  C
  H31      1.0000 0.16030  0.92210  0.02510  Biso   1.000  H
  H32      1.0000 0.83970  0.07790  0.97490  Biso   1.000  H
  C57      1.0000 0.79380  0.82360  0.49990  Biso   1.000  C
  C58      1.0000 0.20620  0.17640  0.50010  Biso   1.000  C
  H33      1.0000 0.66510  0.77060  0.35390  Biso   1.000  H
  H34      1.0000 0.33490  0.22940  0.64610  Biso   1.000  H
  O9       1.0000 0.48960  0.52040  0.27020  Biso   1.000  O
  O10      1.0000 0.51040  0.47960  0.72980  Biso   1.000  O
  O11      1.0000 0.42980  0.65510  0.26220  Biso   1.000  O
  O12      1.0000 0.57020  0.34490  0.73780  Biso   1.000  O
  H35      1.0000 0.89490  0.85230  0.64870  Biso   1.000  H
  H36      1.0000 0.10510  0.14770  0.35130  Biso   1.000  H
  C59      1.0000 0.46090  0.98270  0.61690  Biso   1.000  C
  C60      1.0000 0.53910  0.01730  0.38310  Biso   1.000  C
  C61      1.0000 0.87600  0.90510  0.50100  Biso   1.000  C
  C62      1.0000 0.12400  0.09490  0.49900  Biso   1.000  C
  C63      1.0000 0.57810  0.96420  0.60970  Biso   1.000  C
  C64      1.0000 0.42190  0.03580  0.39030  Biso   1.000  C
  C65      1.0000 0.46160  0.07580  0.69510  Biso   1.000  C
  C66      1.0000 0.53840  0.92420  0.30490  Biso   1.000  C
  O13      1.0000 0.95030  0.97800  0.58800  Biso   1.000  O
  O14      1.0000 0.04970  0.02200  0.41200  Biso   1.000  O
  O15      1.0000 0.87060  0.89640  0.41360  Biso   1.000  O
  O16      1.0000 0.12940  0.10360  0.58640  Biso   1.000  O
  H37      1.0000 0.57970  0.90240  0.55880  Biso   1.000  H
  H38      1.0000 0.42030  0.09760  0.44120  Biso   1.000  H
  C67      1.0000 0.69290  0.03580  0.67650  Biso   1.000  C
  C68      1.0000 0.30710  0.96420  0.32350  Biso   1.000  C
  C69      1.0000 0.57570  0.14730  0.76270  Biso   1.000  C
  C70      1.0000 0.42430  0.85270  0.23730  Biso   1.000  C
  H39      1.0000 0.38470  0.09000  0.70180  Biso   1.000  H
  H40      1.0000 0.61530  0.91000  0.29820  Biso   1.000  H
  C71      1.0000 0.69000  0.12680  0.75350  Biso   1.000  C
  C72      1.0000 0.31000  0.87320  0.24650  Biso   1.000  C
  H41      1.0000 0.77010  0.02270  0.66960  Biso   1.000  H
  H42      1.0000 0.22990  0.97730  0.33040  Biso   1.000  H
  H43      1.0000 0.57500  0.20910  0.81430  Biso   1.000  H
  H44      1.0000 0.42500  0.79090  0.18570  Biso   1.000  H
  N9       1.0000 0.80680  0.20190  0.82260  Biso   1.000  N
  N10      1.0000 0.19320  0.79810  0.17740  Biso   1.000  N
  C73      1.0000 0.92630  0.18570  0.86240  Biso   1.000  C
  C74      1.0000 0.07370  0.81430  0.13760  Biso   1.000  C
  C75      1.0000 0.81860  0.30290  0.86340  Biso   1.000  C
  C76      1.0000 0.18140  0.69710  0.13660  Biso   1.000  C
  H45      1.0000 0.94840  0.12380  0.84840  Biso   1.000  H
  H46      1.0000 0.05160  0.87620  0.15160  Biso   1.000  H
  C77      1.0000 0.00560  0.27820  0.92620  Biso   1.000  C
  C78      1.0000 0.99440  0.72180  0.07380  Biso   1.000  C
  N11      1.0000 0.93720  0.35140  0.92560  Biso   1.000  N
  N12      1.0000 0.06280  0.64860  0.07440  Biso   1.000  N
  H47      1.0000 0.75100  0.33390  0.84910  Biso   1.000  H
  H48      1.0000 0.24900  0.66610  0.15090  Biso   1.000  H
  H49      1.0000 0.09300  0.29060  0.96470  Biso   1.000  H
  H50      1.0000 0.90700  0.70940  0.03530  Biso   1.000  H
  Cu3      1.0000 0.00000  0.50000  0.00000  Biso   1.000  Cu
  O17      1.0000 0.82710  0.51560  0.00720  Biso   1.000  O
  O18      1.0000 0.17290  0.48440  0.99280  Biso   1.000  O
  O19      1.0000 0.09710  0.49290  0.17710  Biso   1.000  O
  O20      1.0000 0.90290  0.50710  0.82290  Biso   1.000  O
  C79      1.0000 0.72950  0.54010  0.96310  Biso   1.000  C
  C80      1.0000 0.27050  0.45990  0.03690  Biso   1.000  C
  O21      1.0000 0.71890  0.57370  0.90000  Biso   1.000  O
  O22      1.0000 0.28110  0.42630  0.10000  Biso   1.000  O
  C81      1.0000 0.61270  0.52460  0.98800  Biso   1.000  C
  C82      1.0000 0.38730  0.47540  0.01200  Biso   1.000  C
  C83      1.0000 0.57390  0.43010  0.97850  Biso   1.000  C
  C84      1.0000 0.42610  0.56990  0.02150  Biso   1.000  C
  C85      1.0000 0.53730  0.59640  0.00980  Biso   1.000  C
  C86      1.0000 0.46270  0.40360  0.99020  Biso   1.000  C
  H51      1.0000 0.62480  0.38320  0.96380  Biso   1.000  H
  H52      1.0000 0.37520  0.61680  0.03620  Biso   1.000  H
  C87      1.0000 0.58320  0.70240  0.03560  Biso   1.000  C
  C88      1.0000 0.41680  0.29760  0.96440  Biso   1.000  C
  C89      1.0000 0.70290  0.75380  0.11520  Biso   1.000  C
  C90      1.0000 0.29710  0.24620  0.88480  Biso   1.000  C
  C91      1.0000 0.50990  0.75490  0.99000  Biso   1.000  C
  C92      1.0000 0.49010  0.24510  0.01000  Biso   1.000  C
  H53      1.0000 0.75050  0.71990  0.14700  Biso   1.000  H
  H54      1.0000 0.24950  0.28010  0.85300  Biso   1.000  H
  C93      1.0000 0.75380  0.85400  0.14870  Biso   1.000  C
  C94      1.0000 0.24620  0.14600  0.85130  Biso   1.000  C
  C95      1.0000 0.56020  0.85690  0.02670  Biso   1.000  C
  C96      1.0000 0.43980  0.14310  0.97330  Biso   1.000  C
  C97      1.0000 0.38090  0.70630  0.89830  Biso   1.000  C
  C98      1.0000 0.61910  0.29370  0.10170  Biso   1.000  C
  H55      1.0000 0.83500  0.88620  0.20110  Biso   1.000  H
  H56      1.0000 0.16500  0.11380  0.79890  Biso   1.000  H
  C99      1.0000 0.68240  0.90560  0.10330  Biso   1.000  C
  C100     1.0000 0.31760  0.09440  0.89670  Biso   1.000  C
  H57      1.0000 0.51070  0.89300  0.99910  Biso   1.000  H
  H58      1.0000 0.48930  0.10700  0.00090  Biso   1.000  H
  O23      1.0000 0.30380  0.76110  0.88740  Biso   1.000  O
  O24      1.0000 0.69620  0.23890  0.11260  Biso   1.000  O
  C101     1.0000 0.73870  0.01400  0.13900  Biso   1.000  C
  C102     1.0000 0.26130  0.98600  0.86100  Biso   1.000  C
  O25      1.0000 0.84680  0.05680  0.19840  Biso   1.000  O
  O26      1.0000 0.15320  0.94320  0.80160  Biso   1.000  O
  O27      1.0000 0.65380  0.05660  0.09790  Biso   1.000  O
  O28      1.0000 0.34620  0.94340  0.90210  Biso   1.000  O
  O29      1.0000 0.90600  0.29700  0.08200  Biso   1.000  O
  O30      1.0000 0.09400  0.70300  0.91800  Biso   1.000  O
