data_image0
_cell_length_a       10.4923
_cell_length_b       12.858
_cell_length_c       15.332
_cell_angle_alpha    91.11
_cell_angle_beta     102.696
_cell_angle_gamma    111.711

_symmetry_space_group_name_H-M    "P 1"
_symmetry_int_tables_number       1

loop_
  _symmetry_equiv_pos_as_xyz
  'x, y, z'

loop_
  _atom_site_label
  _atom_site_occupancy
  _atom_site_fract_x
  _atom_site_fract_y
  _atom_site_fract_z
  _atom_site_thermal_displace_type
  _atom_site_B_iso_or_equiv
  _atom_site_type_symbol
  C1       1.0000 0.26700  0.14060  0.44270  Biso   1.000  C
  C2       1.0000 0.73300  0.85940  0.55730  Biso   1.000  C
  H1       1.0000 0.20240  0.09680  0.47330  Biso   1.000  H
  H2       1.0000 0.79760  0.90320  0.52670  Biso   1.000  H
  C3       1.0000 0.51610  0.03800  0.83930  Biso   1.000  C
  C4       1.0000 0.48390  0.96200  0.16070  Biso   1.000  C
  H3       1.0000 0.49720  0.08660  0.87550  Biso   1.000  H
  H4       1.0000 0.50280  0.91340  0.12450  Biso   1.000  H
  C5       1.0000 0.47870  0.12970  0.61520  Biso   1.000  C
  C6       1.0000 0.52130  0.87030  0.38480  Biso   1.000  C
  H5       1.0000 0.43490  0.05750  0.58480  Biso   1.000  H
  H6       1.0000 0.56510  0.94250  0.41520  Biso   1.000  H
  C7       1.0000 0.54510  0.14760  0.70630  Biso   1.000  C
  C8       1.0000 0.45490  0.85240  0.29370  Biso   1.000  C
  C9       1.0000 0.47980  0.22280  0.57107  Biso   1.000  C
  C10      1.0000 0.52020  0.77720  0.42893  Biso   1.000  C
  C11      1.0000 0.54450  0.33100  0.61456  Biso   1.000  C
  C12      1.0000 0.45550  0.66900  0.38544  Biso   1.000  C
  H7       1.0000 0.54540  0.39250  0.58330  Biso   1.000  H
  H8       1.0000 0.45460  0.60750  0.41670  Biso   1.000  H
  C13      1.0000 0.61140  0.25530  0.75230  Biso   1.000  C
  C14      1.0000 0.38860  0.74470  0.24770  Biso   1.000  C
  H9       1.0000 0.65690  0.26630  0.81310  Biso   1.000  H
  H10      1.0000 0.34310  0.73370  0.18690  Biso   1.000  H
  C15      1.0000 0.60820  0.34600  0.70590  Biso   1.000  C
  C16      1.0000 0.39180  0.65400  0.29410  Biso   1.000  C
  C17      1.0000 0.60930  0.53630  0.73300  Biso   1.000  C
  C18      1.0000 0.39070  0.46370  0.26700  Biso   1.000  C
  H11      1.0000 0.53700  0.52920  0.68280  Biso   1.000  H
  H12      1.0000 0.46300  0.47080  0.31720  Biso   1.000  H
  C19      1.0000 0.76680  0.49800  0.83270  Biso   1.000  C
  C20      1.0000 0.23320  0.50200  0.16730  Biso   1.000  C
  H13      1.0000 0.82240  0.46210  0.86380  Biso   1.000  H
  H14      1.0000 0.17760  0.53790  0.13620  Biso   1.000  H
  C21      1.0000 0.77170  0.60210  0.85610  Biso   1.000  C
  C22      1.0000 0.22830  0.39790  0.14390  Biso   1.000  C
  H15      1.0000 0.83260  0.65010  0.90680  Biso   1.000  H
  H16      1.0000 0.16740  0.34990  0.09320  Biso   1.000  H
  C23      1.0000 0.24210  0.15290  0.35410  Biso   1.000  C
  C24      1.0000 0.75790  0.84710  0.64590  Biso   1.000  C
  H17      1.0000 0.15550  0.11830  0.31250  Biso   1.000  H
  H18      1.0000 0.84450  0.88170  0.68750  Biso   1.000  H
  C25      1.0000 0.46230  0.25590  0.41100  Biso   1.000  C
  C26      1.0000 0.53770  0.74410  0.58900  Biso   1.000  C
  H19      1.0000 0.55560  0.30530  0.41780  Biso   1.000  H
  H20      1.0000 0.44440  0.69470  0.58220  Biso   1.000  H
  C27      1.0000 0.56440  0.96260  0.72710  Biso   1.000  C
  C28      1.0000 0.43560  0.03740  0.27290  Biso   1.000  C
  H21      1.0000 0.58370  0.95200  0.67200  Biso   1.000  H
  H22      1.0000 0.41630  0.04800  0.32800  Biso   1.000  H
  C29      1.0000 0.52360  0.93770  0.85860  Biso   1.000  C
  C30      1.0000 0.47640  0.06230  0.14140  Biso   1.000  C
  H23      1.0000 0.50960  0.90520  0.91110  Biso   1.000  H
  H24      1.0000 0.49040  0.09480  0.08890  Biso   1.000  H
  C31      1.0000 0.72650  0.83090  0.97720  Biso   1.000  C
  C32      1.0000 0.27350  0.16910  0.02280  Biso   1.000  C
  C33      1.0000 0.72370  0.81950  0.07473  Biso   1.000  C
  C34      1.0000 0.27630  0.18050  0.92527  Biso   1.000  C
  C35      1.0000 0.79460  0.91660  0.13510  Biso   1.000  C
  C36      1.0000 0.20540  0.08340  0.86490  Biso   1.000  C
  H25      1.0000 0.83900  0.98470  0.11400  Biso   1.000  H
  H26      1.0000 0.16100  0.01530  0.88600  Biso   1.000  H
  C37      1.0000 0.80030  0.91380  0.22670  Biso   1.000  C
  C38      1.0000 0.19970  0.08620  0.77330  Biso   1.000  C
  C39      1.0000 0.86050  0.02220  0.28640  Biso   1.000  C
  C40      1.0000 0.13950  0.97780  0.71360  Biso   1.000  C
  C41      1.0000 0.74600  0.81190  0.25980  Biso   1.000  C
  C42      1.0000 0.25400  0.18810  0.74020  Biso   1.000  C
  H27      1.0000 0.75650  0.80860  0.32140  Biso   1.000  H
  H28      1.0000 0.24350  0.19140  0.67860  Biso   1.000  H
  C43      1.0000 0.67570  0.71450  0.20040  Biso   1.000  C
  C44      1.0000 0.32430  0.28550  0.79960  Biso   1.000  C
  H29      1.0000 0.64050  0.64560  0.22290  Biso   1.000  H
  H30      1.0000 0.35950  0.35440  0.77710  Biso   1.000  H
  C45      1.0000 0.65660  0.71740  0.10731  Biso   1.000  C
  C46      1.0000 0.34340  0.28260  0.89269  Biso   1.000  C
  C47      1.0000 0.57240  0.60700  0.05048  Biso   1.000  C
  C48      1.0000 0.42760  0.39300  0.94952  Biso   1.000  C
  C49      1.0000 0.43900  0.58030  0.99260  Biso   1.000  C
  C50      1.0000 0.56100  0.41970  0.00740  Biso   1.000  C
  C51      1.0000 0.36960  0.47470  0.94260  Biso   1.000  C
  C52      1.0000 0.63040  0.52530  0.05740  Biso   1.000  C
  H31      1.0000 0.28170  0.45840  0.90330  Biso   1.000  H
  H32      1.0000 0.71830  0.54160  0.09670  Biso   1.000  H
  C53      1.0000 0.36630  0.66130  0.98350  Biso   1.000  C
  C54      1.0000 0.63370  0.33870  0.01650  Biso   1.000  C
  N1       1.0000 0.67290  0.62580  0.79343  Biso   1.000  N
  N2       1.0000 0.32710  0.37420  0.20657  Biso   1.000  N
  N3       1.0000 0.66280  0.45610  0.75345  Biso   1.000  N
  N4       1.0000 0.33720  0.54390  0.24655  Biso   1.000  N
  N5       1.0000 0.40730  0.20590  0.47840  Biso   1.000  N
  N6       1.0000 0.59270  0.79410  0.52160  Biso   1.000  N
  N7       1.0000 0.54200  0.05360  0.75508  Biso   1.000  N
  N8       1.0000 0.45800  0.94640  0.24492  Biso   1.000  N
  N9       1.0000 0.36550  0.22480  0.33462  Biso   1.000  N
  N10      1.0000 0.63450  0.77520  0.66538  Biso   1.000  N
  N11      1.0000 0.55550  0.89090  0.78817  Biso   1.000  N
  N12      1.0000 0.44450  0.10910  0.21183  Biso   1.000  N
  O1       1.0000 0.87360  0.01010  0.37203  Biso   1.000  O
  O2       1.0000 0.12640  0.98990  0.62797  Biso   1.000  O
  O3       1.0000 0.89380  0.11410  0.25771  Biso   1.000  O
  O4       1.0000 0.10620  0.88590  0.74229  Biso   1.000  O
  O5       1.0000 0.39370  0.73720  0.04045  Biso   1.000  O
  O6       1.0000 0.60630  0.26280  0.95955  Biso   1.000  O
  O7       1.0000 0.26560  0.63890  0.90898  Biso   1.000  O
  O8       1.0000 0.73440  0.36110  0.09102  Biso   1.000  O
  O9       1.0000 0.62650  0.75659  0.91925  Biso   1.000  O
  O10      1.0000 0.37350  0.24341  0.08075  Biso   1.000  O
  O11      1.0000 0.82410  0.90990  0.96050  Biso   1.000  O
  O12      1.0000 0.17590  0.09010  0.03950  Biso   1.000  O
  Cu1      1.0000 0.61022  0.75610  0.79037  Biso   1.000  Cu
  Cu2      1.0000 0.38978  0.24390  0.20963  Biso   1.000  Cu
  O13      1.0000 0.37780  0.62950  0.74860  Biso   1.000  O
  O14      1.0000 0.62220  0.37050  0.25140  Biso   1.000  O
  C55      1.0000 0.92000  0.15990  0.86700  Biso   1.000  C
  C56      1.0000 0.08000  0.84010  0.13300  Biso   1.000  C
  C57      1.0000 0.94060  0.22780  0.78810  Biso   1.000  C
  C58      1.0000 0.05940  0.77220  0.21190  Biso   1.000  C
  C59      1.0000 0.00230  0.34400  0.80230  Biso   1.000  C
  C60      1.0000 0.99770  0.65600  0.19770  Biso   1.000  C
  H33      1.0000 0.03000  0.38050  0.86030  Biso   1.000  H
  H34      1.0000 0.97000  0.61950  0.13970  Biso   1.000  H
  C61      1.0000 0.89540  0.17410  0.70100  Biso   1.000  C
  C62      1.0000 0.10460  0.82590  0.29900  Biso   1.000  C
  H35      1.0000 0.85260  0.09590  0.69140  Biso   1.000  H
  H36      1.0000 0.14740  0.90410  0.30860  Biso   1.000  H
  C63      1.0000 0.91300  0.23530  0.62830  Biso   1.000  C
  C64      1.0000 0.08700  0.76470  0.37170  Biso   1.000  C
  C65      1.0000 0.02280  0.40580  0.73080  Biso   1.000  C
  C66      1.0000 0.97720  0.59420  0.26920  Biso   1.000  C
  H37      1.0000 0.06580  0.48390  0.74110  Biso   1.000  H
  H38      1.0000 0.93420  0.51610  0.25890  Biso   1.000  H
  C67      1.0000 0.97980  0.35300  0.64240  Biso   1.000  C
  C68      1.0000 0.02020  0.64700  0.35760  Biso   1.000  C
  C69      1.0000 0.85570  0.17250  0.53510  Biso   1.000  C
  C70      1.0000 0.14430  0.82750  0.46490  Biso   1.000  C
  C71      1.0000 0.99310  0.42550  0.56640  Biso   1.000  C
  C72      1.0000 0.00690  0.57450  0.43360  Biso   1.000  C
  C73      1.0000 0.88850  0.46820  0.53990  Biso   1.000  C
  C74      1.0000 0.11150  0.53180  0.46010  Biso   1.000  C
  H39      1.0000 0.81250  0.44650  0.56650  Biso   1.000  H
  H40      1.0000 0.18750  0.55350  0.43350  Biso   1.000  H
  C75      1.0000 0.10600  0.45800  0.52510  Biso   1.000  C
  C76      1.0000 0.89400  0.54200  0.47490  Biso   1.000  C
  C77      1.0000 0.22780  0.41900  0.54760  Biso   1.000  C
  C78      1.0000 0.77220  0.58100  0.45240  Biso   1.000  C
  O15      1.0000 0.93980  0.20590  0.94160  Biso   1.000  O
  O16      1.0000 0.06020  0.79410  0.05840  Biso   1.000  O
  O17      1.0000 0.87910  0.05260  0.84510  Biso   1.000  O
  O18      1.0000 0.12090  0.94740  0.15490  Biso   1.000  O
  O19      1.0000 0.73170  0.11090  0.51060  Biso   1.000  O
  O20      1.0000 0.26830  0.88910  0.48940  Biso   1.000  O
  O21      1.0000 0.94520  0.18740  0.48672  Biso   1.000  O
  O22      1.0000 0.05480  0.81260  0.51328  Biso   1.000  O
  O23      1.0000 0.19810  0.31230  0.55610  Biso   1.000  O
  O24      1.0000 0.80190  0.68770  0.44390  Biso   1.000  O
  O25      1.0000 0.34770  0.48530  0.55480  Biso   1.000  O
  O26      1.0000 0.65230  0.51470  0.44520  Biso   1.000  O
  O27      1.0000 0.17740  0.70980  0.66880  Biso   1.000  O
  O28      1.0000 0.82260  0.29020  0.33120  Biso   1.000  O
  O29      1.0000 0.14060  0.77890  0.90010  Biso   1.000  O
  O30      1.0000 0.85940  0.22110  0.09990  Biso   1.000  O
