data_image0
_cell_length_a       9.9506
_cell_length_b       15.6823
_cell_length_c       21.5
_cell_angle_alpha    100.072
_cell_angle_beta     93.06
_cell_angle_gamma    106.834

_symmetry_space_group_name_H-M    "P 1"
_symmetry_int_tables_number       1

loop_
  _symmetry_equiv_pos_as_xyz
  'x, y, z'

loop_
  _atom_site_label
  _atom_site_occupancy
  _atom_site_fract_x
  _atom_site_fract_y
  _atom_site_fract_z
  _atom_site_thermal_displace_type
  _atom_site_B_iso_or_equiv
  _atom_site_type_symbol
  Cu1      1.0000 0.62365  0.20025  0.45602  Biso   1.000  Cu
  Cu2      1.0000 0.37635  0.79975  0.54398  Biso   1.000  Cu
  Cu3      1.0000 0.05062  0.91312  0.63410  Biso   1.000  Cu
  Cu4      1.0000 0.94938  0.08688  0.36590  Biso   1.000  Cu
  Cu5      1.0000 0.06546  0.90041  0.19724  Biso   1.000  Cu
  Cu6      1.0000 0.93454  0.09959  0.80276  Biso   1.000  Cu
  O1       1.0000 0.89250  0.84240  0.56320  Biso   1.000  O
  O2       1.0000 0.10750  0.15760  0.43680  Biso   1.000  O
  O3       1.0000 0.91630  0.79480  0.65170  Biso   1.000  O
  O4       1.0000 0.08370  0.20520  0.34830  Biso   1.000  O
  O5       1.0000 0.03230  0.05360  0.11890  Biso   1.000  O
  O6       1.0000 0.96770  0.94640  0.88110  Biso   1.000  O
  O7       1.0000 0.93620  0.90300  0.13030  Biso   1.000  O
  O8       1.0000 0.06380  0.09700  0.86970  Biso   1.000  O
  O9       1.0000 0.38150  0.11980  0.28770  Biso   1.000  O
  O10      1.0000 0.61850  0.88020  0.71230  Biso   1.000  O
  O11      1.0000 0.56400  0.19160  0.36540  Biso   1.000  O
  O12      1.0000 0.43600  0.80840  0.63460  Biso   1.000  O
  O13      1.0000 0.18710  0.91310  0.27820  Biso   1.000  O
  O14      1.0000 0.81290  0.08690  0.72180  Biso   1.000  O
  O15      1.0000 0.05470  0.00010  0.31250  Biso   1.000  O
  O16      1.0000 0.94530  0.99990  0.68750  Biso   1.000  O
  O17      1.0000 0.15130  0.00480  0.58330  Biso   1.000  O
  O18      1.0000 0.84870  0.99520  0.41670  Biso   1.000  O
  O19      1.0000 0.24360  0.89450  0.55730  Biso   1.000  O
  O20      1.0000 0.75640  0.10550  0.44270  Biso   1.000  O
  O21      1.0000 0.48500  0.10360  0.60860  Biso   1.000  O
  O22      1.0000 0.51500  0.89640  0.39140  Biso   1.000  O
  O23      1.0000 0.61160  0.19350  0.54680  Biso   1.000  O
  O24      1.0000 0.38840  0.80650  0.45320  Biso   1.000  O
  O25      1.0000 0.20900  0.01120  0.18580  Biso   1.000  O
  O26      1.0000 0.79100  0.98880  0.81420  Biso   1.000  O
  O27      1.0000 0.17400  0.81260  0.13820  Biso   1.000  O
  O28      1.0000 0.82600  0.18740  0.86180  Biso   1.000  O
  N1       1.0000 0.80630  0.29870  0.46590  Biso   1.000  N
  N2       1.0000 0.19370  0.70130  0.53410  Biso   1.000  N
  N3       1.0000 0.19480  0.94000  0.70770  Biso   1.000  N
  N4       1.0000 0.80520  0.06000  0.29230  Biso   1.000  N
  N5       1.0000 0.44470  0.10650  0.44800  Biso   1.000  N
  N6       1.0000 0.55530  0.89350  0.55200  Biso   1.000  N
  C1       1.0000 0.84640  0.78600  0.59820  Biso   1.000  C
  C2       1.0000 0.15360  0.21400  0.40180  Biso   1.000  C
  C3       1.0000 0.70830  0.71370  0.57950  Biso   1.000  C
  C4       1.0000 0.29170  0.28630  0.42050  Biso   1.000  C
  C5       1.0000 0.65390  0.66210  0.62570  Biso   1.000  C
  C6       1.0000 0.34610  0.33790  0.37430  Biso   1.000  C
  H1       1.0000 0.70250  0.67250  0.66580  Biso   1.000  H
  H2       1.0000 0.29750  0.32750  0.33420  Biso   1.000  H
  C7       1.0000 0.52310  0.59470  0.60770  Biso   1.000  C
  C8       1.0000 0.47690  0.40530  0.39230  Biso   1.000  C
  H3       1.0000 0.48660  0.55750  0.63600  Biso   1.000  H
  H4       1.0000 0.51340  0.44250  0.36400  Biso   1.000  H
  C9       1.0000 0.44790  0.58190  0.55050  Biso   1.000  C
  C10      1.0000 0.55210  0.41810  0.44950  Biso   1.000  C
  C11      1.0000 0.50210  0.63340  0.50740  Biso   1.000  C
  C12      1.0000 0.49790  0.36660  0.49260  Biso   1.000  C
  H5       1.0000 0.45250  0.62400  0.46770  Biso   1.000  H
  H6       1.0000 0.54750  0.37600  0.53230  Biso   1.000  H
  C13      1.0000 0.63430  0.70110  0.52380  Biso   1.000  C
  C14      1.0000 0.36570  0.29890  0.47620  Biso   1.000  C
  H7       1.0000 0.67000  0.73760  0.49510  Biso   1.000  H
  H8       1.0000 0.33000  0.26240  0.50490  Biso   1.000  H
  C15      1.0000 0.21870  0.48330  0.48460  Biso   1.000  C
  C16      1.0000 0.78130  0.51670  0.51540  Biso   1.000  C
  H9       1.0000 0.24890  0.50760  0.44950  Biso   1.000  H
  H10      1.0000 0.75110  0.49240  0.55050  Biso   1.000  H
  C17      1.0000 0.30730  0.51110  0.53830  Biso   1.000  C
  C18      1.0000 0.69270  0.48890  0.46170  Biso   1.000  C
  H11      1.0000 0.27760  0.48290  0.57190  Biso   1.000  H
  H12      1.0000 0.72240  0.51710  0.42810  Biso   1.000  H
  C19      1.0000 0.85810  0.33330  0.41830  Biso   1.000  C
  C20      1.0000 0.14190  0.66670  0.58170  Biso   1.000  C
  H13      1.0000 0.80210  0.31600  0.37940  Biso   1.000  H
  H14      1.0000 0.19790  0.68400  0.62060  Biso   1.000  H
  C21      1.0000 0.99060  0.39370  0.42220  Biso   1.000  C
  C22      1.0000 0.00940  0.60630  0.57780  Biso   1.000  C
  H15      1.0000 0.02100  0.41840  0.38720  Biso   1.000  H
  H16      1.0000 0.97900  0.58160  0.61280  Biso   1.000  H
  C23      1.0000 0.07690  0.41710  0.47720  Biso   1.000  C
  C24      1.0000 0.92310  0.58290  0.52280  Biso   1.000  C
  C25      1.0000 0.02600  0.38070  0.53070  Biso   1.000  C
  C26      1.0000 0.97400  0.61930  0.46930  Biso   1.000  C
  H17      1.0000 0.08170  0.39640  0.56950  Biso   1.000  H
  H18      1.0000 0.91830  0.60360  0.43050  Biso   1.000  H
  C27      1.0000 0.88110  0.31690  0.52210  Biso   1.000  C
  C28      1.0000 0.11890  0.68310  0.47790  Biso   1.000  C
  H19      1.0000 0.84350  0.29020  0.55530  Biso   1.000  H
  H20      1.0000 0.15650  0.70980  0.44470  Biso   1.000  H
  C29      1.0000 0.94230  0.96200  0.10680  Biso   1.000  C
  C30      1.0000 0.05770  0.03800  0.89320  Biso   1.000  C
  C31      1.0000 0.82530  0.96890  0.05400  Biso   1.000  C
  C32      1.0000 0.17470  0.03110  0.94600  Biso   1.000  C
  C33      1.0000 0.71100  0.89320  0.04490  Biso   1.000  C
  C34      1.0000 0.28900  0.10680  0.95510  Biso   1.000  C
  H21      1.0000 0.70560  0.84840  0.06880  Biso   1.000  H
  H22      1.0000 0.29440  0.15160  0.93120  Biso   1.000  H
  C35      1.0000 0.59000  0.88500  0.99300  Biso   1.000  C
  C36      1.0000 0.41000  0.11500  0.00700  Biso   1.000  C
  H23      1.0000 0.50660  0.83650  0.98670  Biso   1.000  H
  H24      1.0000 0.49340  0.16350  0.01330  Biso   1.000  H
  C37      1.0000 0.61000  0.94900  0.95750  Biso   1.000  C
  C38      1.0000 0.39000  0.05100  0.04250  Biso   1.000  C
  C39      1.0000 0.72850  0.02040  0.96700  Biso   1.000  C
  C40      1.0000 0.27150  0.97960  0.03300  Biso   1.000  C
  H25      1.0000 0.73950  0.06380  0.94170  Biso   1.000  H
  H26      1.0000 0.26050  0.93620  0.05830  Biso   1.000  H
  C41      1.0000 0.83300  0.02920  0.01430  Biso   1.000  C
  C42      1.0000 0.16700  0.97080  0.98570  Biso   1.000  C
  H27      1.0000 0.91370  0.07900  0.01960  Biso   1.000  H
  H28      1.0000 0.08630  0.92100  0.98040  Biso   1.000  H
  C43      1.0000 0.48850  0.93570  0.90760  Biso   1.000  C
  C44      1.0000 0.51150  0.06430  0.09240  Biso   1.000  C
  H29      1.0000 0.40390  0.89180  0.90980  Biso   1.000  H
  H30      1.0000 0.59610  0.10820  0.09020  Biso   1.000  H
  C45      1.0000 0.49280  0.97820  0.86470  Biso   1.000  C
  C46      1.0000 0.50720  0.02180  0.13530  Biso   1.000  C
  H31      1.0000 0.57670  0.02460  0.86620  Biso   1.000  H
  H32      1.0000 0.42330  0.97540  0.13380  Biso   1.000  H
  C47      1.0000 0.16220  0.90740  0.75860  Biso   1.000  C
  C48      1.0000 0.83780  0.09260  0.24140  Biso   1.000  C
  H33      1.0000 0.06750  0.87560  0.75880  Biso   1.000  H
  H34      1.0000 0.93250  0.12440  0.24120  Biso   1.000  H
  C49      1.0000 0.24750  0.91380  0.81060  Biso   1.000  C
  C50      1.0000 0.75250  0.08620  0.18940  Biso   1.000  C
  H35      1.0000 0.21640  0.88470  0.84360  Biso   1.000  H
  H36      1.0000 0.78360  0.11530  0.15640  Biso   1.000  H
  C51      1.0000 0.38740  0.96790  0.81140  Biso   1.000  C
  C52      1.0000 0.61260  0.03210  0.18860  Biso   1.000  C
  C53      1.0000 0.42430  0.00640  0.76100  Biso   1.000  C
  C54      1.0000 0.57570  0.99360  0.23900  Biso   1.000  C
  H37      1.0000 0.51640  0.04280  0.76060  Biso   1.000  H
  H38      1.0000 0.48360  0.95720  0.23940  Biso   1.000  H
  C55      1.0000 0.32610  0.99180  0.71050  Biso   1.000  C
  C56      1.0000 0.67390  0.00820  0.28950  Biso   1.000  C
  H39      1.0000 0.35310  0.01970  0.67650  Biso   1.000  H
  H40      1.0000 0.64690  0.98030  0.32350  Biso   1.000  H
  C57      1.0000 0.43970  0.13090  0.34270  Biso   1.000  C
  C58      1.0000 0.56030  0.86910  0.65730  Biso   1.000  C
  C59      1.0000 0.37620  0.07800  0.39100  Biso   1.000  C
  C60      1.0000 0.62380  0.92200  0.60900  Biso   1.000  C
  C61      1.0000 0.24780  0.00540  0.38270  Biso   1.000  C
  C62      1.0000 0.75220  0.99460  0.61730  Biso   1.000  C
  C63      1.0000 0.16140  0.97090  0.31860  Biso   1.000  C
  C64      1.0000 0.83860  0.02910  0.68140  Biso   1.000  C
  C65      1.0000 0.20400  0.97100  0.43320  Biso   1.000  C
  C66      1.0000 0.79600  0.02900  0.56680  Biso   1.000  C
  H41      1.0000 0.12020  0.92340  0.42770  Biso   1.000  H
  H42      1.0000 0.87980  0.07660  0.57230  Biso   1.000  H
  C67      1.0000 0.22170  0.96520  0.55060  Biso   1.000  C
  C68      1.0000 0.77830  0.03480  0.44940  Biso   1.000  C
  C69      1.0000 0.27850  0.00310  0.49450  Biso   1.000  C
  C70      1.0000 0.72150  0.99690  0.50550  Biso   1.000  C
  C71      1.0000 0.40650  0.07760  0.49880  Biso   1.000  C
  C72      1.0000 0.59350  0.92240  0.50120  Biso   1.000  C
  C73      1.0000 0.50610  0.12640  0.55650  Biso   1.000  C
  C74      1.0000 0.49390  0.87360  0.44350  Biso   1.000  C
  N7       1.0000 0.91360  0.80020  0.21630  Biso   1.000  N
  N8       1.0000 0.08640  0.19980  0.78370  Biso   1.000  N
  C75      1.0000 0.80300  0.82950  0.23950  Biso   1.000  C
  C76      1.0000 0.19700  0.17050  0.76050  Biso   1.000  C
  H43      1.0000 0.80200  0.88830  0.23880  Biso   1.000  H
  H44      1.0000 0.19800  0.11170  0.76120  Biso   1.000  H
  C77      1.0000 0.69500  0.77100  0.26380  Biso   1.000  C
  C78      1.0000 0.30500  0.22900  0.73620  Biso   1.000  C
  H45      1.0000 0.62150  0.79030  0.27930  Biso   1.000  H
  H46      1.0000 0.37850  0.20970  0.72070  Biso   1.000  H
  C79      1.0000 0.69700  0.68300  0.26500  Biso   1.000  C
  C80      1.0000 0.30300  0.31700  0.73500  Biso   1.000  C
  H47      1.0000 0.62510  0.64340  0.28100  Biso   1.000  H
  H48      1.0000 0.37490  0.35660  0.71900  Biso   1.000  H
  C81      1.0000 0.80800  0.65350  0.24200  Biso   1.000  C
  C82      1.0000 0.19200  0.34650  0.75800  Biso   1.000  C
  H49      1.0000 0.80910  0.59460  0.24230  Biso   1.000  H
  H50      1.0000 0.19090  0.40540  0.75770  Biso   1.000  H
  C83      1.0000 0.91600  0.71230  0.21730  Biso   1.000  C
  C84      1.0000 0.08400  0.28770  0.78270  Biso   1.000  C
  H51      1.0000 0.98950  0.69270  0.20180  Biso   1.000  H
  H52      1.0000 0.01050  0.30730  0.79820  Biso   1.000  H
  C85      1.0000 0.25800  0.76400  0.15300  Biso   1.000  C
  C86      1.0000 0.74200  0.23600  0.84700  Biso   1.000  C
  H53      1.0000 0.31500  0.79650  0.19230  Biso   1.000  H
  H54      1.0000 0.68500  0.20350  0.80770  Biso   1.000  H
  H55      1.0000 0.19800  0.70690  0.16010  Biso   1.000  H
  H56      1.0000 0.80200  0.29310  0.83990  Biso   1.000  H
  C87      1.0000 0.34600  0.74500  0.11000  Biso   1.000  C
  C88      1.0000 0.65400  0.25500  0.89000  Biso   1.000  C
  H57      1.0000 0.40240  0.71240  0.12710  Biso   1.000  H
  H58      1.0000 0.59760  0.28760  0.87290  Biso   1.000  H
  H59      1.0000 0.40710  0.80090  0.10170  Biso   1.000  H
  H60      1.0000 0.59290  0.19910  0.89830  Biso   1.000  H
  H61      1.0000 0.29190  0.70890  0.07120  Biso   1.000  H
  H62      1.0000 0.70810  0.29110  0.92880  Biso   1.000  H
