data_image0
_cell_length_a       10.248
_cell_length_b       18.178
_cell_length_c       18.605
_cell_angle_alpha    90
_cell_angle_beta     98.63
_cell_angle_gamma    90

_symmetry_space_group_name_H-M    "P 1"
_symmetry_int_tables_number       1

loop_
  _symmetry_equiv_pos_as_xyz
  'x, y, z'

loop_
  _atom_site_label
  _atom_site_occupancy
  _atom_site_fract_x
  _atom_site_fract_y
  _atom_site_fract_z
  _atom_site_thermal_displace_type
  _atom_site_B_iso_or_equiv
  _atom_site_type_symbol
  O1       1.0000 0.89396  0.13473  0.51076  Biso   1.000  O
  O2       1.0000 0.60604  0.63473  0.98924  Biso   1.000  O
  O3       1.0000 0.10604  0.86527  0.48924  Biso   1.000  O
  O4       1.0000 0.39396  0.36527  0.01076  Biso   1.000  O
  Cl1      1.0000 0.91597  0.21382  0.50872  Biso   1.000  Cl
  Cl2      1.0000 0.58403  0.71382  0.99128  Biso   1.000  Cl
  Cl3      1.0000 0.08403  0.78618  0.49128  Biso   1.000  Cl
  Cl4      1.0000 0.41597  0.28618  0.00872  Biso   1.000  Cl
  O5       1.0000 0.03280  0.22770  0.47871  Biso   1.000  O
  O6       1.0000 0.46720  0.72770  0.02129  Biso   1.000  O
  O7       1.0000 0.96720  0.77230  0.52129  Biso   1.000  O
  O8       1.0000 0.53280  0.27230  0.97871  Biso   1.000  O
  O9       1.0000 0.80470  0.24764  0.46543  Biso   1.000  O
  O10      1.0000 0.69530  0.74764  0.03457  Biso   1.000  O
  O11      1.0000 0.19530  0.75236  0.53457  Biso   1.000  O
  O12      1.0000 0.30470  0.25236  0.96543  Biso   1.000  O
  O13      1.0000 0.92830  0.24132  0.58131  Biso   1.000  O
  O14      1.0000 0.57170  0.74132  0.91869  Biso   1.000  O
  O15      1.0000 0.07170  0.75868  0.41869  Biso   1.000  O
  O16      1.0000 0.42830  0.25868  0.08131  Biso   1.000  O
  Cu1      1.0000 0.96286  0.45866  0.12479  Biso   1.000  Cu
  Cu2      1.0000 0.53714  0.95866  0.37521  Biso   1.000  Cu
  Cu3      1.0000 0.03714  0.54134  0.87521  Biso   1.000  Cu
  Cu4      1.0000 0.46286  0.04134  0.62479  Biso   1.000  Cu
  O17      1.0000 0.12710  0.46160  0.19619  Biso   1.000  O
  O18      1.0000 0.37290  0.96160  0.30381  Biso   1.000  O
  O19      1.0000 0.87290  0.53840  0.80381  Biso   1.000  O
  O20      1.0000 0.62710  0.03840  0.69619  Biso   1.000  O
  O21      1.0000 0.83047  0.46340  0.04123  Biso   1.000  O
  O22      1.0000 0.66953  0.96340  0.45877  Biso   1.000  O
  O23      1.0000 0.16953  0.53660  0.95877  Biso   1.000  O
  O24      1.0000 0.33047  0.03660  0.54123  Biso   1.000  O
  N1       1.0000 0.87830  0.53797  0.17714  Biso   1.000  N
  N2       1.0000 0.62170  0.03797  0.32286  Biso   1.000  N
  N3       1.0000 0.12170  0.46203  0.82286  Biso   1.000  N
  N4       1.0000 0.37830  0.96203  0.67714  Biso   1.000  N
  O25      1.0000 0.72967  0.48529  0.32826  Biso   1.000  O
  O26      1.0000 0.77033  0.98529  0.17174  Biso   1.000  O
  O27      1.0000 0.27033  0.51471  0.67174  Biso   1.000  O
  O28      1.0000 0.22967  0.01471  0.82826  Biso   1.000  O
  H1       1.0000 0.72620  0.51510  0.36100  Biso   1.000  H
  H2       1.0000 0.77380  0.01510  0.13900  Biso   1.000  H
  H3       1.0000 0.27380  0.48490  0.63900  Biso   1.000  H
  H4       1.0000 0.22620  0.98490  0.86100  Biso   1.000  H
  N5       1.0000 0.20982  0.40736  0.10447  Biso   1.000  N
  N6       1.0000 0.29018  0.90736  0.39553  Biso   1.000  N
  N7       1.0000 0.79018  0.59264  0.89553  Biso   1.000  N
  N8       1.0000 0.70982  0.09264  0.60447  Biso   1.000  N
  H5       1.0000 0.27380  0.38850  0.08560  Biso   1.000  H
  H6       1.0000 0.22620  0.88850  0.41440  Biso   1.000  H
  H7       1.0000 0.72620  0.61150  0.91440  Biso   1.000  H
  H8       1.0000 0.77380  0.11150  0.58560  Biso   1.000  H
  N9       1.0000 0.08074  0.40833  0.06836  Biso   1.000  N
  N10      1.0000 0.41926  0.90833  0.43164  Biso   1.000  N
  N11      1.0000 0.91926  0.59167  0.93164  Biso   1.000  N
  N12      1.0000 0.58074  0.09167  0.56836  Biso   1.000  N
  C1       1.0000 0.22730  0.43794  0.17074  Biso   1.000  C
  C2       1.0000 0.27270  0.93794  0.32926  Biso   1.000  C
  C3       1.0000 0.77270  0.56206  0.82926  Biso   1.000  C
  C4       1.0000 0.72730  0.06206  0.67074  Biso   1.000  C
  C5       1.0000 0.77700  0.33956  0.85189  Biso   1.000  C
  C6       1.0000 0.72300  0.83956  0.64811  Biso   1.000  C
  C7       1.0000 0.22300  0.66044  0.14811  Biso   1.000  C
  C8       1.0000 0.27700  0.16044  0.35189  Biso   1.000  C
  C9       1.0000 0.47330  0.41823  0.18949  Biso   1.000  C
  C10      1.0000 0.02670  0.91823  0.31051  Biso   1.000  C
  C11      1.0000 0.52670  0.58177  0.81051  Biso   1.000  C
  C12      1.0000 0.97330  0.08177  0.68949  Biso   1.000  C
  H9       1.0000 0.46650  0.39050  0.14710  Biso   1.000  H
  H10      1.0000 0.03350  0.89050  0.35290  Biso   1.000  H
  H11      1.0000 0.53350  0.60950  0.85290  Biso   1.000  H
  H12      1.0000 0.96650  0.10950  0.64710  Biso   1.000  H
  C13      1.0000 0.92590  0.37935  0.96237  Biso   1.000  C
  C14      1.0000 0.57410  0.87935  0.53763  Biso   1.000  C
  C15      1.0000 0.07410  0.62065  0.03763  Biso   1.000  C
  C16      1.0000 0.42590  0.12065  0.46237  Biso   1.000  C
  C17      1.0000 0.76910  0.65872  0.24087  Biso   1.000  C
  C18      1.0000 0.73090  0.15872  0.25913  Biso   1.000  C
  C19      1.0000 0.23090  0.34128  0.75913  Biso   1.000  C
  C20      1.0000 0.26910  0.84128  0.74087  Biso   1.000  C
  C21      1.0000 0.35970  0.44637  0.21231  Biso   1.000  C
  C22      1.0000 0.14030  0.94637  0.28769  Biso   1.000  C
  C23      1.0000 0.64030  0.55363  0.78769  Biso   1.000  C
  C24      1.0000 0.85970  0.05363  0.71231  Biso   1.000  C
  C25      1.0000 0.71290  0.72478  0.27249  Biso   1.000  C
  C26      1.0000 0.78710  0.22478  0.22751  Biso   1.000  C
  C27      1.0000 0.28710  0.27522  0.72751  Biso   1.000  C
  C28      1.0000 0.21290  0.77522  0.77249  Biso   1.000  C
  C29      1.0000 0.70080  0.42747  0.93388  Biso   1.000  C
  C30      1.0000 0.79920  0.92747  0.56612  Biso   1.000  C
  C31      1.0000 0.29920  0.57253  0.06612  Biso   1.000  C
  C32      1.0000 0.20080  0.07253  0.43388  Biso   1.000  C
  H13      1.0000 0.63380  0.45770  0.94560  Biso   1.000  H
  H14      1.0000 0.86620  0.95770  0.55440  Biso   1.000  H
  H15      1.0000 0.36620  0.54230  0.05440  Biso   1.000  H
  H16      1.0000 0.13380  0.04230  0.44560  Biso   1.000  H
  C33      1.0000 0.49440  0.50107  0.31621  Biso   1.000  C
  C34      1.0000 0.00560  0.00107  0.18379  Biso   1.000  C
  C35      1.0000 0.50560  0.49893  0.68379  Biso   1.000  C
  C36      1.0000 0.99440  0.99893  0.81621  Biso   1.000  C
  H17      1.0000 0.50140  0.52880  0.35860  Biso   1.000  H
  H18      1.0000 0.99860  0.02880  0.14140  Biso   1.000  H
  H19      1.0000 0.49860  0.47120  0.64140  Biso   1.000  H
  H20      1.0000 0.00140  0.97120  0.85860  Biso   1.000  H
  C37      1.0000 0.90080  0.33423  0.89721  Biso   1.000  C
  C38      1.0000 0.59920  0.83423  0.60279  Biso   1.000  C
  C39      1.0000 0.09920  0.66577  0.10279  Biso   1.000  C
  C40      1.0000 0.40080  0.16577  0.39721  Biso   1.000  C
  C41      1.0000 0.76320  0.56782  0.14700  Biso   1.000  C
  C42      1.0000 0.73680  0.06782  0.35300  Biso   1.000  C
  C43      1.0000 0.23680  0.43218  0.85300  Biso   1.000  C
  C44      1.0000 0.26320  0.93218  0.64700  Biso   1.000  C
  H21      1.0000 0.71950  0.54750  0.10420  Biso   1.000  H
  H22      1.0000 0.78050  0.04750  0.39580  Biso   1.000  H
  H23      1.0000 0.28050  0.45250  0.89580  Biso   1.000  H
  H24      1.0000 0.21950  0.95250  0.60420  Biso   1.000  H
  N13      1.0000 0.61240  0.85249  0.33037  Biso   1.000  N
  N14      1.0000 0.88760  0.35249  0.16963  Biso   1.000  N
  N15      1.0000 0.38760  0.14751  0.66963  Biso   1.000  N
  N16      1.0000 0.11240  0.64751  0.83037  Biso   1.000  N
  C45      1.0000 0.70690  0.62725  0.17672  Biso   1.000  C
  C46      1.0000 0.79310  0.12725  0.32328  Biso   1.000  C
  C47      1.0000 0.29310  0.37275  0.82328  Biso   1.000  C
  C48      1.0000 0.20690  0.87275  0.67672  Biso   1.000  C
  H25      1.0000 0.62720  0.64630  0.15380  Biso   1.000  H
  H26      1.0000 0.87280  0.14630  0.34620  Biso   1.000  H
  H27      1.0000 0.37280  0.35370  0.84620  Biso   1.000  H
  H28      1.0000 0.12720  0.85370  0.65380  Biso   1.000  H
  C49      1.0000 0.96290  0.23995  0.81582  Biso   1.000  C
  C50      1.0000 0.53710  0.73995  0.68418  Biso   1.000  C
  C51      1.0000 0.03710  0.76005  0.18418  Biso   1.000  C
  C52      1.0000 0.46290  0.26005  0.31582  Biso   1.000  C
  H29      1.0000 0.02470  0.20620  0.80420  Biso   1.000  H
  H30      1.0000 0.47530  0.70620  0.69580  Biso   1.000  H
  H31      1.0000 0.97530  0.79380  0.19580  Biso   1.000  H
  H32      1.0000 0.52470  0.29380  0.30420  Biso   1.000  H
  C53      1.0000 0.84170  0.24692  0.77064  Biso   1.000  C
  C54      1.0000 0.65830  0.74692  0.72936  Biso   1.000  C
  C55      1.0000 0.15830  0.75308  0.22936  Biso   1.000  C
  C56      1.0000 0.34170  0.25308  0.27064  Biso   1.000  C
  H33      1.0000 0.82310  0.21850  0.72880  Biso   1.000  H
  H34      1.0000 0.67690  0.71850  0.77120  Biso   1.000  H
  H35      1.0000 0.17690  0.78150  0.27120  Biso   1.000  H
  H36      1.0000 0.32310  0.28150  0.22880  Biso   1.000  H
  C57      1.0000 0.70260  0.81008  0.36960  Biso   1.000  C
  C58      1.0000 0.79740  0.31008  0.13040  Biso   1.000  C
  C59      1.0000 0.29740  0.18992  0.63040  Biso   1.000  C
  C60      1.0000 0.20260  0.68992  0.86960  Biso   1.000  C
  H37      1.0000 0.73270  0.82400  0.41730  Biso   1.000  H
  H38      1.0000 0.76730  0.32400  0.08270  Biso   1.000  H
  H39      1.0000 0.26730  0.17600  0.58270  Biso   1.000  H
  H40      1.0000 0.23270  0.67600  0.91730  Biso   1.000  H
  C61      1.0000 0.93820  0.56772  0.23991  Biso   1.000  C
  C62      1.0000 0.56180  0.06772  0.26009  Biso   1.000  C
  C63      1.0000 0.06180  0.43228  0.76009  Biso   1.000  C
  C64      1.0000 0.43820  0.93228  0.73991  Biso   1.000  C
  H41      1.0000 0.01720  0.54720  0.26210  Biso   1.000  H
  H42      1.0000 0.48280  0.04720  0.23790  Biso   1.000  H
  H43      1.0000 0.98280  0.45280  0.73790  Biso   1.000  H
  H44      1.0000 0.51720  0.95280  0.76210  Biso   1.000  H
  C65      1.0000 0.82310  0.42391  0.98219  Biso   1.000  C
  C66      1.0000 0.67690  0.92391  0.51781  Biso   1.000  C
  C67      1.0000 0.17690  0.57609  0.01781  Biso   1.000  C
  C68      1.0000 0.32310  0.07609  0.48219  Biso   1.000  C
  C69      1.0000 0.37160  0.48726  0.27629  Biso   1.000  C
  C70      1.0000 0.12840  0.98726  0.22371  Biso   1.000  C
  C71      1.0000 0.62840  0.51274  0.72371  Biso   1.000  C
  C72      1.0000 0.87160  0.01274  0.77629  Biso   1.000  C
  H45      1.0000 0.29630  0.50550  0.29240  Biso   1.000  H
  H46      1.0000 0.20370  0.00550  0.20760  Biso   1.000  H
  H47      1.0000 0.70370  0.49450  0.70760  Biso   1.000  H
  H48      1.0000 0.79630  0.99450  0.79240  Biso   1.000  H
  C73      1.0000 0.60760  0.47330  0.29265  Biso   1.000  C
  C74      1.0000 0.89240  0.97330  0.20735  Biso   1.000  C
  C75      1.0000 0.39240  0.52670  0.70735  Biso   1.000  C
  C76      1.0000 0.10760  0.02670  0.79265  Biso   1.000  C
  C77      1.0000 0.68000  0.38821  0.87172  Biso   1.000  C
  C78      1.0000 0.82000  0.88821  0.62828  Biso   1.000  C
  C79      1.0000 0.32000  0.61179  0.12828  Biso   1.000  C
  C80      1.0000 0.18000  0.11179  0.37172  Biso   1.000  C
  H49      1.0000 0.60010  0.39310  0.84100  Biso   1.000  H
  H50      1.0000 0.89990  0.89310  0.65900  Biso   1.000  H
  H51      1.0000 0.39990  0.60690  0.15900  Biso   1.000  H
  H52      1.0000 0.10010  0.10690  0.34100  Biso   1.000  H
  C81      1.0000 0.75100  0.29580  0.78863  Biso   1.000  C
  C82      1.0000 0.74900  0.79580  0.71137  Biso   1.000  C
  C83      1.0000 0.24900  0.70420  0.21137  Biso   1.000  C
  C84      1.0000 0.25100  0.20420  0.28863  Biso   1.000  C
  H53      1.0000 0.67020  0.30040  0.75860  Biso   1.000  H
  H54      1.0000 0.82980  0.80040  0.74140  Biso   1.000  H
  H55      1.0000 0.32980  0.69960  0.24140  Biso   1.000  H
  H56      1.0000 0.17020  0.19960  0.25860  Biso   1.000  H
  C85      1.0000 0.05500  0.37887  0.00439  Biso   1.000  C
  C86      1.0000 0.44500  0.87887  0.49561  Biso   1.000  C
  C87      1.0000 0.94500  0.62113  0.99561  Biso   1.000  C
  C88      1.0000 0.55500  0.12113  0.50439  Biso   1.000  C
  H57      1.0000 0.12340  0.35640  0.98490  Biso   1.000  H
  H58      1.0000 0.37660  0.85640  0.51510  Biso   1.000  H
  H59      1.0000 0.87660  0.64360  0.01510  Biso   1.000  H
  H60      1.0000 0.62340  0.14360  0.48490  Biso   1.000  H
  C89      1.0000 0.88750  0.62726  0.27266  Biso   1.000  C
  C90      1.0000 0.61250  0.12726  0.22734  Biso   1.000  C
  C91      1.0000 0.11250  0.37274  0.72734  Biso   1.000  C
  C92      1.0000 0.38750  0.87274  0.77266  Biso   1.000  C
  H61      1.0000 0.93240  0.64620  0.31580  Biso   1.000  H
  H62      1.0000 0.56760  0.14620  0.18420  Biso   1.000  H
  H63      1.0000 0.06760  0.35380  0.68420  Biso   1.000  H
  H64      1.0000 0.43240  0.85380  0.81580  Biso   1.000  H
  C93      1.0000 0.99200  0.28248  0.87740  Biso   1.000  C
  C94      1.0000 0.50800  0.78248  0.62260  Biso   1.000  C
  C95      1.0000 0.00800  0.71752  0.12260  Biso   1.000  C
  C96      1.0000 0.49200  0.21752  0.37740  Biso   1.000  C
  H65      1.0000 0.07340  0.27700  0.90660  Biso   1.000  H
  H66      1.0000 0.42660  0.77700  0.59340  Biso   1.000  H
  H67      1.0000 0.92660  0.72300  0.09340  Biso   1.000  H
  H68      1.0000 0.57340  0.22300  0.40660  Biso   1.000  H
  C97      1.0000 0.57110  0.83066  0.26216  Biso   1.000  C
  C98      1.0000 0.92890  0.33066  0.23784  Biso   1.000  C
  C99      1.0000 0.42890  0.16934  0.73784  Biso   1.000  C
  C100     1.0000 0.07110  0.66934  0.76216  Biso   1.000  C
  H69      1.0000 0.50740  0.85880  0.23370  Biso   1.000  H
  H70      1.0000 0.99260  0.35880  0.26630  Biso   1.000  H
  H71      1.0000 0.49260  0.14120  0.76630  Biso   1.000  H
  H72      1.0000 0.00740  0.64120  0.73370  Biso   1.000  H
  C101     1.0000 0.75420  0.74678  0.34377  Biso   1.000  C
  C102     1.0000 0.74580  0.24678  0.15623  Biso   1.000  C
  C103     1.0000 0.24580  0.25322  0.65623  Biso   1.000  C
  C104     1.0000 0.25420  0.75322  0.84377  Biso   1.000  C
  H73      1.0000 0.81610  0.71910  0.37390  Biso   1.000  H
  H74      1.0000 0.68390  0.21910  0.12610  Biso   1.000  H
  H75      1.0000 0.18390  0.28090  0.62610  Biso   1.000  H
  H76      1.0000 0.31610  0.78090  0.87390  Biso   1.000  H
  C105     1.0000 0.61810  0.76846  0.23171  Biso   1.000  C
  C106     1.0000 0.88190  0.26846  0.26829  Biso   1.000  C
  C107     1.0000 0.38190  0.23154  0.76829  Biso   1.000  C
  C108     1.0000 0.11810  0.73154  0.73171  Biso   1.000  C
  H77      1.0000 0.58620  0.75590  0.18390  Biso   1.000  H
  H78      1.0000 0.91380  0.25590  0.31610  Biso   1.000  H
  H79      1.0000 0.41380  0.24410  0.81610  Biso   1.000  H
  H80      1.0000 0.08620  0.74410  0.68390  Biso   1.000  H
  C109     1.0000 0.59510  0.43122  0.22942  Biso   1.000  C
  C110     1.0000 0.90490  0.93122  0.27058  Biso   1.000  C
  C111     1.0000 0.40490  0.56878  0.77058  Biso   1.000  C
  C112     1.0000 0.09510  0.06878  0.72942  Biso   1.000  C
  H81      1.0000 0.67010  0.41170  0.21400  Biso   1.000  H
  H82      1.0000 0.82990  0.91170  0.28600  Biso   1.000  H
  H83      1.0000 0.32990  0.58830  0.78600  Biso   1.000  H
  H84      1.0000 0.17010  0.08830  0.71400  Biso   1.000  H
  N17      1.0000 0.88110  0.60497  0.53627  Biso   1.000  N
  N18      1.0000 0.61890  0.10497  0.96373  Biso   1.000  N
  N19      1.0000 0.11890  0.39503  0.46373  Biso   1.000  N
  N20      1.0000 0.38110  0.89503  0.03627  Biso   1.000  N
  C113     1.0000 0.84830  0.58102  0.46913  Biso   1.000  C
  C114     1.0000 0.65170  0.08102  0.03087  Biso   1.000  C
  C115     1.0000 0.15170  0.41898  0.53087  Biso   1.000  C
  C116     1.0000 0.34830  0.91898  0.96913  Biso   1.000  C
  H85      1.0000 0.91560  0.56310  0.44560  Biso   1.000  H
  H86      1.0000 0.58440  0.06310  0.05440  Biso   1.000  H
  H87      1.0000 0.08440  0.43690  0.55440  Biso   1.000  H
  H88      1.0000 0.41560  0.93690  0.94560  Biso   1.000  H
  O29      1.0000 0.73500  0.58049  0.43501  Biso   1.000  O
  O30      1.0000 0.76500  0.08049  0.06499  Biso   1.000  O
  O31      1.0000 0.26500  0.41951  0.56499  Biso   1.000  O
  O32      1.0000 0.23500  0.91951  0.93501  Biso   1.000  O
  C117     1.0000 0.01570  0.59736  0.57368  Biso   1.000  C
  C118     1.0000 0.48430  0.09736  0.92632  Biso   1.000  C
  C119     1.0000 0.98430  0.40264  0.42632  Biso   1.000  C
  C120     1.0000 0.51570  0.90264  0.07368  Biso   1.000  C
  H89      1.0000 0.01800  0.56120  0.61150  Biso   1.000  H
  H90      1.0000 0.48200  0.06120  0.88850  Biso   1.000  H
  H91      1.0000 0.98200  0.43880  0.38850  Biso   1.000  H
  H92      1.0000 0.51800  0.93880  0.11150  Biso   1.000  H
  H93      1.0000 0.04570  0.64380  0.59460  Biso   1.000  H
  H94      1.0000 0.45430  0.14380  0.90540  Biso   1.000  H
  H95      1.0000 0.95430  0.35620  0.40540  Biso   1.000  H
  H96      1.0000 0.54570  0.85620  0.09460  Biso   1.000  H
  H97      1.0000 0.07210  0.58210  0.53970  Biso   1.000  H
  H98      1.0000 0.42790  0.08210  0.96030  Biso   1.000  H
  H99      1.0000 0.92790  0.41790  0.46030  Biso   1.000  H
  H100     1.0000 0.57210  0.91790  0.03970  Biso   1.000  H
  C121     1.0000 0.78330  0.63430  0.57704  Biso   1.000  C
  C122     1.0000 0.71670  0.13430  0.92296  Biso   1.000  C
  C123     1.0000 0.21670  0.36570  0.42296  Biso   1.000  C
  C124     1.0000 0.28330  0.86570  0.07704  Biso   1.000  C
  H101     1.0000 0.70210  0.64240  0.54490  Biso   1.000  H
  H102     1.0000 0.79790  0.14240  0.95510  Biso   1.000  H
  H103     1.0000 0.29790  0.35760  0.45510  Biso   1.000  H
  H104     1.0000 0.20210  0.85760  0.04490  Biso   1.000  H
  H105     1.0000 0.81420  0.68010  0.59910  Biso   1.000  H
  H106     1.0000 0.68580  0.18010  0.90090  Biso   1.000  H
  H107     1.0000 0.18580  0.31990  0.40090  Biso   1.000  H
  H108     1.0000 0.31420  0.81990  0.09910  Biso   1.000  H
  H109     1.0000 0.76860  0.59990  0.61420  Biso   1.000  H
  H110     1.0000 0.73140  0.09990  0.88580  Biso   1.000  H
  H111     1.0000 0.23140  0.40010  0.38580  Biso   1.000  H
  H112     1.0000 0.26860  0.90010  0.11420  Biso   1.000  H
  N21      1.0000 0.15940  0.12830  0.06396  Biso   1.000  N
  N22      1.0000 0.34060  0.62830  0.43604  Biso   1.000  N
  N23      1.0000 0.84060  0.87170  0.93604  Biso   1.000  N
  N24      1.0000 0.65940  0.37170  0.56396  Biso   1.000  N
  O33      1.0000 0.34890  0.06251  0.09396  Biso   1.000  O
  O34      1.0000 0.15110  0.56251  0.40604  Biso   1.000  O
  O35      1.0000 0.65110  0.93749  0.90604  Biso   1.000  O
  O36      1.0000 0.84890  0.43749  0.59396  Biso   1.000  O
  C125     1.0000 0.27480  0.11266  0.10406  Biso   1.000  C
  C126     1.0000 0.22520  0.61266  0.39594  Biso   1.000  C
  C127     1.0000 0.72520  0.88734  0.89594  Biso   1.000  C
  C128     1.0000 0.77480  0.38734  0.60406  Biso   1.000  C
  H113     1.0000 0.30160  0.14300  0.14380  Biso   1.000  H
  H114     1.0000 0.19840  0.64300  0.35620  Biso   1.000  H
  H115     1.0000 0.69840  0.85700  0.85620  Biso   1.000  H
  H116     1.0000 0.80160  0.35700  0.64380  Biso   1.000  H
  C129     1.0000 0.08030  0.19105  0.07886  Biso   1.000  C
  C130     1.0000 0.41970  0.69105  0.42114  Biso   1.000  C
  C131     1.0000 0.91970  0.80895  0.92114  Biso   1.000  C
  C132     1.0000 0.58030  0.30895  0.57886  Biso   1.000  C
  H117     1.0000 0.12560  0.21790  0.11950  Biso   1.000  H
  H118     1.0000 0.37440  0.71790  0.38050  Biso   1.000  H
  H119     1.0000 0.87440  0.78210  0.88050  Biso   1.000  H
  H120     1.0000 0.62560  0.28210  0.61950  Biso   1.000  H
  H121     1.0000 0.99680  0.17430  0.09000  Biso   1.000  H
  H122     1.0000 0.50320  0.67430  0.41000  Biso   1.000  H
  H123     1.0000 0.00320  0.82570  0.91000  Biso   1.000  H
  H124     1.0000 0.49680  0.32570  0.59000  Biso   1.000  H
  H125     1.0000 0.06620  0.22250  0.03690  Biso   1.000  H
  H126     1.0000 0.43380  0.72250  0.46310  Biso   1.000  H
  H127     1.0000 0.93380  0.77750  0.96310  Biso   1.000  H
  H128     1.0000 0.56620  0.27750  0.53690  Biso   1.000  H
  C133     1.0000 0.11550  0.08780  0.99780  Biso   1.000  C
  C134     1.0000 0.38450  0.58780  0.50220  Biso   1.000  C
  C135     1.0000 0.88450  0.91220  0.00220  Biso   1.000  C
  C136     1.0000 0.61550  0.41220  0.49780  Biso   1.000  C
  H129     1.0000 0.12990  0.11690  0.95660  Biso   1.000  H
  H130     1.0000 0.37010  0.61690  0.54340  Biso   1.000  H
  H131     1.0000 0.87010  0.88310  0.04340  Biso   1.000  H
  H132     1.0000 0.62990  0.38310  0.45660  Biso   1.000  H
  H133     1.0000 0.02310  0.07700  0.99470  Biso   1.000  H
  H134     1.0000 0.47690  0.57700  0.50530  Biso   1.000  H
  H135     1.0000 0.97690  0.92300  0.00530  Biso   1.000  H
  H136     1.0000 0.52310  0.42300  0.49470  Biso   1.000  H
  H137     1.0000 0.16430  0.04270  0.99820  Biso   1.000  H
  H138     1.0000 0.33570  0.54270  0.50180  Biso   1.000  H
  H139     1.0000 0.83570  0.95730  0.00180  Biso   1.000  H
  H140     1.0000 0.66430  0.45730  0.49820  Biso   1.000  H
