data_image0
_cell_length_a       11.2215
_cell_length_b       6.7153
_cell_length_c       17.1529
_cell_angle_alpha    90
_cell_angle_beta     107.109
_cell_angle_gamma    90

_symmetry_space_group_name_H-M    "P 1"
_symmetry_int_tables_number       1

loop_
  _symmetry_equiv_pos_as_xyz
  'x, y, z'

loop_
  _atom_site_label
  _atom_site_occupancy
  _atom_site_fract_x
  _atom_site_fract_y
  _atom_site_fract_z
  _atom_site_thermal_displace_type
  _atom_site_B_iso_or_equiv
  _atom_site_type_symbol
  Cu1      1.0000 0.15675  0.34793  0.21465  Biso   1.000  Cu
  Cu2      1.0000 0.84325  0.84793  0.28535  Biso   1.000  Cu
  Cu3      1.0000 0.84325  0.65207  0.78535  Biso   1.000  Cu
  Cu4      1.0000 0.15675  0.15207  0.71465  Biso   1.000  Cu
  Cu5      1.0000 0.55966  0.49453  0.09129  Biso   1.000  Cu
  Cu6      1.0000 0.44034  0.99453  0.40871  Biso   1.000  Cu
  Cu7      1.0000 0.44034  0.50547  0.90871  Biso   1.000  Cu
  Cu8      1.0000 0.55966  0.00547  0.59129  Biso   1.000  Cu
  O1       1.0000 0.34770  0.39020  0.23975  Biso   1.000  O
  O2       1.0000 0.65230  0.89020  0.26025  Biso   1.000  O
  O3       1.0000 0.65230  0.60980  0.76025  Biso   1.000  O
  O4       1.0000 0.34770  0.10980  0.73975  Biso   1.000  O
  O5       1.0000 0.49740  0.43100  0.18171  Biso   1.000  O
  O6       1.0000 0.50260  0.93100  0.31829  Biso   1.000  O
  O7       1.0000 0.50260  0.56900  0.81829  Biso   1.000  O
  O8       1.0000 0.49740  0.06900  0.68171  Biso   1.000  O
  O9       1.0000 0.40890  0.41570  0.00866  Biso   1.000  O
  O10      1.0000 0.59110  0.91570  0.49134  Biso   1.000  O
  O11      1.0000 0.59110  0.58430  0.99134  Biso   1.000  O
  O12      1.0000 0.40890  0.08430  0.50866  Biso   1.000  O
  O13      1.0000 0.28260  0.40530  0.84413  Biso   1.000  O
  O14      1.0000 0.71740  0.90530  0.65587  Biso   1.000  O
  O15      1.0000 0.71740  0.59470  0.15587  Biso   1.000  O
  O16      1.0000 0.28260  0.09470  0.34413  Biso   1.000  O
  O17      1.0000 0.12820  0.19270  0.81942  Biso   1.000  O
  O18      1.0000 0.87180  0.69270  0.68058  Biso   1.000  O
  O19      1.0000 0.87180  0.80730  0.18058  Biso   1.000  O
  O20      1.0000 0.12820  0.30730  0.31942  Biso   1.000  O
  O21      1.0000 0.86180  0.20770  0.02720  Biso   1.000  O
  O22      1.0000 0.13820  0.70770  0.47280  Biso   1.000  O
  O23      1.0000 0.13820  0.79230  0.97280  Biso   1.000  O
  O24      1.0000 0.86180  0.29230  0.52720  Biso   1.000  O
  O25      1.0000 0.98190  0.27950  0.15269  Biso   1.000  O
  O26      1.0000 0.01810  0.77950  0.34731  Biso   1.000  O
  O27      1.0000 0.01810  0.72050  0.84731  Biso   1.000  O
  O28      1.0000 0.98190  0.22050  0.65269  Biso   1.000  O
  O29      1.0000 0.15800  0.66730  0.24240  Biso   1.000  O
  O30      1.0000 0.84200  0.16730  0.25760  Biso   1.000  O
  O31      1.0000 0.84200  0.33270  0.75760  Biso   1.000  O
  O32      1.0000 0.15800  0.83270  0.74240  Biso   1.000  O
  H1       1.0000 0.16600  0.74400  0.20600  Biso   1.000  H
  H2       1.0000 0.83400  0.24400  0.29400  Biso   1.000  H
  H3       1.0000 0.83400  0.25600  0.79400  Biso   1.000  H
  H4       1.0000 0.16600  0.75600  0.70600  Biso   1.000  H
  H5       1.0000 0.11100  0.71700  0.26700  Biso   1.000  H
  H6       1.0000 0.88900  0.21700  0.23300  Biso   1.000  H
  H7       1.0000 0.88900  0.28300  0.73300  Biso   1.000  H
  H8       1.0000 0.11100  0.78300  0.76700  Biso   1.000  H
  O33      1.0000 0.47650  0.85170  0.10750  Biso   1.000  O
  O34      1.0000 0.52350  0.35170  0.39250  Biso   1.000  O
  O35      1.0000 0.52350  0.14830  0.89250  Biso   1.000  O
  O36      1.0000 0.47650  0.64830  0.60750  Biso   1.000  O
  H9       1.0000 0.53000  0.91500  0.14500  Biso   1.000  H
  H10      1.0000 0.47000  0.41500  0.35500  Biso   1.000  H
  H11      1.0000 0.47000  0.08500  0.85500  Biso   1.000  H
  H12      1.0000 0.53000  0.58500  0.64500  Biso   1.000  H
  H13      1.0000 0.47500  0.89500  0.06100  Biso   1.000  H
  H14      1.0000 0.52500  0.39500  0.43900  Biso   1.000  H
  H15      1.0000 0.52500  0.10500  0.93900  Biso   1.000  H
  H16      1.0000 0.47500  0.60500  0.56100  Biso   1.000  H
  O37      1.0000 0.65450  0.17020  0.09140  Biso   1.000  O
  O38      1.0000 0.34550  0.67020  0.40860  Biso   1.000  O
  O39      1.0000 0.34550  0.82980  0.90860  Biso   1.000  O
  O40      1.0000 0.65450  0.32980  0.59140  Biso   1.000  O
  H17      1.0000 0.69400  0.19300  0.05700  Biso   1.000  H
  H18      1.0000 0.30600  0.69300  0.44300  Biso   1.000  H
  H19      1.0000 0.30600  0.80700  0.94300  Biso   1.000  H
  H20      1.0000 0.69400  0.30700  0.55700  Biso   1.000  H
  H21      1.0000 0.70400  0.16100  0.13900  Biso   1.000  H
  H22      1.0000 0.29600  0.66100  0.36100  Biso   1.000  H
  H23      1.0000 0.29600  0.83900  0.86100  Biso   1.000  H
  H24      1.0000 0.70400  0.33900  0.63900  Biso   1.000  H
  O41      1.0000 0.24600  0.90090  0.14680  Biso   1.000  O
  O42      1.0000 0.75400  0.40090  0.35320  Biso   1.000  O
  O43      1.0000 0.75400  0.09910  0.85320  Biso   1.000  O
  O44      1.0000 0.24600  0.59910  0.64680  Biso   1.000  O
  H25      1.0000 0.31730  0.85850  0.14670  Biso   1.000  H
  H26      1.0000 0.68270  0.35850  0.35330  Biso   1.000  H
  H27      1.0000 0.68270  0.14150  0.85330  Biso   1.000  H
  H28      1.0000 0.31730  0.64150  0.64670  Biso   1.000  H
  H29      1.0000 0.19190  0.89870  0.10020  Biso   1.000  H
  H30      1.0000 0.80810  0.39870  0.39980  Biso   1.000  H
  H31      1.0000 0.80810  0.10130  0.89980  Biso   1.000  H
  H32      1.0000 0.19190  0.60130  0.60020  Biso   1.000  H
  N1       1.0000 0.17500  0.33770  0.10732  Biso   1.000  N
  N2       1.0000 0.82500  0.83770  0.39268  Biso   1.000  N
  N3       1.0000 0.82500  0.66230  0.89268  Biso   1.000  N
  N4       1.0000 0.17500  0.16230  0.60732  Biso   1.000  N
  C1       1.0000 0.28640  0.37340  0.09750  Biso   1.000  C
  C2       1.0000 0.71360  0.87340  0.40250  Biso   1.000  C
  C3       1.0000 0.71360  0.62660  0.90250  Biso   1.000  C
  C4       1.0000 0.28640  0.12660  0.59750  Biso   1.000  C
  C5       1.0000 0.30080  0.37140  0.01900  Biso   1.000  C
  C6       1.0000 0.69920  0.87140  0.48100  Biso   1.000  C
  C7       1.0000 0.69920  0.62860  0.98100  Biso   1.000  C
  C8       1.0000 0.30080  0.12860  0.51900  Biso   1.000  C
  C9       1.0000 0.19690  0.31620  0.95320  Biso   1.000  C
  C10      1.0000 0.80310  0.81620  0.54680  Biso   1.000  C
  C11      1.0000 0.80310  0.68380  0.04680  Biso   1.000  C
  C12      1.0000 0.19690  0.18380  0.45320  Biso   1.000  C
  C13      1.0000 0.08470  0.27190  0.96760  Biso   1.000  C
  C14      1.0000 0.91530  0.77190  0.53240  Biso   1.000  C
  C15      1.0000 0.91530  0.72810  0.03240  Biso   1.000  C
  C16      1.0000 0.08470  0.22810  0.46760  Biso   1.000  C
  H33      1.0000 0.01660  0.23110  0.92500  Biso   1.000  H
  H34      1.0000 0.98340  0.73110  0.57500  Biso   1.000  H
  H35      1.0000 0.98340  0.76890  0.07500  Biso   1.000  H
  H36      1.0000 0.01660  0.26890  0.42500  Biso   1.000  H
  C17      1.0000 0.07470  0.28880  0.04600  Biso   1.000  C
  C18      1.0000 0.92530  0.78880  0.45400  Biso   1.000  C
  C19      1.0000 0.92530  0.71120  0.95400  Biso   1.000  C
  C20      1.0000 0.07470  0.21120  0.54600  Biso   1.000  C
  C21      1.0000 0.38480  0.40180  0.17810  Biso   1.000  C
  C22      1.0000 0.61520  0.90180  0.32190  Biso   1.000  C
  C23      1.0000 0.61520  0.59820  0.82190  Biso   1.000  C
  C24      1.0000 0.38480  0.09820  0.67810  Biso   1.000  C
  C25      1.0000 0.20490  0.30490  0.86730  Biso   1.000  C
  C26      1.0000 0.79510  0.80490  0.63270  Biso   1.000  C
  C27      1.0000 0.79510  0.69510  0.13270  Biso   1.000  C
  C28      1.0000 0.20490  0.19510  0.36730  Biso   1.000  C
  C29      1.0000 0.96180  0.25360  0.07560  Biso   1.000  C
  C30      1.0000 0.03820  0.75360  0.42440  Biso   1.000  C
  C31      1.0000 0.03820  0.74640  0.92440  Biso   1.000  C
  C32      1.0000 0.96180  0.24640  0.57560  Biso   1.000  C
