data_image0
_cell_length_a       10.798
_cell_length_b       17.6826
_cell_length_c       7.4096
_cell_angle_alpha    90
_cell_angle_beta     109.201
_cell_angle_gamma    90

_symmetry_space_group_name_H-M    "P 1"
_symmetry_int_tables_number       1

loop_
  _symmetry_equiv_pos_as_xyz
  'x, y, z'

loop_
  _atom_site_label
  _atom_site_occupancy
  _atom_site_fract_x
  _atom_site_fract_y
  _atom_site_fract_z
  _atom_site_thermal_displace_type
  _atom_site_B_iso_or_equiv
  _atom_site_type_symbol
  C1       1.0000 0.23336  0.17328  0.64690  Biso   1.000  C
  C2       1.0000 0.76664  0.67328  0.85310  Biso   1.000  C
  C3       1.0000 0.76664  0.82672  0.35310  Biso   1.000  C
  C4       1.0000 0.23336  0.32672  0.14690  Biso   1.000  C
  C5       1.0000 0.25191  0.09830  0.58670  Biso   1.000  C
  C6       1.0000 0.74809  0.59830  0.91330  Biso   1.000  C
  C7       1.0000 0.74809  0.90170  0.41330  Biso   1.000  C
  C8       1.0000 0.25191  0.40170  0.08670  Biso   1.000  C
  C9       1.0000 0.10352  0.21328  0.57260  Biso   1.000  C
  C10      1.0000 0.89648  0.71328  0.92740  Biso   1.000  C
  C11      1.0000 0.89648  0.78672  0.42740  Biso   1.000  C
  C12      1.0000 0.10352  0.28672  0.07260  Biso   1.000  C
  C13      1.0000 0.14704  0.05645  0.44090  Biso   1.000  C
  C14      1.0000 0.85296  0.55645  0.05910  Biso   1.000  C
  C15      1.0000 0.85296  0.94355  0.55910  Biso   1.000  C
  C16      1.0000 0.14704  0.44355  0.94090  Biso   1.000  C
  C17      1.0000 0.16922  0.97366  0.41380  Biso   1.000  C
  C18      1.0000 0.83078  0.47366  0.08620  Biso   1.000  C
  C19      1.0000 0.83078  0.02634  0.58620  Biso   1.000  C
  C20      1.0000 0.16922  0.52634  0.91380  Biso   1.000  C
  C21      1.0000 0.56754  0.02467  0.84110  Biso   1.000  C
  C22      1.0000 0.43246  0.52467  0.65890  Biso   1.000  C
  C23      1.0000 0.43246  0.97533  0.15890  Biso   1.000  C
  C24      1.0000 0.56754  0.47533  0.34110  Biso   1.000  C
  C25      1.0000 0.55511  0.95209  0.76310  Biso   1.000  C
  C26      1.0000 0.44489  0.45209  0.73690  Biso   1.000  C
  C27      1.0000 0.44489  0.04791  0.23690  Biso   1.000  C
  C28      1.0000 0.55511  0.54791  0.26310  Biso   1.000  C
  C29      1.0000 0.65883  0.90170  0.82460  Biso   1.000  C
  C30      1.0000 0.34117  0.40170  0.67540  Biso   1.000  C
  C31      1.0000 0.34117  0.09830  0.17540  Biso   1.000  C
  C32      1.0000 0.65883  0.59830  0.32460  Biso   1.000  C
  C33      1.0000 0.77639  0.92320  0.96120  Biso   1.000  C
  C34      1.0000 0.22361  0.42320  0.53880  Biso   1.000  C
  C35      1.0000 0.22361  0.07680  0.03880  Biso   1.000  C
  C36      1.0000 0.77639  0.57680  0.46120  Biso   1.000  C
  C37      1.0000 0.78999  0.99469  0.03970  Biso   1.000  C
  C38      1.0000 0.21001  0.49469  0.46030  Biso   1.000  C
  C39      1.0000 0.21001  0.00531  0.96030  Biso   1.000  C
  C40      1.0000 0.78999  0.50531  0.53970  Biso   1.000  C
  C41      1.0000 0.68548  0.04523  0.98030  Biso   1.000  C
  C42      1.0000 0.31452  0.54523  0.51970  Biso   1.000  C
  C43      1.0000 0.31452  0.95477  0.01970  Biso   1.000  C
  C44      1.0000 0.68548  0.45477  0.48030  Biso   1.000  C
  C45      1.0000 0.81680  0.18169  0.00090  Biso   1.000  C
  C46      1.0000 0.18320  0.68169  0.49910  Biso   1.000  C
  C47      1.0000 0.18320  0.81831  0.99910  Biso   1.000  C
  C48      1.0000 0.81680  0.31831  0.50090  Biso   1.000  C
  Cl1      1.0000 0.55406  0.29338  0.04833  Biso   1.000  Cl
  Cl2      1.0000 0.44594  0.79338  0.45167  Biso   1.000  Cl
  Cl3      1.0000 0.44594  0.70662  0.95167  Biso   1.000  Cl
  Cl4      1.0000 0.55406  0.20662  0.54833  Biso   1.000  Cl
  Cu1      1.0000 0.50133  0.18135  0.89406  Biso   1.000  Cu
  Cu2      1.0000 0.49867  0.68135  0.60594  Biso   1.000  Cu
  Cu3      1.0000 0.49867  0.81865  0.10594  Biso   1.000  Cu
  Cu4      1.0000 0.50133  0.31865  0.39406  Biso   1.000  Cu
  N1       1.0000 0.46558  0.08001  0.78637  Biso   1.000  N
  N2       1.0000 0.53442  0.58001  0.71363  Biso   1.000  N
  N3       1.0000 0.53442  0.91999  0.21363  Biso   1.000  N
  N4       1.0000 0.46558  0.41999  0.28637  Biso   1.000  N
  N5       1.0000 0.36071  0.05599  0.66094  Biso   1.000  N
  N6       1.0000 0.63929  0.55599  0.83906  Biso   1.000  N
  N7       1.0000 0.63929  0.94401  0.33906  Biso   1.000  N
  N8       1.0000 0.36071  0.44401  0.16094  Biso   1.000  N
  O1       1.0000 0.32080  0.20965  0.77074  Biso   1.000  O
  O2       1.0000 0.67920  0.70965  0.72926  Biso   1.000  O
  O3       1.0000 0.67920  0.79035  0.22926  Biso   1.000  O
  O4       1.0000 0.32080  0.29035  0.27074  Biso   1.000  O
  O5       1.0000 0.04505  0.08690  0.34463  Biso   1.000  O
  O6       1.0000 0.95495  0.58690  0.15537  Biso   1.000  O
  O7       1.0000 0.95495  0.91310  0.65537  Biso   1.000  O
  O8       1.0000 0.04505  0.41310  0.84463  Biso   1.000  O
  S1       1.0000 0.69769  0.13559  0.08712  Biso   1.000  S
  S2       1.0000 0.30231  0.63559  0.41288  Biso   1.000  S
  S3       1.0000 0.30231  0.86441  0.91288  Biso   1.000  S
  S4       1.0000 0.69769  0.36441  0.58712  Biso   1.000  S
  H1       1.0000 0.11000  0.25900  0.63900  Biso   1.000  H
  H2       1.0000 0.89000  0.75900  0.86100  Biso   1.000  H
  H3       1.0000 0.89000  0.74100  0.36100  Biso   1.000  H
  H4       1.0000 0.11000  0.24100  0.13900  Biso   1.000  H
  H5       1.0000 0.08000  0.22220  0.44000  Biso   1.000  H
  H6       1.0000 0.92000  0.72220  0.06000  Biso   1.000  H
  H7       1.0000 0.92000  0.77780  0.56000  Biso   1.000  H
  H8       1.0000 0.08000  0.27780  0.94000  Biso   1.000  H
  H9       1.0000 0.03000  0.18110  0.59100  Biso   1.000  H
  H10      1.0000 0.97000  0.68110  0.90900  Biso   1.000  H
  H11      1.0000 0.97000  0.81890  0.40900  Biso   1.000  H
  H12      1.0000 0.03000  0.31890  0.09100  Biso   1.000  H
  H13      1.0000 0.09500  0.95300  0.31300  Biso   1.000  H
  H14      1.0000 0.90500  0.45300  0.18700  Biso   1.000  H
  H15      1.0000 0.90500  0.04700  0.68700  Biso   1.000  H
  H16      1.0000 0.09500  0.54700  0.81300  Biso   1.000  H
  H17      1.0000 0.25000  0.96650  0.38200  Biso   1.000  H
  H18      1.0000 0.75000  0.46650  0.11800  Biso   1.000  H
  H19      1.0000 0.75000  0.03350  0.61800  Biso   1.000  H
  H20      1.0000 0.25000  0.53350  0.88200  Biso   1.000  H
  H21      1.0000 0.18000  0.94490  0.52400  Biso   1.000  H
  H22      1.0000 0.82000  0.44490  0.97600  Biso   1.000  H
  H23      1.0000 0.82000  0.05510  0.47600  Biso   1.000  H
  H24      1.0000 0.18000  0.55510  0.02400  Biso   1.000  H
  H25      1.0000 0.48000  0.93910  0.67400  Biso   1.000  H
  H26      1.0000 0.52000  0.43910  0.82600  Biso   1.000  H
  H27      1.0000 0.52000  0.06090  0.32600  Biso   1.000  H
  H28      1.0000 0.48000  0.56090  0.17400  Biso   1.000  H
  H29      1.0000 0.64700  0.85560  0.77400  Biso   1.000  H
  H30      1.0000 0.35300  0.35560  0.72600  Biso   1.000  H
  H31      1.0000 0.35300  0.14440  0.22600  Biso   1.000  H
  H32      1.0000 0.64700  0.64440  0.27400  Biso   1.000  H
  H33      1.0000 0.84800  0.88960  0.99800  Biso   1.000  H
  H34      1.0000 0.15200  0.38960  0.50200  Biso   1.000  H
  H35      1.0000 0.15200  0.11040  0.00200  Biso   1.000  H
  H36      1.0000 0.84800  0.61040  0.49800  Biso   1.000  H
  H37      1.0000 0.86500  0.01000  0.12600  Biso   1.000  H
  H38      1.0000 0.13500  0.51000  0.37400  Biso   1.000  H
  H39      1.0000 0.13500  0.99000  0.87400  Biso   1.000  H
  H40      1.0000 0.86500  0.49000  0.62600  Biso   1.000  H
  H41      1.0000 0.81600  0.23320  0.03500  Biso   1.000  H
  H42      1.0000 0.18400  0.73320  0.46500  Biso   1.000  H
  H43      1.0000 0.18400  0.76680  0.96500  Biso   1.000  H
  H44      1.0000 0.81600  0.26680  0.53500  Biso   1.000  H
  H45      1.0000 0.79100  0.17740  0.87400  Biso   1.000  H
  H46      1.0000 0.20900  0.67740  0.62600  Biso   1.000  H
  H47      1.0000 0.20900  0.82260  0.12600  Biso   1.000  H
  H48      1.0000 0.79100  0.32260  0.37400  Biso   1.000  H
  H49      1.0000 0.89800  0.15970  0.05200  Biso   1.000  H
  H50      1.0000 0.10200  0.65970  0.44800  Biso   1.000  H
  H51      1.0000 0.10200  0.84030  0.94800  Biso   1.000  H
  H52      1.0000 0.89800  0.34030  0.55200  Biso   1.000  H
