data_image0
_cell_length_a       7.584
_cell_length_b       10.214
_cell_length_c       8.169
_cell_angle_alpha    90
_cell_angle_beta     92.778
_cell_angle_gamma    90

_symmetry_space_group_name_H-M    "P 1"
_symmetry_int_tables_number       1

loop_
  _symmetry_equiv_pos_as_xyz
  'x, y, z'

loop_
  _atom_site_label
  _atom_site_occupancy
  _atom_site_fract_x
  _atom_site_fract_y
  _atom_site_fract_z
  _atom_site_thermal_displace_type
  _atom_site_B_iso_or_equiv
  _atom_site_type_symbol
  Cu1      1.0000 0.73009  0.73173  0.74118  Biso   1.000  Cu
  Cu2      1.0000 0.26991  0.23173  0.25882  Biso   1.000  Cu
  O1       1.0000 0.87260  0.87882  0.68944  Biso   1.000  O
  O2       1.0000 0.12740  0.37882  0.31056  Biso   1.000  O
  O3       1.0000 0.86450  0.09149  0.64410  Biso   1.000  O
  O4       1.0000 0.13550  0.59149  0.35590  Biso   1.000  O
  O5       1.0000 0.53370  0.85056  0.67840  Biso   1.000  O
  O6       1.0000 0.46630  0.35056  0.32160  Biso   1.000  O
  H1       1.0000 0.43770  0.83320  0.63310  Biso   1.000  H
  H2       1.0000 0.56230  0.33320  0.36690  Biso   1.000  H
  O7       1.0000 0.26830  0.13065  0.51530  Biso   1.000  O
  O8       1.0000 0.73170  0.63065  0.48470  Biso   1.000  O
  O9       1.0000 0.19210  0.07810  0.76510  Biso   1.000  O
  O10      1.0000 0.80790  0.57810  0.23490  Biso   1.000  O
  H3       1.0000 0.09240  0.08980  0.72430  Biso   1.000  H
  H4       1.0000 0.90760  0.58980  0.27570  Biso   1.000  H
  O11      1.0000 0.59581  0.58485  0.81867  Biso   1.000  O
  O12      1.0000 0.40419  0.08485  0.18133  Biso   1.000  O
  O13      1.0000 0.62390  0.37543  0.88970  Biso   1.000  O
  O14      1.0000 0.37610  0.87543  0.11030  Biso   1.000  O
  O15      1.0000 0.92785  0.62213  0.81650  Biso   1.000  O
  O16      1.0000 0.07215  0.12213  0.18350  Biso   1.000  O
  H5       1.0000 0.03500  0.62850  0.83340  Biso   1.000  H
  H6       1.0000 0.96500  0.12850  0.16660  Biso   1.000  H
  O17      1.0000 0.22250  0.41550  0.71620  Biso   1.000  O
  O18      1.0000 0.77750  0.91550  0.28380  Biso   1.000  O
  O19      1.0000 0.29750  0.35491  0.97170  Biso   1.000  O
  O20      1.0000 0.70250  0.85491  0.02830  Biso   1.000  O
  H7       1.0000 0.38390  0.40330  0.97290  Biso   1.000  H
  H8       1.0000 0.61610  0.90330  0.02710  Biso   1.000  H
  C1       1.0000 0.79120  0.98460  0.65530  Biso   1.000  C
  C2       1.0000 0.20880  0.48460  0.34470  Biso   1.000  C
  C3       1.0000 0.59050  0.97780  0.62630  Biso   1.000  C
  C4       1.0000 0.40950  0.47780  0.37370  Biso   1.000  C
  H9       1.0000 0.56110  0.98760  0.50880  Biso   1.000  H
  H10      1.0000 0.43890  0.48760  0.49120  Biso   1.000  H
  C5       1.0000 0.49710  0.08530  0.71920  Biso   1.000  C
  C6       1.0000 0.50290  0.58530  0.28080  Biso   1.000  C
  H11      1.0000 0.49870  0.06340  0.83480  Biso   1.000  H
  H12      1.0000 0.50130  0.56340  0.16520  Biso   1.000  H
  H13      1.0000 0.55970  0.16740  0.70780  Biso   1.000  H
  H14      1.0000 0.44030  0.66740  0.29220  Biso   1.000  H
  C7       1.0000 0.30900  0.10110  0.65450  Biso   1.000  C
  C8       1.0000 0.69100  0.60110  0.34550  Biso   1.000  C
  C9       1.0000 0.68610  0.48090  0.84240  Biso   1.000  C
  C10      1.0000 0.31390  0.98090  0.15760  Biso   1.000  C
  C11      1.0000 0.88020  0.48623  0.80190  Biso   1.000  C
  C12      1.0000 0.11980  0.98623  0.19810  Biso   1.000  C
  H15      1.0000 0.89060  0.45920  0.68760  Biso   1.000  H
  H16      1.0000 0.10940  0.95920  0.31240  Biso   1.000  H
  C13      1.0000 0.99660  0.39900  0.91000  Biso   1.000  C
  C14      1.0000 0.00340  0.89900  0.09000  Biso   1.000  C
  H17      1.0000 0.99930  0.43210  0.02140  Biso   1.000  H
  H18      1.0000 0.00070  0.93210  0.97860  Biso   1.000  H
  H19      1.0000 0.94680  0.31160  0.91050  Biso   1.000  H
  H20      1.0000 0.05320  0.81160  0.08950  Biso   1.000  H
  C15      1.0000 0.18220  0.39210  0.85310  Biso   1.000  C
  C16      1.0000 0.81780  0.89210  0.14690  Biso   1.000  C
  O21      1.0000 0.77730  0.30830  0.45600  Biso   1.000  O
  O22      1.0000 0.22270  0.80830  0.54400  Biso   1.000  O
  H21      1.0000 0.86200  0.33500  0.41900  Biso   1.000  H
  H22      1.0000 0.13800  0.83500  0.58100  Biso   1.000  H
  H23      1.0000 0.79100  0.23900  0.50300  Biso   1.000  H
  H24      1.0000 0.20900  0.73900  0.49700  Biso   1.000  H
  O23      1.0000 0.25330  0.67210  0.90140  Biso   1.000  O
  O24      1.0000 0.74670  0.17210  0.09860  Biso   1.000  O
  H25      1.0000 0.26200  0.74100  0.95500  Biso   1.000  H
  H26      1.0000 0.73800  0.24100  0.04500  Biso   1.000  H
  H27      1.0000 0.35400  0.65300  0.87400  Biso   1.000  H
  H28      1.0000 0.64600  0.15300  0.12600  Biso   1.000  H
