data_image0
_cell_length_a       9.798
_cell_length_b       23.755
_cell_length_c       10.4178
_cell_angle_alpha    90
_cell_angle_beta     115.888
_cell_angle_gamma    90

_symmetry_space_group_name_H-M    "P 1"
_symmetry_int_tables_number       1

loop_
  _symmetry_equiv_pos_as_xyz
  'x, y, z'

loop_
  _atom_site_label
  _atom_site_occupancy
  _atom_site_fract_x
  _atom_site_fract_y
  _atom_site_fract_z
  _atom_site_thermal_displace_type
  _atom_site_B_iso_or_equiv
  _atom_site_type_symbol
  Cu1      1.0000 0.35693  0.69241  0.11373  Biso   1.000  Cu
  Cu2      1.0000 0.14307  0.19241  0.38627  Biso   1.000  Cu
  Cu3      1.0000 0.64307  0.30759  0.88627  Biso   1.000  Cu
  Cu4      1.0000 0.85693  0.80759  0.61373  Biso   1.000  Cu
  Cu5      1.0000 0.32708  0.55424  0.91396  Biso   1.000  Cu
  Cu6      1.0000 0.17292  0.05424  0.58604  Biso   1.000  Cu
  Cu7      1.0000 0.67292  0.44576  0.08604  Biso   1.000  Cu
  Cu8      1.0000 0.82708  0.94576  0.41396  Biso   1.000  Cu
  C1       1.0000 0.60840  0.62740  0.13810  Biso   1.000  C
  C2       1.0000 0.89160  0.12740  0.36190  Biso   1.000  C
  C3       1.0000 0.39160  0.37260  0.86190  Biso   1.000  C
  C4       1.0000 0.10840  0.87260  0.63810  Biso   1.000  C
  C5       1.0000 0.62920  0.61695  0.28840  Biso   1.000  C
  C6       1.0000 0.87080  0.11695  0.21160  Biso   1.000  C
  C7       1.0000 0.37080  0.38305  0.71160  Biso   1.000  C
  C8       1.0000 0.12920  0.88305  0.78840  Biso   1.000  C
  H1       1.0000 0.68290  0.58220  0.33330  Biso   1.000  H
  H2       1.0000 0.81710  0.08220  0.16670  Biso   1.000  H
  H3       1.0000 0.31710  0.41780  0.66670  Biso   1.000  H
  H4       1.0000 0.18290  0.91780  0.83330  Biso   1.000  H
  C9       1.0000 0.64850  0.66451  0.38610  Biso   1.000  C
  C10      1.0000 0.85150  0.16451  0.11390  Biso   1.000  C
  C11      1.0000 0.35150  0.33549  0.61390  Biso   1.000  C
  C12      1.0000 0.14850  0.83549  0.88610  Biso   1.000  C
  H5       1.0000 0.71320  0.65730  0.48740  Biso   1.000  H
  H6       1.0000 0.78680  0.15730  0.01260  Biso   1.000  H
  H7       1.0000 0.28680  0.34270  0.51260  Biso   1.000  H
  H8       1.0000 0.21320  0.84270  0.98740  Biso   1.000  H
  C13      1.0000 0.64400  0.72435  0.33810  Biso   1.000  C
  C14      1.0000 0.85600  0.22435  0.16190  Biso   1.000  C
  C15      1.0000 0.35600  0.27565  0.66190  Biso   1.000  C
  C16      1.0000 0.14400  0.77565  0.83810  Biso   1.000  C
  C17      1.0000 0.22690  0.77606  0.25040  Biso   1.000  C
  C18      1.0000 0.27310  0.27606  0.24960  Biso   1.000  C
  C19      1.0000 0.77310  0.22394  0.74960  Biso   1.000  C
  C20      1.0000 0.72690  0.72394  0.75040  Biso   1.000  C
  H9       1.0000 0.31810  0.79540  0.27990  Biso   1.000  H
  H10      1.0000 0.18190  0.29540  0.22010  Biso   1.000  H
  H11      1.0000 0.68190  0.20460  0.72010  Biso   1.000  H
  H12      1.0000 0.81810  0.70460  0.77990  Biso   1.000  H
  C21      1.0000 0.11910  0.79610  0.29110  Biso   1.000  C
  C22      1.0000 0.38090  0.29610  0.20890  Biso   1.000  C
  C23      1.0000 0.88090  0.20390  0.70890  Biso   1.000  C
  C24      1.0000 0.61910  0.70390  0.79110  Biso   1.000  C
  H13      1.0000 0.13790  0.82800  0.34790  Biso   1.000  H
  H14      1.0000 0.36210  0.32800  0.15210  Biso   1.000  H
  H15      1.0000 0.86210  0.17200  0.65210  Biso   1.000  H
  H16      1.0000 0.63790  0.67200  0.84790  Biso   1.000  H
  C25      1.0000 0.98500  0.76806  0.24620  Biso   1.000  C
  C26      1.0000 0.51500  0.26806  0.25380  Biso   1.000  C
  C27      1.0000 0.01500  0.23194  0.75380  Biso   1.000  C
  C28      1.0000 0.48500  0.73194  0.74620  Biso   1.000  C
  H17      1.0000 0.91160  0.78050  0.27360  Biso   1.000  H
  H18      1.0000 0.58840  0.28050  0.22640  Biso   1.000  H
  H19      1.0000 0.08840  0.21950  0.72640  Biso   1.000  H
  H20      1.0000 0.41160  0.71950  0.77360  Biso   1.000  H
  C29      1.0000 0.95800  0.72124  0.16010  Biso   1.000  C
  C30      1.0000 0.54200  0.22124  0.33990  Biso   1.000  C
  C31      1.0000 0.04200  0.27876  0.83990  Biso   1.000  C
  C32      1.0000 0.45800  0.77876  0.66010  Biso   1.000  C
  H21      1.0000 0.86560  0.70250  0.12680  Biso   1.000  H
  H22      1.0000 0.63440  0.20250  0.37320  Biso   1.000  H
  H23      1.0000 0.13440  0.29750  0.87320  Biso   1.000  H
  H24      1.0000 0.36560  0.79750  0.62680  Biso   1.000  H
  C33      1.0000 0.07050  0.70266  0.12410  Biso   1.000  C
  C34      1.0000 0.42950  0.20266  0.37590  Biso   1.000  C
  C35      1.0000 0.92950  0.29734  0.87590  Biso   1.000  C
  C36      1.0000 0.57050  0.79734  0.62410  Biso   1.000  C
  C37      1.0000 0.06280  0.65123  0.04340  Biso   1.000  C
  C38      1.0000 0.43720  0.15123  0.45660  Biso   1.000  C
  C39      1.0000 0.93720  0.34877  0.95660  Biso   1.000  C
  C40      1.0000 0.56280  0.84877  0.54340  Biso   1.000  C
  C41      1.0000 0.95610  0.60946  0.98110  Biso   1.000  C
  C42      1.0000 0.54390  0.10946  0.51890  Biso   1.000  C
  C43      1.0000 0.04390  0.39054  0.01890  Biso   1.000  C
  C44      1.0000 0.45610  0.89054  0.48110  Biso   1.000  C
  H25      1.0000 0.85990  0.60670  0.97780  Biso   1.000  H
  H26      1.0000 0.64010  0.10670  0.52220  Biso   1.000  H
  H27      1.0000 0.14010  0.39330  0.02220  Biso   1.000  H
  H28      1.0000 0.35990  0.89330  0.47780  Biso   1.000  H
  C45      1.0000 0.02500  0.57276  0.92490  Biso   1.000  C
  C46      1.0000 0.47500  0.07276  0.57510  Biso   1.000  C
  C47      1.0000 0.97500  0.42724  0.07510  Biso   1.000  C
  C48      1.0000 0.52500  0.92724  0.42490  Biso   1.000  C
  H29      1.0000 0.98090  0.54000  0.87540  Biso   1.000  H
  H30      1.0000 0.51910  0.04000  0.62460  Biso   1.000  H
  H31      1.0000 0.01910  0.46000  0.12460  Biso   1.000  H
  H32      1.0000 0.48090  0.96000  0.37540  Biso   1.000  H
  C49      1.0000 0.15570  0.63806  0.67470  Biso   1.000  C
  C50      1.0000 0.34430  0.13806  0.82530  Biso   1.000  C
  C51      1.0000 0.84430  0.36194  0.32530  Biso   1.000  C
  C52      1.0000 0.65570  0.86194  0.17470  Biso   1.000  C
  H33      1.0000 0.09780  0.64620  0.72320  Biso   1.000  H
  H34      1.0000 0.40220  0.14620  0.77680  Biso   1.000  H
  H35      1.0000 0.90220  0.35380  0.27680  Biso   1.000  H
  H36      1.0000 0.59780  0.85380  0.22320  Biso   1.000  H
  C53      1.0000 0.12370  0.66580  0.54920  Biso   1.000  C
  C54      1.0000 0.37630  0.16580  0.95080  Biso   1.000  C
  C55      1.0000 0.87630  0.33420  0.45080  Biso   1.000  C
  C56      1.0000 0.62370  0.83420  0.04920  Biso   1.000  C
  H37      1.0000 0.04650  0.69250  0.51330  Biso   1.000  H
  H38      1.0000 0.45350  0.19250  0.98670  Biso   1.000  H
  H39      1.0000 0.95350  0.30750  0.48670  Biso   1.000  H
  H40      1.0000 0.54650  0.80750  0.01330  Biso   1.000  H
  C57      1.0000 0.21030  0.65290  0.47790  Biso   1.000  C
  C58      1.0000 0.28970  0.15290  0.02210  Biso   1.000  C
  C59      1.0000 0.78970  0.34710  0.52210  Biso   1.000  C
  C60      1.0000 0.71030  0.84710  0.97790  Biso   1.000  C
  H41      1.0000 0.19110  0.67100  0.39250  Biso   1.000  H
  H42      1.0000 0.30890  0.17100  0.10750  Biso   1.000  H
  H43      1.0000 0.80890  0.32900  0.60750  Biso   1.000  H
  H44      1.0000 0.69110  0.82900  0.89250  Biso   1.000  H
  C61      1.0000 0.32420  0.61371  0.53210  Biso   1.000  C
  C62      1.0000 0.17580  0.11371  0.96790  Biso   1.000  C
  C63      1.0000 0.67580  0.38629  0.46790  Biso   1.000  C
  C64      1.0000 0.82420  0.88629  0.03210  Biso   1.000  C
  H45      1.0000 0.38230  0.60490  0.48430  Biso   1.000  H
  H46      1.0000 0.11770  0.10490  0.01570  Biso   1.000  H
  H47      1.0000 0.61770  0.39510  0.51570  Biso   1.000  H
  H48      1.0000 0.88230  0.89510  0.98430  Biso   1.000  H
  C65      1.0000 0.35080  0.58745  0.66010  Biso   1.000  C
  C66      1.0000 0.14920  0.08745  0.83990  Biso   1.000  C
  C67      1.0000 0.64920  0.41255  0.33990  Biso   1.000  C
  C68      1.0000 0.85080  0.91255  0.16010  Biso   1.000  C
  C69      1.0000 0.46960  0.54645  0.73050  Biso   1.000  C
  C70      1.0000 0.03040  0.04645  0.76950  Biso   1.000  C
  C71      1.0000 0.53040  0.45355  0.26950  Biso   1.000  C
  C72      1.0000 0.96960  0.95355  0.23050  Biso   1.000  C
  C73      1.0000 0.58010  0.52333  0.69880  Biso   1.000  C
  C74      1.0000 0.91990  0.02333  0.80120  Biso   1.000  C
  C75      1.0000 0.41990  0.47667  0.30120  Biso   1.000  C
  C76      1.0000 0.08010  0.97667  0.19880  Biso   1.000  C
  H49      1.0000 0.59880  0.53090  0.62030  Biso   1.000  H
  H50      1.0000 0.90120  0.03090  0.87970  Biso   1.000  H
  H51      1.0000 0.40120  0.46910  0.37970  Biso   1.000  H
  H52      1.0000 0.09880  0.96910  0.12030  Biso   1.000  H
  C77      1.0000 0.65620  0.48688  0.80780  Biso   1.000  C
  C78      1.0000 0.84380  0.98688  0.69220  Biso   1.000  C
  C79      1.0000 0.34380  0.51312  0.19220  Biso   1.000  C
  C80      1.0000 0.15620  0.01312  0.30780  Biso   1.000  C
  H53      1.0000 0.73740  0.46460  0.81520  Biso   1.000  H
  H54      1.0000 0.76260  0.96460  0.68480  Biso   1.000  H
  H55      1.0000 0.26260  0.53540  0.18480  Biso   1.000  H
  H56      1.0000 0.23740  0.03540  0.31520  Biso   1.000  H
  C81      1.0000 0.00360  0.47590  0.66210  Biso   1.000  C
  C82      1.0000 0.49640  0.97590  0.83790  Biso   1.000  C
  C83      1.0000 0.99640  0.52410  0.33790  Biso   1.000  C
  C84      1.0000 0.50360  0.02410  0.16210  Biso   1.000  C
  H57      1.0000 0.94650  0.44930  0.68850  Biso   1.000  H
  H58      1.0000 0.55350  0.94930  0.81150  Biso   1.000  H
  H59      1.0000 0.05350  0.55070  0.31150  Biso   1.000  H
  H60      1.0000 0.44650  0.05070  0.18850  Biso   1.000  H
  H61      1.0000 0.01640  0.46170  0.58180  Biso   1.000  H
  H62      1.0000 0.48360  0.96170  0.91820  Biso   1.000  H
  H63      1.0000 0.98360  0.53830  0.41820  Biso   1.000  H
  H64      1.0000 0.51640  0.03830  0.08180  Biso   1.000  H
  H65      1.0000 0.95020  0.51110  0.63710  Biso   1.000  H
  H66      1.0000 0.54980  0.01110  0.86290  Biso   1.000  H
  H67      1.0000 0.04980  0.48890  0.36290  Biso   1.000  H
  H68      1.0000 0.45020  0.98890  0.13710  Biso   1.000  H
  N1       1.0000 0.18810  0.63937  0.02520  Biso   1.000  N
  N2       1.0000 0.31190  0.13937  0.47480  Biso   1.000  N
  N3       1.0000 0.81190  0.36063  0.97480  Biso   1.000  N
  N4       1.0000 0.68810  0.86063  0.52520  Biso   1.000  N
  N5       1.0000 0.20490  0.73006  0.17050  Biso   1.000  N
  N6       1.0000 0.29510  0.23006  0.32950  Biso   1.000  N
  N7       1.0000 0.79510  0.26994  0.82950  Biso   1.000  N
  N8       1.0000 0.70490  0.76994  0.67050  Biso   1.000  N
  N9       1.0000 0.16540  0.59113  0.95180  Biso   1.000  N
  N10      1.0000 0.33460  0.09113  0.54820  Biso   1.000  N
  N11      1.0000 0.83460  0.40887  0.04820  Biso   1.000  N
  N12      1.0000 0.66540  0.90887  0.45180  Biso   1.000  N
  N13      1.0000 0.26650  0.59983  0.73030  Biso   1.000  N
  N14      1.0000 0.23350  0.09983  0.76970  Biso   1.000  N
  N15      1.0000 0.73350  0.40017  0.26970  Biso   1.000  N
  N16      1.0000 0.76650  0.90017  0.23030  Biso   1.000  N
  N17      1.0000 0.48090  0.52464  0.85490  Biso   1.000  N
  N18      1.0000 0.01910  0.02464  0.64510  Biso   1.000  N
  N19      1.0000 0.51910  0.47536  0.14510  Biso   1.000  N
  N20      1.0000 0.98090  0.97536  0.35490  Biso   1.000  N
  N21      1.0000 0.59790  0.48737  0.90410  Biso   1.000  N
  N22      1.0000 0.90210  0.98737  0.59590  Biso   1.000  N
  N23      1.0000 0.40210  0.51263  0.09590  Biso   1.000  N
  N24      1.0000 0.09790  0.01263  0.40410  Biso   1.000  N
  O1       1.0000 0.50720  0.63308  0.32330  Biso   1.000  O
  O2       1.0000 0.99280  0.13308  0.17670  Biso   1.000  O
  O3       1.0000 0.49280  0.36692  0.67670  Biso   1.000  O
  O4       1.0000 0.00720  0.86692  0.82330  Biso   1.000  O
  O5       1.0000 0.48980  0.65146  0.05020  Biso   1.000  O
  O6       1.0000 0.01020  0.15146  0.44980  Biso   1.000  O
  O7       1.0000 0.51020  0.34854  0.94980  Biso   1.000  O
  O8       1.0000 0.98980  0.84854  0.55020  Biso   1.000  O
  O9       1.0000 0.71300  0.61095  0.11140  Biso   1.000  O
  O10      1.0000 0.78700  0.11095  0.38860  Biso   1.000  O
  O11      1.0000 0.28700  0.38905  0.88860  Biso   1.000  O
  O12      1.0000 0.21300  0.88905  0.61140  Biso   1.000  O
  O13      1.0000 0.52310  0.74244  0.23440  Biso   1.000  O
  O14      1.0000 0.97690  0.24244  0.26560  Biso   1.000  O
  O15      1.0000 0.47690  0.25756  0.76560  Biso   1.000  O
  O16      1.0000 0.02310  0.75756  0.73440  Biso   1.000  O
  O17      1.0000 0.76080  0.75129  0.40260  Biso   1.000  O
  O18      1.0000 0.73920  0.25129  0.09740  Biso   1.000  O
  O19      1.0000 0.23920  0.24871  0.59740  Biso   1.000  O
  O20      1.0000 0.26080  0.74871  0.90260  Biso   1.000  O
  O21      1.0000 0.13980  0.48363  0.77210  Biso   1.000  O
  O22      1.0000 0.36020  0.98363  0.72790  Biso   1.000  O
  O23      1.0000 0.86020  0.51637  0.22790  Biso   1.000  O
  O24      1.0000 0.63980  0.01637  0.27210  Biso   1.000  O
  H69      1.0000 0.18070  0.45350  0.80670  Biso   1.000  H
  H70      1.0000 0.31930  0.95350  0.69330  Biso   1.000  H
  H71      1.0000 0.81930  0.54650  0.19330  Biso   1.000  H
  H72      1.0000 0.68070  0.04650  0.30670  Biso   1.000  H
