data_image0
_cell_length_a       18.5958
_cell_length_b       16.6608
_cell_length_c       14.2394
_cell_angle_alpha    90
_cell_angle_beta     93.692
_cell_angle_gamma    90

_symmetry_space_group_name_H-M    "P 1"
_symmetry_int_tables_number       1

loop_
  _symmetry_equiv_pos_as_xyz
  'x, y, z'

loop_
  _atom_site_label
  _atom_site_occupancy
  _atom_site_fract_x
  _atom_site_fract_y
  _atom_site_fract_z
  _atom_site_thermal_displace_type
  _atom_site_B_iso_or_equiv
  _atom_site_type_symbol
  Cu1      1.0000 0.47615  0.68901  0.36649  Biso   1.000  Cu
  Cu2      1.0000 0.52385  0.68901  0.13351  Biso   1.000  Cu
  Cu3      1.0000 0.97615  0.18901  0.36649  Biso   1.000  Cu
  Cu4      1.0000 0.02385  0.18901  0.13351  Biso   1.000  Cu
  Cu5      1.0000 0.52385  0.31099  0.63351  Biso   1.000  Cu
  Cu6      1.0000 0.47615  0.31099  0.86649  Biso   1.000  Cu
  Cu7      1.0000 0.02385  0.81099  0.63351  Biso   1.000  Cu
  Cu8      1.0000 0.97615  0.81099  0.86649  Biso   1.000  Cu
  Cu9      1.0000 0.25000  0.75000  0.50000  Biso   1.000  Cu
  Cu10     1.0000 0.75000  0.75000  0.00000  Biso   1.000  Cu
  Cu11     1.0000 0.75000  0.25000  0.50000  Biso   1.000  Cu
  Cu12     1.0000 0.25000  0.25000  0.00000  Biso   1.000  Cu
  Cl1      1.0000 0.41153  0.67586  0.19402  Biso   1.000  Cl
  Cl2      1.0000 0.58847  0.67586  0.30598  Biso   1.000  Cl
  Cl3      1.0000 0.91153  0.17586  0.19402  Biso   1.000  Cl
  Cl4      1.0000 0.08847  0.17586  0.30598  Biso   1.000  Cl
  Cl5      1.0000 0.58847  0.32414  0.80598  Biso   1.000  Cl
  Cl6      1.0000 0.41153  0.32414  0.69402  Biso   1.000  Cl
  Cl7      1.0000 0.08847  0.82414  0.80598  Biso   1.000  Cl
  Cl8      1.0000 0.91153  0.82414  0.69402  Biso   1.000  Cl
  O1       1.0000 0.28293  0.64150  0.49541  Biso   1.000  O
  O2       1.0000 0.71707  0.64150  0.00459  Biso   1.000  O
  O3       1.0000 0.78293  0.14150  0.49541  Biso   1.000  O
  O4       1.0000 0.21707  0.14150  0.00459  Biso   1.000  O
  O5       1.0000 0.71707  0.35850  0.50459  Biso   1.000  O
  O6       1.0000 0.28293  0.35850  0.99541  Biso   1.000  O
  O7       1.0000 0.21707  0.85850  0.50459  Biso   1.000  O
  O8       1.0000 0.78293  0.85850  0.99541  Biso   1.000  O
  C1       1.0000 0.22719  0.73844  0.26149  Biso   1.000  C
  C2       1.0000 0.77281  0.73844  0.23851  Biso   1.000  C
  C3       1.0000 0.72719  0.23844  0.26149  Biso   1.000  C
  C4       1.0000 0.27281  0.23844  0.23851  Biso   1.000  C
  C5       1.0000 0.77281  0.26156  0.73851  Biso   1.000  C
  C6       1.0000 0.22719  0.26156  0.76149  Biso   1.000  C
  C7       1.0000 0.27281  0.76156  0.73851  Biso   1.000  C
  C8       1.0000 0.72719  0.76156  0.76149  Biso   1.000  C
  H1       1.0000 0.19560  0.73280  0.20400  Biso   1.000  H
  H2       1.0000 0.80440  0.73280  0.29600  Biso   1.000  H
  H3       1.0000 0.69560  0.23280  0.20400  Biso   1.000  H
  H4       1.0000 0.30440  0.23280  0.29600  Biso   1.000  H
  H5       1.0000 0.80440  0.26720  0.79600  Biso   1.000  H
  H6       1.0000 0.19560  0.26720  0.70400  Biso   1.000  H
  H7       1.0000 0.30440  0.76720  0.79600  Biso   1.000  H
  H8       1.0000 0.69560  0.76720  0.70400  Biso   1.000  H
  H9       1.0000 0.26320  0.69540  0.26420  Biso   1.000  H
  H10      1.0000 0.73680  0.69540  0.23580  Biso   1.000  H
  H11      1.0000 0.76320  0.19540  0.26420  Biso   1.000  H
  H12      1.0000 0.23680  0.19540  0.23580  Biso   1.000  H
  H13      1.0000 0.73680  0.30460  0.73580  Biso   1.000  H
  H14      1.0000 0.26320  0.30460  0.76420  Biso   1.000  H
  H15      1.0000 0.23680  0.80460  0.73580  Biso   1.000  H
  H16      1.0000 0.76320  0.80460  0.76420  Biso   1.000  H
  H17      1.0000 0.25160  0.79050  0.26120  Biso   1.000  H
  H18      1.0000 0.74840  0.79050  0.23880  Biso   1.000  H
  H19      1.0000 0.75160  0.29050  0.26120  Biso   1.000  H
  H20      1.0000 0.24840  0.29050  0.23880  Biso   1.000  H
  H21      1.0000 0.74840  0.20950  0.73880  Biso   1.000  H
  H22      1.0000 0.25160  0.20950  0.76120  Biso   1.000  H
  H23      1.0000 0.24840  0.70950  0.73880  Biso   1.000  H
  H24      1.0000 0.75160  0.70950  0.76120  Biso   1.000  H
  C9       1.0000 0.34270  0.63378  0.45766  Biso   1.000  C
  C10      1.0000 0.65730  0.63378  0.04234  Biso   1.000  C
  C11      1.0000 0.84270  0.13378  0.45766  Biso   1.000  C
  C12      1.0000 0.15730  0.13378  0.04234  Biso   1.000  C
  C13      1.0000 0.65730  0.36622  0.54234  Biso   1.000  C
  C14      1.0000 0.34270  0.36622  0.95766  Biso   1.000  C
  C15      1.0000 0.15730  0.86622  0.54234  Biso   1.000  C
  C16      1.0000 0.84270  0.86622  0.95766  Biso   1.000  C
  C17      1.0000 0.32155  0.49200  0.47609  Biso   1.000  C
  C18      1.0000 0.67845  0.49200  0.02391  Biso   1.000  C
  C19      1.0000 0.82155  0.99200  0.47609  Biso   1.000  C
  C20      1.0000 0.17845  0.99200  0.02391  Biso   1.000  C
  C21      1.0000 0.67845  0.50800  0.52391  Biso   1.000  C
  C22      1.0000 0.32155  0.50800  0.97609  Biso   1.000  C
  C23      1.0000 0.17845  0.00800  0.52391  Biso   1.000  C
  C24      1.0000 0.82155  0.00800  0.97609  Biso   1.000  C
  H25      1.0000 0.27810  0.50890  0.50160  Biso   1.000  H
  H26      1.0000 0.72190  0.50890  0.99840  Biso   1.000  H
  H27      1.0000 0.77810  0.00890  0.50160  Biso   1.000  H
  H28      1.0000 0.22190  0.00890  0.99840  Biso   1.000  H
  H29      1.0000 0.72190  0.49110  0.49840  Biso   1.000  H
  H30      1.0000 0.27810  0.49110  0.00160  Biso   1.000  H
  H31      1.0000 0.22190  0.99110  0.49840  Biso   1.000  H
  H32      1.0000 0.77810  0.99110  0.00160  Biso   1.000  H
  N1       1.0000 0.40462  0.30580  0.42752  Biso   1.000  N
  N2       1.0000 0.59538  0.30580  0.07248  Biso   1.000  N
  N3       1.0000 0.90462  0.80580  0.42752  Biso   1.000  N
  N4       1.0000 0.09538  0.80580  0.07248  Biso   1.000  N
  N5       1.0000 0.59538  0.69420  0.57248  Biso   1.000  N
  N6       1.0000 0.40462  0.69420  0.92752  Biso   1.000  N
  N7       1.0000 0.09538  0.19420  0.57248  Biso   1.000  N
  N8       1.0000 0.90462  0.19420  0.92752  Biso   1.000  N
  C25      1.0000 0.43359  0.52754  0.41004  Biso   1.000  C
  C26      1.0000 0.56641  0.52754  0.08996  Biso   1.000  C
  C27      1.0000 0.93359  0.02754  0.41004  Biso   1.000  C
  C28      1.0000 0.06641  0.02754  0.08996  Biso   1.000  C
  C29      1.0000 0.56641  0.47246  0.58996  Biso   1.000  C
  C30      1.0000 0.43359  0.47246  0.91004  Biso   1.000  C
  C31      1.0000 0.06641  0.97246  0.58996  Biso   1.000  C
  C32      1.0000 0.93359  0.97246  0.91004  Biso   1.000  C
  O9       1.0000 0.48136  0.57491  0.38402  Biso   1.000  O
  O10      1.0000 0.51864  0.57491  0.11598  Biso   1.000  O
  O11      1.0000 0.98136  0.07491  0.38402  Biso   1.000  O
  O12      1.0000 0.01864  0.07491  0.11598  Biso   1.000  O
  O13      1.0000 0.51864  0.42509  0.61598  Biso   1.000  O
  O14      1.0000 0.48136  0.42509  0.88402  Biso   1.000  O
  O15      1.0000 0.01864  0.92509  0.61598  Biso   1.000  O
  O16      1.0000 0.98136  0.92509  0.88402  Biso   1.000  O
  N9       1.0000 0.48830  0.80569  0.37265  Biso   1.000  N
  N10      1.0000 0.51170  0.80569  0.12735  Biso   1.000  N
  N11      1.0000 0.98830  0.30569  0.37265  Biso   1.000  N
  N12      1.0000 0.01170  0.30569  0.12735  Biso   1.000  N
  N13      1.0000 0.51170  0.19431  0.62735  Biso   1.000  N
  N14      1.0000 0.48830  0.19431  0.87265  Biso   1.000  N
  N15      1.0000 0.01170  0.69431  0.62735  Biso   1.000  N
  N16      1.0000 0.98830  0.69431  0.87265  Biso   1.000  N
  C33      1.0000 0.54366  0.85055  0.35118  Biso   1.000  C
  C34      1.0000 0.45634  0.85055  0.14882  Biso   1.000  C
  C35      1.0000 0.04366  0.35055  0.35118  Biso   1.000  C
  C36      1.0000 0.95634  0.35055  0.14882  Biso   1.000  C
  C37      1.0000 0.45634  0.14945  0.64882  Biso   1.000  C
  C38      1.0000 0.54366  0.14945  0.85118  Biso   1.000  C
  C39      1.0000 0.95634  0.64945  0.64882  Biso   1.000  C
  C40      1.0000 0.04366  0.64945  0.85118  Biso   1.000  C
  H33      1.0000 0.58790  0.82990  0.33170  Biso   1.000  H
  H34      1.0000 0.41210  0.82990  0.16830  Biso   1.000  H
  H35      1.0000 0.08790  0.32990  0.33170  Biso   1.000  H
  H36      1.0000 0.91210  0.32990  0.16830  Biso   1.000  H
  H37      1.0000 0.41210  0.17010  0.66830  Biso   1.000  H
  H38      1.0000 0.58790  0.17010  0.83170  Biso   1.000  H
  H39      1.0000 0.91210  0.67010  0.66830  Biso   1.000  H
  H40      1.0000 0.08790  0.67010  0.83170  Biso   1.000  H
  N17      1.0000 0.52919  0.92866  0.36055  Biso   1.000  N
  N18      1.0000 0.47081  0.92866  0.13945  Biso   1.000  N
  N19      1.0000 0.02919  0.42866  0.36055  Biso   1.000  N
  N20      1.0000 0.97081  0.42866  0.13945  Biso   1.000  N
  N21      1.0000 0.47081  0.07134  0.63945  Biso   1.000  N
  N22      1.0000 0.52919  0.07134  0.86055  Biso   1.000  N
  N23      1.0000 0.97081  0.57134  0.63945  Biso   1.000  N
  N24      1.0000 0.02919  0.57134  0.86055  Biso   1.000  N
  H41      1.0000 0.55870  0.96850  0.35000  Biso   1.000  H
  H42      1.0000 0.44130  0.96850  0.15000  Biso   1.000  H
  H43      1.0000 0.05870  0.46850  0.35000  Biso   1.000  H
  H44      1.0000 0.94130  0.46850  0.15000  Biso   1.000  H
  H45      1.0000 0.44130  0.03150  0.65000  Biso   1.000  H
  H46      1.0000 0.55870  0.03150  0.85000  Biso   1.000  H
  H47      1.0000 0.94130  0.53150  0.65000  Biso   1.000  H
  H48      1.0000 0.05870  0.53150  0.85000  Biso   1.000  H
  C41      1.0000 0.46128  0.93587  0.38905  Biso   1.000  C
  C42      1.0000 0.53872  0.93587  0.11095  Biso   1.000  C
  C43      1.0000 0.96128  0.43587  0.38905  Biso   1.000  C
  C44      1.0000 0.03872  0.43587  0.11095  Biso   1.000  C
  C45      1.0000 0.53872  0.06413  0.61095  Biso   1.000  C
  C46      1.0000 0.46128  0.06413  0.88905  Biso   1.000  C
  C47      1.0000 0.03872  0.56413  0.61095  Biso   1.000  C
  C48      1.0000 0.96128  0.56413  0.88905  Biso   1.000  C
  H49      1.0000 0.43640  0.98430  0.40100  Biso   1.000  H
  H50      1.0000 0.56360  0.98430  0.09900  Biso   1.000  H
  H51      1.0000 0.93640  0.48430  0.40100  Biso   1.000  H
  H52      1.0000 0.06360  0.48430  0.09900  Biso   1.000  H
  H53      1.0000 0.56360  0.01570  0.59900  Biso   1.000  H
  H54      1.0000 0.43640  0.01570  0.90100  Biso   1.000  H
  H55      1.0000 0.06360  0.51570  0.59900  Biso   1.000  H
  H56      1.0000 0.93640  0.51570  0.90100  Biso   1.000  H
  C49      1.0000 0.43578  0.85916  0.39719  Biso   1.000  C
  C50      1.0000 0.56422  0.85916  0.10281  Biso   1.000  C
  C51      1.0000 0.93578  0.35916  0.39719  Biso   1.000  C
  C52      1.0000 0.06422  0.35916  0.10281  Biso   1.000  C
  C53      1.0000 0.56422  0.14084  0.60281  Biso   1.000  C
  C54      1.0000 0.43578  0.14084  0.89719  Biso   1.000  C
  C55      1.0000 0.06422  0.64084  0.60281  Biso   1.000  C
  C56      1.0000 0.93578  0.64084  0.89719  Biso   1.000  C
  C57      1.0000 0.36732  0.83710  0.42980  Biso   1.000  C
  C58      1.0000 0.63268  0.83710  0.07020  Biso   1.000  C
  C59      1.0000 0.86732  0.33710  0.42980  Biso   1.000  C
  C60      1.0000 0.13268  0.33710  0.07020  Biso   1.000  C
  C61      1.0000 0.63268  0.16290  0.57020  Biso   1.000  C
  C62      1.0000 0.36732  0.16290  0.92980  Biso   1.000  C
  C63      1.0000 0.13268  0.66290  0.57020  Biso   1.000  C
  C64      1.0000 0.86732  0.66290  0.92980  Biso   1.000  C
  H57      1.0000 0.33570  0.88030  0.44120  Biso   1.000  H
  H58      1.0000 0.66430  0.88030  0.05880  Biso   1.000  H
  H59      1.0000 0.83570  0.38030  0.44120  Biso   1.000  H
  H60      1.0000 0.16430  0.38030  0.05880  Biso   1.000  H
  H61      1.0000 0.66430  0.11970  0.55880  Biso   1.000  H
  H62      1.0000 0.33570  0.11970  0.94120  Biso   1.000  H
  H63      1.0000 0.16430  0.61970  0.55880  Biso   1.000  H
  H64      1.0000 0.83570  0.61970  0.94120  Biso   1.000  H
  N25      1.0000 0.34300  0.76657  0.44565  Biso   1.000  N
  N26      1.0000 0.65700  0.76657  0.05435  Biso   1.000  N
  N27      1.0000 0.84300  0.26657  0.44565  Biso   1.000  N
  N28      1.0000 0.15700  0.26657  0.05435  Biso   1.000  N
  N29      1.0000 0.65700  0.23343  0.55435  Biso   1.000  N
  N30      1.0000 0.34300  0.23343  0.94565  Biso   1.000  N
  N31      1.0000 0.15700  0.73343  0.55435  Biso   1.000  N
  N32      1.0000 0.84300  0.73343  0.94565  Biso   1.000  N
  C65      1.0000 0.36748  0.55065  0.44654  Biso   1.000  C
  C66      1.0000 0.63252  0.55065  0.05346  Biso   1.000  C
  C67      1.0000 0.86748  0.05065  0.44654  Biso   1.000  C
  C68      1.0000 0.13252  0.05065  0.05346  Biso   1.000  C
  C69      1.0000 0.63252  0.44935  0.55346  Biso   1.000  C
  C70      1.0000 0.36748  0.44935  0.94654  Biso   1.000  C
  C71      1.0000 0.13252  0.94935  0.55346  Biso   1.000  C
  C72      1.0000 0.86748  0.94935  0.94654  Biso   1.000  C
  N33      1.0000 0.33399  0.41321  0.47135  Biso   1.000  N
  N34      1.0000 0.66601  0.41321  0.02865  Biso   1.000  N
  N35      1.0000 0.83399  0.91321  0.47135  Biso   1.000  N
  N36      1.0000 0.16601  0.91321  0.02865  Biso   1.000  N
  N37      1.0000 0.66601  0.58679  0.52865  Biso   1.000  N
  N38      1.0000 0.33399  0.58679  0.97135  Biso   1.000  N
  N39      1.0000 0.16601  0.08679  0.52865  Biso   1.000  N
  N40      1.0000 0.83399  0.08679  0.97135  Biso   1.000  N
  C73      1.0000 0.39648  0.38588  0.43381  Biso   1.000  C
  C74      1.0000 0.60352  0.38588  0.06619  Biso   1.000  C
  C75      1.0000 0.89648  0.88588  0.43381  Biso   1.000  C
  C76      1.0000 0.10352  0.88588  0.06619  Biso   1.000  C
  C77      1.0000 0.60352  0.61412  0.56619  Biso   1.000  C
  C78      1.0000 0.39648  0.61412  0.93381  Biso   1.000  C
  C79      1.0000 0.10352  0.11412  0.56619  Biso   1.000  C
  C80      1.0000 0.89648  0.11412  0.93381  Biso   1.000  C
  C81      1.0000 0.46479  0.27836  0.39315  Biso   1.000  C
  C82      1.0000 0.53521  0.27836  0.10685  Biso   1.000  C
  C83      1.0000 0.96479  0.77836  0.39315  Biso   1.000  C
  C84      1.0000 0.03521  0.77836  0.10685  Biso   1.000  C
  C85      1.0000 0.53521  0.72164  0.60685  Biso   1.000  C
  C86      1.0000 0.46479  0.72164  0.89315  Biso   1.000  C
  C87      1.0000 0.03521  0.22164  0.60685  Biso   1.000  C
  C88      1.0000 0.96479  0.22164  0.89315  Biso   1.000  C
  C89      1.0000 0.51965  0.32959  0.36530  Biso   1.000  C
  C90      1.0000 0.48035  0.32959  0.13470  Biso   1.000  C
  C91      1.0000 0.01965  0.82959  0.36530  Biso   1.000  C
  C92      1.0000 0.98035  0.82959  0.13470  Biso   1.000  C
  C93      1.0000 0.48035  0.67041  0.63470  Biso   1.000  C
  C94      1.0000 0.51965  0.67041  0.86530  Biso   1.000  C
  C95      1.0000 0.98035  0.17041  0.63470  Biso   1.000  C
  C96      1.0000 0.01965  0.17041  0.86530  Biso   1.000  C
  H65      1.0000 0.56290  0.30800  0.34370  Biso   1.000  H
  H66      1.0000 0.43710  0.30800  0.15630  Biso   1.000  H
  H67      1.0000 0.06290  0.80800  0.34370  Biso   1.000  H
  H68      1.0000 0.93710  0.80800  0.15630  Biso   1.000  H
  H69      1.0000 0.43710  0.69200  0.65630  Biso   1.000  H
  H70      1.0000 0.56290  0.69200  0.84370  Biso   1.000  H
  H71      1.0000 0.93710  0.19200  0.65630  Biso   1.000  H
  H72      1.0000 0.06290  0.19200  0.84370  Biso   1.000  H
  C97      1.0000 0.51000  0.41102  0.36973  Biso   1.000  C
  C98      1.0000 0.49000  0.41102  0.13027  Biso   1.000  C
  C99      1.0000 0.01000  0.91102  0.36973  Biso   1.000  C
  C100     1.0000 0.99000  0.91102  0.13027  Biso   1.000  C
  C101     1.0000 0.49000  0.58898  0.63027  Biso   1.000  C
  C102     1.0000 0.51000  0.58898  0.86973  Biso   1.000  C
  C103     1.0000 0.99000  0.08898  0.63027  Biso   1.000  C
  C104     1.0000 0.01000  0.08898  0.86973  Biso   1.000  C
  H73      1.0000 0.54600  0.44640  0.34970  Biso   1.000  H
  H74      1.0000 0.45400  0.44640  0.15030  Biso   1.000  H
  H75      1.0000 0.04600  0.94640  0.34970  Biso   1.000  H
  H76      1.0000 0.95400  0.94640  0.15030  Biso   1.000  H
  H77      1.0000 0.45400  0.55360  0.65030  Biso   1.000  H
  H78      1.0000 0.54600  0.55360  0.84970  Biso   1.000  H
  H79      1.0000 0.95400  0.05360  0.65030  Biso   1.000  H
  H80      1.0000 0.04600  0.05360  0.84970  Biso   1.000  H
  C105     1.0000 0.44637  0.44187  0.40417  Biso   1.000  C
  C106     1.0000 0.55363  0.44187  0.09583  Biso   1.000  C
  C107     1.0000 0.94637  0.94187  0.40417  Biso   1.000  C
  C108     1.0000 0.05363  0.94187  0.09583  Biso   1.000  C
  C109     1.0000 0.55363  0.55813  0.59583  Biso   1.000  C
  C110     1.0000 0.44637  0.55813  0.90417  Biso   1.000  C
  C111     1.0000 0.05363  0.05813  0.59583  Biso   1.000  C
  C112     1.0000 0.94637  0.05813  0.90417  Biso   1.000  C
  C113     1.0000 0.47078  0.18882  0.38232  Biso   1.000  C
  C114     1.0000 0.52922  0.18882  0.11768  Biso   1.000  C
  C115     1.0000 0.97078  0.68882  0.38232  Biso   1.000  C
  C116     1.0000 0.02922  0.68882  0.11768  Biso   1.000  C
  C117     1.0000 0.52922  0.81118  0.61768  Biso   1.000  C
  C118     1.0000 0.47078  0.81118  0.88232  Biso   1.000  C
  C119     1.0000 0.02922  0.31118  0.61768  Biso   1.000  C
  C120     1.0000 0.97078  0.31118  0.88232  Biso   1.000  C
  H81      1.0000 0.45220  0.16230  0.43720  Biso   1.000  H
  H82      1.0000 0.54780  0.16230  0.06280  Biso   1.000  H
  H83      1.0000 0.95220  0.66230  0.43720  Biso   1.000  H
  H84      1.0000 0.04780  0.66230  0.06280  Biso   1.000  H
  H85      1.0000 0.54780  0.83770  0.56280  Biso   1.000  H
  H86      1.0000 0.45220  0.83770  0.93720  Biso   1.000  H
  H87      1.0000 0.04780  0.33770  0.56280  Biso   1.000  H
  H88      1.0000 0.95220  0.33770  0.93720  Biso   1.000  H
  H89      1.0000 0.52140  0.17410  0.37750  Biso   1.000  H
  H90      1.0000 0.47860  0.17410  0.12250  Biso   1.000  H
  H91      1.0000 0.02140  0.67410  0.37750  Biso   1.000  H
  H92      1.0000 0.97860  0.67410  0.12250  Biso   1.000  H
  H93      1.0000 0.47860  0.82590  0.62250  Biso   1.000  H
  H94      1.0000 0.52140  0.82590  0.87750  Biso   1.000  H
  H95      1.0000 0.97860  0.32590  0.62250  Biso   1.000  H
  H96      1.0000 0.02140  0.32590  0.87750  Biso   1.000  H
  H97      1.0000 0.44260  0.17180  0.32530  Biso   1.000  H
  H98      1.0000 0.55740  0.17180  0.17470  Biso   1.000  H
  H99      1.0000 0.94260  0.67180  0.32530  Biso   1.000  H
  H100     1.0000 0.05740  0.67180  0.17470  Biso   1.000  H
  H101     1.0000 0.55740  0.82820  0.67470  Biso   1.000  H
  H102     1.0000 0.44260  0.82820  0.82530  Biso   1.000  H
  H103     1.0000 0.05740  0.32820  0.67470  Biso   1.000  H
  H104     1.0000 0.94260  0.32820  0.82530  Biso   1.000  H
  N41      1.0000 0.38150  0.69624  0.42930  Biso   1.000  N
  N42      1.0000 0.61850  0.69624  0.07070  Biso   1.000  N
  N43      1.0000 0.88150  0.19624  0.42930  Biso   1.000  N
  N44      1.0000 0.11850  0.19624  0.07070  Biso   1.000  N
  N45      1.0000 0.61850  0.30376  0.57070  Biso   1.000  N
  N46      1.0000 0.38150  0.30376  0.92930  Biso   1.000  N
  N47      1.0000 0.11850  0.80376  0.57070  Biso   1.000  N
  N48      1.0000 0.88150  0.80376  0.92930  Biso   1.000  N
  O17      1.0000 0.18547  0.73350  0.34110  Biso   1.000  O
  O18      1.0000 0.81453  0.73350  0.15890  Biso   1.000  O
  O19      1.0000 0.68547  0.23350  0.34110  Biso   1.000  O
  O20      1.0000 0.31453  0.23350  0.15890  Biso   1.000  O
  O21      1.0000 0.81453  0.26650  0.65890  Biso   1.000  O
  O22      1.0000 0.18547  0.26650  0.84110  Biso   1.000  O
  O23      1.0000 0.31453  0.76650  0.65890  Biso   1.000  O
  O24      1.0000 0.68547  0.76650  0.84110  Biso   1.000  O
  H105     1.0000 0.16990  0.68650  0.34620  Biso   1.000  H
  H106     1.0000 0.83010  0.68650  0.15380  Biso   1.000  H
  H107     1.0000 0.66990  0.18650  0.34620  Biso   1.000  H
  H108     1.0000 0.33010  0.18650  0.15380  Biso   1.000  H
  H109     1.0000 0.83010  0.31350  0.65380  Biso   1.000  H
  H110     1.0000 0.16990  0.31350  0.84620  Biso   1.000  H
  H111     1.0000 0.33010  0.81350  0.65380  Biso   1.000  H
  H112     1.0000 0.66990  0.81350  0.84620  Biso   1.000  H
  C121     1.0000 0.28170  0.35870  0.51500  Biso   1.000  C
  C122     1.0000 0.71830  0.35870  0.98500  Biso   1.000  C
  C123     1.0000 0.78170  0.85870  0.51500  Biso   1.000  C
  C124     1.0000 0.21830  0.85870  0.98500  Biso   1.000  C
  C125     1.0000 0.71830  0.64130  0.48500  Biso   1.000  C
  C126     1.0000 0.28170  0.64130  0.01500  Biso   1.000  C
  C127     1.0000 0.21830  0.14130  0.48500  Biso   1.000  C
  C128     1.0000 0.78170  0.14130  0.01500  Biso   1.000  C
  H113     1.0000 0.27270  0.37780  0.57900  Biso   1.000  H
  H114     1.0000 0.72730  0.37780  0.92100  Biso   1.000  H
  H115     1.0000 0.77270  0.87780  0.57900  Biso   1.000  H
  H116     1.0000 0.22730  0.87780  0.92100  Biso   1.000  H
  H117     1.0000 0.72730  0.62220  0.42100  Biso   1.000  H
  H118     1.0000 0.27270  0.62220  0.07900  Biso   1.000  H
  H119     1.0000 0.22730  0.12220  0.42100  Biso   1.000  H
  H120     1.0000 0.77270  0.12220  0.07900  Biso   1.000  H
  H121     1.0000 0.30190  0.30380  0.52030  Biso   1.000  H
  H122     1.0000 0.69810  0.30380  0.97970  Biso   1.000  H
  H123     1.0000 0.80190  0.80380  0.52030  Biso   1.000  H
  H124     1.0000 0.19810  0.80380  0.97970  Biso   1.000  H
  H125     1.0000 0.69810  0.69620  0.47970  Biso   1.000  H
  H126     1.0000 0.30190  0.69620  0.02030  Biso   1.000  H
  H127     1.0000 0.19810  0.19620  0.47970  Biso   1.000  H
  H128     1.0000 0.80190  0.19620  0.02030  Biso   1.000  H
  C129     1.0000 0.21244  0.35759  0.45500  Biso   1.000  C
  C130     1.0000 0.78756  0.35759  0.04500  Biso   1.000  C
  C131     1.0000 0.71244  0.85759  0.45500  Biso   1.000  C
  C132     1.0000 0.28756  0.85759  0.04500  Biso   1.000  C
  C133     1.0000 0.78756  0.64241  0.54500  Biso   1.000  C
  C134     1.0000 0.21244  0.64241  0.95500  Biso   1.000  C
  C135     1.0000 0.28756  0.14241  0.54500  Biso   1.000  C
  C136     1.0000 0.71244  0.14241  0.95500  Biso   1.000  C
  H129     1.0000 0.22120  0.33620  0.39270  Biso   1.000  H
  H130     1.0000 0.77880  0.33620  0.10730  Biso   1.000  H
  H131     1.0000 0.72120  0.83620  0.39270  Biso   1.000  H
  H132     1.0000 0.27880  0.83620  0.10730  Biso   1.000  H
  H133     1.0000 0.77880  0.66380  0.60730  Biso   1.000  H
  H134     1.0000 0.22120  0.66380  0.89270  Biso   1.000  H
  H135     1.0000 0.27880  0.16380  0.60730  Biso   1.000  H
  H136     1.0000 0.72120  0.16380  0.89270  Biso   1.000  H
  H137     1.0000 0.19350  0.41230  0.44860  Biso   1.000  H
  H138     1.0000 0.80650  0.41230  0.05140  Biso   1.000  H
  H139     1.0000 0.69350  0.91230  0.44860  Biso   1.000  H
  H140     1.0000 0.30650  0.91230  0.05140  Biso   1.000  H
  H141     1.0000 0.80650  0.58770  0.55140  Biso   1.000  H
  H142     1.0000 0.19350  0.58770  0.94860  Biso   1.000  H
  H143     1.0000 0.30650  0.08770  0.55140  Biso   1.000  H
  H144     1.0000 0.69350  0.08770  0.94860  Biso   1.000  H
  H145     1.0000 0.17740  0.32350  0.48460  Biso   1.000  H
  H146     1.0000 0.82260  0.32350  0.01540  Biso   1.000  H
  H147     1.0000 0.67740  0.82350  0.48460  Biso   1.000  H
  H148     1.0000 0.32260  0.82350  0.01540  Biso   1.000  H
  H149     1.0000 0.82260  0.67650  0.51540  Biso   1.000  H
  H150     1.0000 0.17740  0.67650  0.98460  Biso   1.000  H
  H151     1.0000 0.32260  0.17650  0.51540  Biso   1.000  H
  H152     1.0000 0.67740  0.17650  0.98460  Biso   1.000  H
  C137     1.0000 0.27750  0.35150  0.49110  Biso   1.000  C
  C138     1.0000 0.72250  0.35150  0.00890  Biso   1.000  C
  C139     1.0000 0.77750  0.85150  0.49110  Biso   1.000  C
  C140     1.0000 0.22250  0.85150  0.00890  Biso   1.000  C
  C141     1.0000 0.72250  0.64850  0.50890  Biso   1.000  C
  C142     1.0000 0.27750  0.64850  0.99110  Biso   1.000  C
  C143     1.0000 0.22250  0.14850  0.50890  Biso   1.000  C
  C144     1.0000 0.77750  0.14850  0.99110  Biso   1.000  C
  H153     1.0000 0.27000  0.31630  0.43530  Biso   1.000  H
  H154     1.0000 0.73000  0.31630  0.06470  Biso   1.000  H
  H155     1.0000 0.77000  0.81630  0.43530  Biso   1.000  H
  H156     1.0000 0.23000  0.81630  0.06470  Biso   1.000  H
  H157     1.0000 0.73000  0.68370  0.56470  Biso   1.000  H
  H158     1.0000 0.27000  0.68370  0.93530  Biso   1.000  H
  H159     1.0000 0.23000  0.18370  0.56470  Biso   1.000  H
  H160     1.0000 0.77000  0.18370  0.93530  Biso   1.000  H
  H161     1.0000 0.29620  0.31760  0.54430  Biso   1.000  H
  H162     1.0000 0.70380  0.31760  0.95570  Biso   1.000  H
  H163     1.0000 0.79620  0.81760  0.54430  Biso   1.000  H
  H164     1.0000 0.20380  0.81760  0.95570  Biso   1.000  H
  H165     1.0000 0.70380  0.68240  0.45570  Biso   1.000  H
  H166     1.0000 0.29620  0.68240  0.04430  Biso   1.000  H
  H167     1.0000 0.20380  0.18240  0.45570  Biso   1.000  H
  H168     1.0000 0.79620  0.18240  0.04430  Biso   1.000  H
  C145     1.0000 0.20700  0.38460  0.51390  Biso   1.000  C
  C146     1.0000 0.79300  0.38460  0.98610  Biso   1.000  C
  C147     1.0000 0.70700  0.88460  0.51390  Biso   1.000  C
  C148     1.0000 0.29300  0.88460  0.98610  Biso   1.000  C
  C149     1.0000 0.79300  0.61540  0.48610  Biso   1.000  C
  C150     1.0000 0.20700  0.61540  0.01390  Biso   1.000  C
  C151     1.0000 0.29300  0.11540  0.48610  Biso   1.000  C
  C152     1.0000 0.70700  0.11540  0.01390  Biso   1.000  C
  H169     1.0000 0.18710  0.41700  0.46100  Biso   1.000  H
  H170     1.0000 0.81290  0.41700  0.03900  Biso   1.000  H
  H171     1.0000 0.68710  0.91700  0.46100  Biso   1.000  H
  H172     1.0000 0.31290  0.91700  0.03900  Biso   1.000  H
  H173     1.0000 0.81290  0.58300  0.53900  Biso   1.000  H
  H174     1.0000 0.18710  0.58300  0.96100  Biso   1.000  H
  H175     1.0000 0.31290  0.08300  0.53900  Biso   1.000  H
  H176     1.0000 0.68710  0.08300  0.96100  Biso   1.000  H
  H177     1.0000 0.21330  0.41830  0.57030  Biso   1.000  H
  H178     1.0000 0.78670  0.41830  0.92970  Biso   1.000  H
  H179     1.0000 0.71330  0.91830  0.57030  Biso   1.000  H
  H180     1.0000 0.28670  0.91830  0.92970  Biso   1.000  H
  H181     1.0000 0.78670  0.58170  0.42970  Biso   1.000  H
  H182     1.0000 0.21330  0.58170  0.07030  Biso   1.000  H
  H183     1.0000 0.28670  0.08170  0.42970  Biso   1.000  H
  H184     1.0000 0.71330  0.08170  0.07030  Biso   1.000  H
  H185     1.0000 0.17390  0.34050  0.52570  Biso   1.000  H
  H186     1.0000 0.82610  0.34050  0.97430  Biso   1.000  H
  H187     1.0000 0.67390  0.84050  0.52570  Biso   1.000  H
  H188     1.0000 0.32610  0.84050  0.97430  Biso   1.000  H
  H189     1.0000 0.82610  0.65950  0.47430  Biso   1.000  H
  H190     1.0000 0.17390  0.65950  0.02570  Biso   1.000  H
  H191     1.0000 0.32610  0.15950  0.47430  Biso   1.000  H
  H192     1.0000 0.67390  0.15950  0.02570  Biso   1.000  H
  Cl9      1.0000 0.64032  0.05663  0.32933  Biso   1.000  Cl
  Cl10     1.0000 0.35968  0.05663  0.17067  Biso   1.000  Cl
  Cl11     1.0000 0.14032  0.55663  0.32933  Biso   1.000  Cl
  Cl12     1.0000 0.85968  0.55663  0.17067  Biso   1.000  Cl
  Cl13     1.0000 0.35968  0.94337  0.67067  Biso   1.000  Cl
  Cl14     1.0000 0.64032  0.94337  0.82933  Biso   1.000  Cl
  Cl15     1.0000 0.85968  0.44337  0.67067  Biso   1.000  Cl
  Cl16     1.0000 0.14032  0.44337  0.82933  Biso   1.000  Cl
  O25      1.0000 0.72490  0.98373  0.16711  Biso   1.000  O
  O26      1.0000 0.27510  0.98373  0.33289  Biso   1.000  O
  O27      1.0000 0.22490  0.48373  0.16711  Biso   1.000  O
  O28      1.0000 0.77510  0.48373  0.33289  Biso   1.000  O
  O29      1.0000 0.27510  0.01627  0.83289  Biso   1.000  O
  O30      1.0000 0.72490  0.01627  0.66711  Biso   1.000  O
  O31      1.0000 0.77510  0.51627  0.83289  Biso   1.000  O
  O32      1.0000 0.22490  0.51627  0.66711  Biso   1.000  O
  H193     1.0000 0.69590  0.99230  0.20890  Biso   1.000  H
  H194     1.0000 0.30410  0.99230  0.29110  Biso   1.000  H
  H195     1.0000 0.19590  0.49230  0.20890  Biso   1.000  H
  H196     1.0000 0.80410  0.49230  0.29110  Biso   1.000  H
  H197     1.0000 0.30410  0.00770  0.79110  Biso   1.000  H
  H198     1.0000 0.69590  0.00770  0.70890  Biso   1.000  H
  H199     1.0000 0.80410  0.50770  0.79110  Biso   1.000  H
  H200     1.0000 0.19590  0.50770  0.70890  Biso   1.000  H
  C153     1.0000 0.79330  0.96695  0.20971  Biso   1.000  C
  C154     1.0000 0.20670  0.96695  0.29029  Biso   1.000  C
  C155     1.0000 0.29330  0.46695  0.20971  Biso   1.000  C
  C156     1.0000 0.70670  0.46695  0.29029  Biso   1.000  C
  C157     1.0000 0.20670  0.03305  0.79029  Biso   1.000  C
  C158     1.0000 0.79330  0.03305  0.70971  Biso   1.000  C
  C159     1.0000 0.70670  0.53305  0.79029  Biso   1.000  C
  C160     1.0000 0.29330  0.53305  0.70971  Biso   1.000  C
  H201     1.0000 0.78830  0.94590  0.27320  Biso   1.000  H
  H202     1.0000 0.21170  0.94590  0.22680  Biso   1.000  H
  H203     1.0000 0.28830  0.44590  0.27320  Biso   1.000  H
  H204     1.0000 0.71170  0.44590  0.22680  Biso   1.000  H
  H205     1.0000 0.21170  0.05410  0.72680  Biso   1.000  H
  H206     1.0000 0.78830  0.05410  0.77320  Biso   1.000  H
  H207     1.0000 0.71170  0.55410  0.72680  Biso   1.000  H
  H208     1.0000 0.28830  0.55410  0.77320  Biso   1.000  H
  H209     1.0000 0.82210  0.01630  0.21350  Biso   1.000  H
  H210     1.0000 0.17790  0.01630  0.28650  Biso   1.000  H
  H211     1.0000 0.32210  0.51630  0.21350  Biso   1.000  H
  H212     1.0000 0.67790  0.51630  0.28650  Biso   1.000  H
  H213     1.0000 0.17790  0.98370  0.78650  Biso   1.000  H
  H214     1.0000 0.82210  0.98370  0.71350  Biso   1.000  H
  H215     1.0000 0.67790  0.48370  0.78650  Biso   1.000  H
  H216     1.0000 0.32210  0.48370  0.71350  Biso   1.000  H
  H217     1.0000 0.81740  0.92700  0.17220  Biso   1.000  H
  H218     1.0000 0.18260  0.92700  0.32780  Biso   1.000  H
  H219     1.0000 0.31740  0.42700  0.17220  Biso   1.000  H
  H220     1.0000 0.68260  0.42700  0.32780  Biso   1.000  H
  H221     1.0000 0.18260  0.07300  0.82780  Biso   1.000  H
  H222     1.0000 0.81740  0.07300  0.67220  Biso   1.000  H
  H223     1.0000 0.68260  0.57300  0.82780  Biso   1.000  H
  H224     1.0000 0.31740  0.57300  0.67220  Biso   1.000  H
