data_image0
_cell_length_a       7.57
_cell_length_b       8.772
_cell_length_c       16.415
_cell_angle_alpha    104.187
_cell_angle_beta     90.905
_cell_angle_gamma    98.589

_symmetry_space_group_name_H-M    "P 1"
_symmetry_int_tables_number       1

loop_
  _symmetry_equiv_pos_as_xyz
  'x, y, z'

loop_
  _atom_site_label
  _atom_site_occupancy
  _atom_site_fract_x
  _atom_site_fract_y
  _atom_site_fract_z
  _atom_site_thermal_displace_type
  _atom_site_B_iso_or_equiv
  _atom_site_type_symbol
  Cu1      1.0000 0.93967  0.48013  0.28071  Biso   1.000  Cu
  Cu2      1.0000 0.06033  0.51987  0.71929  Biso   1.000  Cu
  N1       1.0000 0.68750  0.74080  0.14865  Biso   1.000  N
  N2       1.0000 0.31250  0.25920  0.85135  Biso   1.000  N
  N3       1.0000 0.79140  0.29350  0.19906  Biso   1.000  N
  N4       1.0000 0.20860  0.70650  0.80094  Biso   1.000  N
  N5       1.0000 0.05290  0.32470  0.32785  Biso   1.000  N
  N6       1.0000 0.94710  0.67530  0.67215  Biso   1.000  N
  N7       1.0000 0.12440  0.66060  0.34316  Biso   1.000  N
  N8       1.0000 0.87560  0.33940  0.65684  Biso   1.000  N
  N9       1.0000 0.31980  0.87430  0.37677  Biso   1.000  N
  N10      1.0000 0.68020  0.12570  0.62323  Biso   1.000  N
  N11      1.0000 0.82910  0.63240  0.22882  Biso   1.000  N
  N12      1.0000 0.17090  0.36760  0.77118  Biso   1.000  N
  N13      1.0000 0.06130  0.11850  0.38413  Biso   1.000  N
  N14      1.0000 0.93870  0.88150  0.61587  Biso   1.000  N
  N15      1.0000 0.69280  0.84030  0.22689  Biso   1.000  N
  N16      1.0000 0.30720  0.15970  0.77311  Biso   1.000  N
  N17      1.0000 0.28530  0.83460  0.45034  Biso   1.000  N
  N18      1.0000 0.71470  0.16540  0.54966  Biso   1.000  N
  C1       1.0000 0.76930  0.61930  0.15119  Biso   1.000  C
  C2       1.0000 0.23070  0.38070  0.84881  Biso   1.000  C
  H1       1.0000 0.78270  0.53660  0.10510  Biso   1.000  H
  H2       1.0000 0.21730  0.46340  0.89490  Biso   1.000  H
  C3       1.0000 0.22320  0.77070  0.31411  Biso   1.000  C
  C4       1.0000 0.77680  0.22930  0.68589  Biso   1.000  C
  H3       1.0000 0.22460  0.77470  0.25800  Biso   1.000  H
  H4       1.0000 0.77540  0.22530  0.74200  Biso   1.000  H
  C5       1.0000 0.60300  0.77620  0.07668  Biso   1.000  C
  C6       1.0000 0.39700  0.22380  0.92332  Biso   1.000  C
  H5       1.0000 0.48520  0.80190  0.09080  Biso   1.000  H
  H6       1.0000 0.51480  0.19810  0.90920  Biso   1.000  H
  H7       1.0000 0.58780  0.68230  0.02990  Biso   1.000  H
  H8       1.0000 0.41220  0.31770  0.97010  Biso   1.000  H
  C7       1.0000 0.61300  0.26420  0.18105  Biso   1.000  C
  C8       1.0000 0.38700  0.73580  0.81895  Biso   1.000  C
  H9       1.0000 0.53660  0.33480  0.20460  Biso   1.000  H
  H10      1.0000 0.46340  0.66520  0.79540  Biso   1.000  H
  C9       1.0000 0.96240  0.19540  0.34788  Biso   1.000  C
  C10      1.0000 0.03760  0.80460  0.65212  Biso   1.000  C
  H11      1.0000 0.83980  0.16370  0.33680  Biso   1.000  H
  H12      1.0000 0.16020  0.83630  0.66320  Biso   1.000  H
  C11      1.0000 0.21930  0.32730  0.35453  Biso   1.000  C
  C12      1.0000 0.78070  0.67270  0.64547  Biso   1.000  C
  H13      1.0000 0.31640  0.40310  0.35030  Biso   1.000  H
  H14      1.0000 0.68360  0.59690  0.64970  Biso   1.000  H
  C13      1.0000 0.77910  0.76970  0.27240  Biso   1.000  C
  C14      1.0000 0.22090  0.23030  0.72760  Biso   1.000  C
  H15      1.0000 0.80410  0.81040  0.33000  Biso   1.000  H
  H16      1.0000 0.19590  0.18960  0.67000  Biso   1.000  H
  C15      1.0000 0.16740  0.70500  0.42653  Biso   1.000  C
  C16      1.0000 0.83260  0.29500  0.57347  Biso   1.000  C
  H17      1.0000 0.11750  0.64830  0.46380  Biso   1.000  H
  H18      1.0000 0.88250  0.35170  0.53620  Biso   1.000  H
  Br1      1.0000 0.21932  0.45197  0.12057  Biso   1.000  Br
  Br2      1.0000 0.78068  0.54803  0.87943  Biso   1.000  Br
  N19      1.0000 0.71120  0.06570  0.11036  Biso   1.000  N
  N20      1.0000 0.28880  0.93430  0.88964  Biso   1.000  N
  N21      1.0000 0.22670  0.20590  0.38801  Biso   1.000  N
  N22      1.0000 0.77330  0.79410  0.61199  Biso   1.000  N
  N23      1.0000 0.55730  0.12710  0.12726  Biso   1.000  N
  N24      1.0000 0.44270  0.87290  0.87274  Biso   1.000  N
  C17      1.0000 0.84810  0.16570  0.15310  Biso   1.000  C
  C18      1.0000 0.15190  0.83430  0.84690  Biso   1.000  C
  H19      1.0000 0.96660  0.14890  0.15120  Biso   1.000  H
  H20      1.0000 0.03340  0.85110  0.84880  Biso   1.000  H
  C19      1.0000 0.44290  0.01870  0.37668  Biso   1.000  C
  C20      1.0000 0.55710  0.98130  0.62332  Biso   1.000  C
  H21      1.0000 0.45500  0.02750  0.31920  Biso   1.000  H
  H22      1.0000 0.54500  0.97250  0.68080  Biso   1.000  H
  H23      1.0000 0.55980  0.01130  0.39910  Biso   1.000  H
  H24      1.0000 0.44020  0.98870  0.60090  Biso   1.000  H
  C21      1.0000 0.71020  0.91250  0.05016  Biso   1.000  C
  C22      1.0000 0.28980  0.08750  0.94984  Biso   1.000  C
  H25      1.0000 0.83240  0.89270  0.04310  Biso   1.000  H
  H26      1.0000 0.16760  0.10730  0.95690  Biso   1.000  H
  H27      1.0000 0.66130  0.91740  0.99610  Biso   1.000  H
  H28      1.0000 0.33870  0.08260  0.00390  Biso   1.000  H
  C23      1.0000 0.38040  0.16610  0.42820  Biso   1.000  C
  C24      1.0000 0.61960  0.83390  0.57180  Biso   1.000  C
  H29      1.0000 0.34890  0.14980  0.48280  Biso   1.000  H
  H30      1.0000 0.65110  0.85020  0.51720  Biso   1.000  H
  H31      1.0000 0.47780  0.25490  0.43710  Biso   1.000  H
  H32      1.0000 0.52220  0.74510  0.56290  Biso   1.000  H
  Br3      1.0000 0.69786  0.51008  0.40137  Biso   1.000  Br
  Br4      1.0000 0.30214  0.48992  0.59863  Biso   1.000  Br
  O1       1.0000 0.18080  0.97330  0.15690  Biso   1.000  O
  O2       1.0000 0.81920  0.02670  0.84310  Biso   1.000  O
  O3       1.0000 0.86830  0.29090  0.98410  Biso   1.000  O
  O4       1.0000 0.13170  0.70910  0.01590  Biso   1.000  O
  H33      1.0000 0.95200  0.32400  0.01000  Biso   1.000  H
  H34      1.0000 0.04800  0.67600  0.99000  Biso   1.000  H
  H35      1.0000 0.85700  0.35100  0.95700  Biso   1.000  H
  H36      1.0000 0.14300  0.64900  0.04300  Biso   1.000  H
  H37      1.0000 0.26300  0.02000  0.14400  Biso   1.000  H
  H38      1.0000 0.73700  0.98000  0.85600  Biso   1.000  H
  H39      1.0000 0.15900  0.89500  0.11300  Biso   1.000  H
  H40      1.0000 0.84100  0.10500  0.88700  Biso   1.000  H
