data_image0
_cell_length_a       11.0782
_cell_length_b       6.6521
_cell_length_c       12.1645
_cell_angle_alpha    90
_cell_angle_beta     101.798
_cell_angle_gamma    90

_symmetry_space_group_name_H-M    "P 1"
_symmetry_int_tables_number       1

loop_
  _symmetry_equiv_pos_as_xyz
  'x, y, z'

loop_
  _atom_site_label
  _atom_site_occupancy
  _atom_site_fract_x
  _atom_site_fract_y
  _atom_site_fract_z
  _atom_site_thermal_displace_type
  _atom_site_B_iso_or_equiv
  _atom_site_type_symbol
  Cu1      1.0000 0.00000  0.00000  0.50000  Biso   1.000  Cu
  Cu2      1.0000 0.00000  0.50000  0.00000  Biso   1.000  Cu
  O1       1.0000 0.88300  0.98540  0.35750  Biso   1.000  O
  O2       1.0000 0.11700  0.48540  0.14250  Biso   1.000  O
  O3       1.0000 0.11700  0.01460  0.64250  Biso   1.000  O
  O4       1.0000 0.88300  0.51460  0.85750  Biso   1.000  O
  O5       1.0000 0.89050  0.30470  0.05300  Biso   1.000  O
  O6       1.0000 0.10950  0.80470  0.44700  Biso   1.000  O
  O7       1.0000 0.10950  0.69530  0.94700  Biso   1.000  O
  O8       1.0000 0.89050  0.19530  0.55300  Biso   1.000  O
  C1       1.0000 0.85820  0.14480  0.29780  Biso   1.000  C
  C2       1.0000 0.14180  0.64480  0.20220  Biso   1.000  C
  C3       1.0000 0.14180  0.85520  0.70220  Biso   1.000  C
  C4       1.0000 0.85820  0.35520  0.79780  Biso   1.000  C
  C5       1.0000 0.73320  0.14950  0.22200  Biso   1.000  C
  C6       1.0000 0.26680  0.64950  0.27800  Biso   1.000  C
  C7       1.0000 0.26680  0.85050  0.77800  Biso   1.000  C
  C8       1.0000 0.73320  0.35050  0.72200  Biso   1.000  C
  O9       1.0000 0.92940  0.28910  0.29910  Biso   1.000  O
  O10      1.0000 0.07060  0.78910  0.20090  Biso   1.000  O
  O11      1.0000 0.07060  0.71090  0.70090  Biso   1.000  O
  O12      1.0000 0.92940  0.21090  0.79910  Biso   1.000  O
  C9       1.0000 0.71030  0.27490  0.12850  Biso   1.000  C
  C10      1.0000 0.28970  0.77490  0.37150  Biso   1.000  C
  C11      1.0000 0.28970  0.72510  0.87150  Biso   1.000  C
  C12      1.0000 0.71030  0.22510  0.62850  Biso   1.000  C
  C13      1.0000 0.63710  0.03490  0.24910  Biso   1.000  C
  C14      1.0000 0.36290  0.53490  0.25090  Biso   1.000  C
  C15      1.0000 0.36290  0.96510  0.75090  Biso   1.000  C
  C16      1.0000 0.63710  0.46510  0.74910  Biso   1.000  C
  C17      1.0000 0.59120  0.28580  0.06220  Biso   1.000  C
  C18      1.0000 0.40880  0.78580  0.43780  Biso   1.000  C
  C19      1.0000 0.40880  0.71420  0.93780  Biso   1.000  C
  C20      1.0000 0.59120  0.21420  0.56220  Biso   1.000  C
  C21      1.0000 0.80910  0.40010  0.09460  Biso   1.000  C
  C22      1.0000 0.19090  0.90010  0.40540  Biso   1.000  C
  C23      1.0000 0.19090  0.59990  0.90540  Biso   1.000  C
  C24      1.0000 0.80910  0.09990  0.59460  Biso   1.000  C
  C25      1.0000 0.51820  0.04840  0.18330  Biso   1.000  C
  C26      1.0000 0.48180  0.54840  0.31670  Biso   1.000  C
  C27      1.0000 0.48180  0.95160  0.81670  Biso   1.000  C
  C28      1.0000 0.51820  0.45160  0.68330  Biso   1.000  C
  C29      1.0000 0.49590  0.17400  0.09030  Biso   1.000  C
  C30      1.0000 0.50410  0.67400  0.40970  Biso   1.000  C
  C31      1.0000 0.50410  0.82600  0.90970  Biso   1.000  C
  C32      1.0000 0.49590  0.32600  0.59030  Biso   1.000  C
  O13      1.0000 0.80600  0.58510  0.10350  Biso   1.000  O
  O14      1.0000 0.19400  0.08510  0.39650  Biso   1.000  O
  O15      1.0000 0.19400  0.41490  0.89650  Biso   1.000  O
  O16      1.0000 0.80600  0.91490  0.60350  Biso   1.000  O
  O17      1.0000 0.16770  0.08690  0.04270  Biso   1.000  O
  O18      1.0000 0.83230  0.58690  0.45730  Biso   1.000  O
  O19      1.0000 0.83230  0.91310  0.95730  Biso   1.000  O
  O20      1.0000 0.16770  0.41310  0.54270  Biso   1.000  O
  Cl1      1.0000 0.09260  0.15250  0.20218  Biso   1.000  Cl
  Cl2      1.0000 0.90740  0.65250  0.29782  Biso   1.000  Cl
  Cl3      1.0000 0.90740  0.84750  0.79782  Biso   1.000  Cl
  Cl4      1.0000 0.09260  0.34750  0.70218  Biso   1.000  Cl
