data_image0
_cell_length_a       16.318
_cell_length_b       16.318
_cell_length_c       8.7838
_cell_angle_alpha    90
_cell_angle_beta     90
_cell_angle_gamma    90

_symmetry_space_group_name_H-M    "P 1"
_symmetry_int_tables_number       1

loop_
  _symmetry_equiv_pos_as_xyz
  'x, y, z'

loop_
  _atom_site_label
  _atom_site_occupancy
  _atom_site_fract_x
  _atom_site_fract_y
  _atom_site_fract_z
  _atom_site_thermal_displace_type
  _atom_site_B_iso_or_equiv
  _atom_site_type_symbol
  Sr1      1.0000 0.25000  0.25000  0.46671  Biso   1.000  Sr
  Sr2      1.0000 0.75000  0.75000  0.53329  Biso   1.000  Sr
  Cu1      1.0000 0.25000  0.25000  0.05483  Biso   1.000  Cu
  Cu2      1.0000 0.75000  0.75000  0.94517  Biso   1.000  Cu
  O1       1.0000 0.13341  0.22330  0.05463  Biso   1.000  O
  O2       1.0000 0.36659  0.27670  0.05463  Biso   1.000  O
  O3       1.0000 0.27670  0.13341  0.05463  Biso   1.000  O
  O4       1.0000 0.22330  0.36659  0.05463  Biso   1.000  O
  O5       1.0000 0.86659  0.77670  0.94537  Biso   1.000  O
  O6       1.0000 0.63341  0.72330  0.94537  Biso   1.000  O
  O7       1.0000 0.72330  0.86659  0.94537  Biso   1.000  O
  O8       1.0000 0.77670  0.63341  0.94537  Biso   1.000  O
  O9       1.0000 0.12379  0.27582  0.28933  Biso   1.000  O
  O10      1.0000 0.37621  0.22418  0.28933  Biso   1.000  O
  O11      1.0000 0.22418  0.12379  0.28933  Biso   1.000  O
  O12      1.0000 0.27582  0.37621  0.28933  Biso   1.000  O
  O13      1.0000 0.87621  0.72418  0.71067  Biso   1.000  O
  O14      1.0000 0.62379  0.77582  0.71067  Biso   1.000  O
  O15      1.0000 0.77582  0.87621  0.71067  Biso   1.000  O
  O16      1.0000 0.72418  0.62379  0.71067  Biso   1.000  O
  O17      1.0000 0.98421  0.29773  0.40934  Biso   1.000  O
  O18      1.0000 0.51579  0.20227  0.40934  Biso   1.000  O
  O19      1.0000 0.20227  0.98421  0.40934  Biso   1.000  O
  O20      1.0000 0.29773  0.51579  0.40934  Biso   1.000  O
  O21      1.0000 0.01579  0.70227  0.59066  Biso   1.000  O
  O22      1.0000 0.48421  0.79773  0.59066  Biso   1.000  O
  O23      1.0000 0.79773  0.01579  0.59066  Biso   1.000  O
  O24      1.0000 0.70227  0.48421  0.59066  Biso   1.000  O
  H1       1.0000 0.03540  0.30040  0.40130  Biso   1.000  H
  H2       1.0000 0.46460  0.19960  0.40130  Biso   1.000  H
  H3       1.0000 0.19960  0.03540  0.40130  Biso   1.000  H
  H4       1.0000 0.30040  0.46460  0.40130  Biso   1.000  H
  H5       1.0000 0.96460  0.69960  0.59870  Biso   1.000  H
  H6       1.0000 0.53540  0.80040  0.59870  Biso   1.000  H
  H7       1.0000 0.80040  0.96460  0.59870  Biso   1.000  H
  H8       1.0000 0.69960  0.53540  0.59870  Biso   1.000  H
  O25      1.0000 0.25000  0.25000  0.78870  Biso   1.000  O
  O26      1.0000 0.75000  0.75000  0.21130  Biso   1.000  O
  H9       1.0000 0.22760  0.28930  0.73540  Biso   1.000  H
  H10      1.0000 0.27240  0.21070  0.73540  Biso   1.000  H
  H11      1.0000 0.21070  0.22760  0.73540  Biso   1.000  H
  H12      1.0000 0.28930  0.27240  0.73540  Biso   1.000  H
  H13      1.0000 0.77240  0.71070  0.26460  Biso   1.000  H
  H14      1.0000 0.72760  0.78930  0.26460  Biso   1.000  H
  H15      1.0000 0.78930  0.77240  0.26460  Biso   1.000  H
  H16      1.0000 0.71070  0.72760  0.26460  Biso   1.000  H
  O27      1.0000 0.13954  0.15393  0.59470  Biso   1.000  O
  O28      1.0000 0.36046  0.34607  0.59470  Biso   1.000  O
  O29      1.0000 0.34607  0.13954  0.59470  Biso   1.000  O
  O30      1.0000 0.15393  0.36046  0.59470  Biso   1.000  O
  O31      1.0000 0.86046  0.84607  0.40530  Biso   1.000  O
  O32      1.0000 0.63954  0.65393  0.40530  Biso   1.000  O
  O33      1.0000 0.65393  0.86046  0.40530  Biso   1.000  O
  O34      1.0000 0.84607  0.63954  0.40530  Biso   1.000  O
  N1       1.0000 0.03536  0.07467  0.67380  Biso   1.000  N
  N2       1.0000 0.46464  0.42533  0.67380  Biso   1.000  N
  N3       1.0000 0.42533  0.03536  0.67380  Biso   1.000  N
  N4       1.0000 0.07467  0.46464  0.67380  Biso   1.000  N
  N5       1.0000 0.96464  0.92533  0.32620  Biso   1.000  N
  N6       1.0000 0.53536  0.57467  0.32620  Biso   1.000  N
  N7       1.0000 0.57467  0.96464  0.32620  Biso   1.000  N
  N8       1.0000 0.92533  0.53536  0.32620  Biso   1.000  N
  C1       1.0000 0.00281  0.22793  0.16960  Biso   1.000  C
  C2       1.0000 0.49719  0.27207  0.16960  Biso   1.000  C
  C3       1.0000 0.27207  0.00281  0.16960  Biso   1.000  C
  C4       1.0000 0.22793  0.49719  0.16960  Biso   1.000  C
  C5       1.0000 0.99719  0.77207  0.83040  Biso   1.000  C
  C6       1.0000 0.50281  0.72793  0.83040  Biso   1.000  C
  C7       1.0000 0.72793  0.99719  0.83040  Biso   1.000  C
  C8       1.0000 0.77207  0.50281  0.83040  Biso   1.000  C
  C9       1.0000 0.96686  0.18393  0.05040  Biso   1.000  C
  C10      1.0000 0.53314  0.31607  0.05040  Biso   1.000  C
  C11      1.0000 0.31607  0.96686  0.05040  Biso   1.000  C
  C12      1.0000 0.18393  0.53314  0.05040  Biso   1.000  C
  C13      1.0000 0.03314  0.81607  0.94960  Biso   1.000  C
  C14      1.0000 0.46686  0.68393  0.94960  Biso   1.000  C
  C15      1.0000 0.68393  0.03314  0.94960  Biso   1.000  C
  C16      1.0000 0.81607  0.46686  0.94960  Biso   1.000  C
  H17      1.0000 0.99950  0.16720  0.96650  Biso   1.000  H
  H18      1.0000 0.50050  0.33280  0.96650  Biso   1.000  H
  H19      1.0000 0.33280  0.99950  0.96650  Biso   1.000  H
  H20      1.0000 0.16720  0.50050  0.96650  Biso   1.000  H
  H21      1.0000 0.00050  0.83280  0.03350  Biso   1.000  H
  H22      1.0000 0.49950  0.66720  0.03350  Biso   1.000  H
  H23      1.0000 0.66720  0.00050  0.03350  Biso   1.000  H
  H24      1.0000 0.83280  0.49950  0.03350  Biso   1.000  H
  C17      1.0000 0.88406  0.16435  0.05310  Biso   1.000  C
  C18      1.0000 0.61594  0.33565  0.05310  Biso   1.000  C
  C19      1.0000 0.33565  0.88406  0.05310  Biso   1.000  C
  C20      1.0000 0.16435  0.61594  0.05310  Biso   1.000  C
  C21      1.0000 0.11594  0.83565  0.94690  Biso   1.000  C
  C22      1.0000 0.38406  0.66435  0.94690  Biso   1.000  C
  C23      1.0000 0.66435  0.11594  0.94690  Biso   1.000  C
  C24      1.0000 0.83565  0.38406  0.94690  Biso   1.000  C
  H25      1.0000 0.86020  0.13420  0.97190  Biso   1.000  H
  H26      1.0000 0.63980  0.36580  0.97190  Biso   1.000  H
  H27      1.0000 0.36580  0.86020  0.97190  Biso   1.000  H
  H28      1.0000 0.13420  0.63980  0.97190  Biso   1.000  H
  H29      1.0000 0.13980  0.86580  0.02810  Biso   1.000  H
  H30      1.0000 0.36020  0.63420  0.02810  Biso   1.000  H
  H31      1.0000 0.63420  0.13980  0.02810  Biso   1.000  H
  H32      1.0000 0.86580  0.36020  0.02810  Biso   1.000  H
  C25      1.0000 0.83657  0.18922  0.17570  Biso   1.000  C
  C26      1.0000 0.66343  0.31078  0.17570  Biso   1.000  C
  C27      1.0000 0.31078  0.83657  0.17570  Biso   1.000  C
  C28      1.0000 0.18922  0.66343  0.17570  Biso   1.000  C
  C29      1.0000 0.16343  0.81078  0.82430  Biso   1.000  C
  C30      1.0000 0.33657  0.68922  0.82430  Biso   1.000  C
  C31      1.0000 0.68922  0.16343  0.82430  Biso   1.000  C
  C32      1.0000 0.81078  0.33657  0.82430  Biso   1.000  C
  H33      1.0000 0.78010  0.17500  0.17870  Biso   1.000  H
  H34      1.0000 0.71990  0.32500  0.17870  Biso   1.000  H
  H35      1.0000 0.32500  0.78010  0.17870  Biso   1.000  H
  H36      1.0000 0.17500  0.71990  0.17870  Biso   1.000  H
  H37      1.0000 0.21990  0.82500  0.82130  Biso   1.000  H
  H38      1.0000 0.28010  0.67500  0.82130  Biso   1.000  H
  H39      1.0000 0.67500  0.21990  0.82130  Biso   1.000  H
  H40      1.0000 0.82500  0.28010  0.82130  Biso   1.000  H
  C33      1.0000 0.86999  0.23427  0.29360  Biso   1.000  C
  C34      1.0000 0.63001  0.26573  0.29360  Biso   1.000  C
  C35      1.0000 0.26573  0.86999  0.29360  Biso   1.000  C
  C36      1.0000 0.23427  0.63001  0.29360  Biso   1.000  C
  C37      1.0000 0.13001  0.76573  0.70640  Biso   1.000  C
  C38      1.0000 0.36999  0.73427  0.70640  Biso   1.000  C
  C39      1.0000 0.73427  0.13001  0.70640  Biso   1.000  C
  C40      1.0000 0.76573  0.36999  0.70640  Biso   1.000  C
  H41      1.0000 0.83640  0.25180  0.37570  Biso   1.000  H
  H42      1.0000 0.66360  0.24820  0.37570  Biso   1.000  H
  H43      1.0000 0.24820  0.83640  0.37570  Biso   1.000  H
  H44      1.0000 0.25180  0.66360  0.37570  Biso   1.000  H
  H45      1.0000 0.16360  0.74820  0.62430  Biso   1.000  H
  H46      1.0000 0.33640  0.75180  0.62430  Biso   1.000  H
  H47      1.0000 0.75180  0.16360  0.62430  Biso   1.000  H
  H48      1.0000 0.74820  0.33640  0.62430  Biso   1.000  H
  C41      1.0000 0.95346  0.25409  0.29180  Biso   1.000  C
  C42      1.0000 0.54654  0.24591  0.29180  Biso   1.000  C
  C43      1.0000 0.24591  0.95346  0.29180  Biso   1.000  C
  C44      1.0000 0.25409  0.54654  0.29180  Biso   1.000  C
  C45      1.0000 0.04654  0.74591  0.70820  Biso   1.000  C
  C46      1.0000 0.45346  0.75409  0.70820  Biso   1.000  C
  C47      1.0000 0.75409  0.04654  0.70820  Biso   1.000  C
  C48      1.0000 0.74591  0.45346  0.70820  Biso   1.000  C
  C49      1.0000 0.09294  0.24348  0.17150  Biso   1.000  C
  C50      1.0000 0.40706  0.25652  0.17150  Biso   1.000  C
  C51      1.0000 0.25652  0.09294  0.17150  Biso   1.000  C
  C52      1.0000 0.24348  0.40706  0.17150  Biso   1.000  C
  C53      1.0000 0.90706  0.75652  0.82850  Biso   1.000  C
  C54      1.0000 0.59294  0.74348  0.82850  Biso   1.000  C
  C55      1.0000 0.74348  0.90706  0.82850  Biso   1.000  C
  C56      1.0000 0.75652  0.59294  0.82850  Biso   1.000  C
  C57      1.0000 0.11469  0.09542  0.67120  Biso   1.000  C
  C58      1.0000 0.38531  0.40458  0.67120  Biso   1.000  C
  C59      1.0000 0.40458  0.11469  0.67120  Biso   1.000  C
  C60      1.0000 0.09542  0.38531  0.67120  Biso   1.000  C
  C61      1.0000 0.88531  0.90458  0.32880  Biso   1.000  C
  C62      1.0000 0.61469  0.59542  0.32880  Biso   1.000  C
  C63      1.0000 0.59542  0.88531  0.32880  Biso   1.000  C
  C64      1.0000 0.90458  0.61469  0.32880  Biso   1.000  C
  C65      1.0000 0.17346  0.04551  0.76650  Biso   1.000  C
  C66      1.0000 0.32654  0.45449  0.76650  Biso   1.000  C
  C67      1.0000 0.45449  0.17346  0.76650  Biso   1.000  C
  C68      1.0000 0.04551  0.32654  0.76650  Biso   1.000  C
  C69      1.0000 0.82654  0.95449  0.23350  Biso   1.000  C
  C70      1.0000 0.67346  0.54551  0.23350  Biso   1.000  C
  C71      1.0000 0.54551  0.82654  0.23350  Biso   1.000  C
  C72      1.0000 0.95449  0.67346  0.23350  Biso   1.000  C
  H49      1.0000 0.22890  0.06780  0.75580  Biso   1.000  H
  H50      1.0000 0.27110  0.43220  0.75580  Biso   1.000  H
  H51      1.0000 0.43220  0.22890  0.75580  Biso   1.000  H
  H52      1.0000 0.06780  0.27110  0.75580  Biso   1.000  H
  H53      1.0000 0.77110  0.93220  0.24420  Biso   1.000  H
  H54      1.0000 0.72890  0.56780  0.24420  Biso   1.000  H
  H55      1.0000 0.56780  0.77110  0.24420  Biso   1.000  H
  H56      1.0000 0.93220  0.72890  0.24420  Biso   1.000  H
  H57      1.0000 0.17280  0.98840  0.73180  Biso   1.000  H
  H58      1.0000 0.32720  0.51160  0.73180  Biso   1.000  H
  H59      1.0000 0.51160  0.17280  0.73180  Biso   1.000  H
  H60      1.0000 0.98840  0.32720  0.73180  Biso   1.000  H
  H61      1.0000 0.82720  0.01160  0.26820  Biso   1.000  H
  H62      1.0000 0.67280  0.48840  0.26820  Biso   1.000  H
  H63      1.0000 0.48840  0.82720  0.26820  Biso   1.000  H
  H64      1.0000 0.01160  0.67280  0.26820  Biso   1.000  H
  H65      1.0000 0.15680  0.04790  0.87350  Biso   1.000  H
  H66      1.0000 0.34320  0.45210  0.87350  Biso   1.000  H
  H67      1.0000 0.45210  0.15680  0.87350  Biso   1.000  H
  H68      1.0000 0.04790  0.34320  0.87350  Biso   1.000  H
  H69      1.0000 0.84320  0.95210  0.12650  Biso   1.000  H
  H70      1.0000 0.65680  0.54790  0.12650  Biso   1.000  H
  H71      1.0000 0.54790  0.84320  0.12650  Biso   1.000  H
  H72      1.0000 0.95210  0.65680  0.12650  Biso   1.000  H
  C73      1.0000 0.97553  0.12235  0.58900  Biso   1.000  C
  C74      1.0000 0.52447  0.37765  0.58900  Biso   1.000  C
  C75      1.0000 0.37765  0.97553  0.58900  Biso   1.000  C
  C76      1.0000 0.12235  0.52447  0.58900  Biso   1.000  C
  C77      1.0000 0.02447  0.87765  0.41100  Biso   1.000  C
  C78      1.0000 0.47553  0.62235  0.41100  Biso   1.000  C
  C79      1.0000 0.62235  0.02447  0.41100  Biso   1.000  C
  C80      1.0000 0.87765  0.47553  0.41100  Biso   1.000  C
  H73      1.0000 0.94410  0.15660  0.65950  Biso   1.000  H
  H74      1.0000 0.55590  0.34340  0.65950  Biso   1.000  H
  H75      1.0000 0.34340  0.94410  0.65950  Biso   1.000  H
  H76      1.0000 0.15660  0.55590  0.65950  Biso   1.000  H
  H77      1.0000 0.05590  0.84340  0.34050  Biso   1.000  H
  H78      1.0000 0.44410  0.65660  0.34050  Biso   1.000  H
  H79      1.0000 0.65660  0.05590  0.34050  Biso   1.000  H
  H80      1.0000 0.84340  0.44410  0.34050  Biso   1.000  H
  H81      1.0000 0.93830  0.08520  0.53510  Biso   1.000  H
  H82      1.0000 0.56170  0.41480  0.53510  Biso   1.000  H
  H83      1.0000 0.41480  0.93830  0.53510  Biso   1.000  H
  H84      1.0000 0.08520  0.56170  0.53510  Biso   1.000  H
  H85      1.0000 0.06170  0.91480  0.46490  Biso   1.000  H
  H86      1.0000 0.43830  0.58520  0.46490  Biso   1.000  H
  H87      1.0000 0.58520  0.06170  0.46490  Biso   1.000  H
  H88      1.0000 0.91480  0.43830  0.46490  Biso   1.000  H
  H89      1.0000 0.00390  0.15730  0.51520  Biso   1.000  H
  H90      1.0000 0.49610  0.34270  0.51520  Biso   1.000  H
  H91      1.0000 0.34270  0.00390  0.51520  Biso   1.000  H
  H92      1.0000 0.15730  0.49610  0.51520  Biso   1.000  H
  H93      1.0000 0.99610  0.84270  0.48480  Biso   1.000  H
  H94      1.0000 0.50390  0.65730  0.48480  Biso   1.000  H
  H95      1.0000 0.65730  0.99610  0.48480  Biso   1.000  H
  H96      1.0000 0.84270  0.50390  0.48480  Biso   1.000  H
  C81      1.0000 0.00225  0.00674  0.76250  Biso   1.000  C
  C82      1.0000 0.49775  0.49326  0.76250  Biso   1.000  C
  C83      1.0000 0.49326  0.00225  0.76250  Biso   1.000  C
  C84      1.0000 0.00674  0.49775  0.76250  Biso   1.000  C
  C85      1.0000 0.99775  0.99326  0.23750  Biso   1.000  C
  C86      1.0000 0.50225  0.50674  0.23750  Biso   1.000  C
  C87      1.0000 0.50674  0.99775  0.23750  Biso   1.000  C
  C88      1.0000 0.99326  0.50225  0.23750  Biso   1.000  C
  H97      1.0000 0.04720  0.97150  0.79690  Biso   1.000  H
  H98      1.0000 0.45280  0.52850  0.79690  Biso   1.000  H
  H99      1.0000 0.52850  0.04720  0.79690  Biso   1.000  H
  H100     1.0000 0.97150  0.45280  0.79690  Biso   1.000  H
  H101     1.0000 0.95280  0.02850  0.20310  Biso   1.000  H
  H102     1.0000 0.54720  0.47150  0.20310  Biso   1.000  H
  H103     1.0000 0.47150  0.95280  0.20310  Biso   1.000  H
  H104     1.0000 0.02850  0.54720  0.20310  Biso   1.000  H
  H105     1.0000 0.96450  0.97480  0.69920  Biso   1.000  H
  H106     1.0000 0.53550  0.52520  0.69920  Biso   1.000  H
  H107     1.0000 0.52520  0.96450  0.69920  Biso   1.000  H
  H108     1.0000 0.97480  0.53550  0.69920  Biso   1.000  H
  H109     1.0000 0.03550  0.02520  0.30080  Biso   1.000  H
  H110     1.0000 0.46450  0.47480  0.30080  Biso   1.000  H
  H111     1.0000 0.47480  0.03550  0.30080  Biso   1.000  H
  H112     1.0000 0.02520  0.46450  0.30080  Biso   1.000  H
  H113     1.0000 0.97280  0.02830  0.85110  Biso   1.000  H
  H114     1.0000 0.52720  0.47170  0.85110  Biso   1.000  H
  H115     1.0000 0.47170  0.97280  0.85110  Biso   1.000  H
  H116     1.0000 0.02830  0.52720  0.85110  Biso   1.000  H
  H117     1.0000 0.02720  0.97170  0.14890  Biso   1.000  H
  H118     1.0000 0.47280  0.52830  0.14890  Biso   1.000  H
  H119     1.0000 0.52830  0.02720  0.14890  Biso   1.000  H
  H120     1.0000 0.97170  0.47280  0.14890  Biso   1.000  H
