data_image0
_cell_length_a       16.362
_cell_length_b       16.362
_cell_length_c       8.92
_cell_angle_alpha    90
_cell_angle_beta     90
_cell_angle_gamma    90

_symmetry_space_group_name_H-M    "P 1"
_symmetry_int_tables_number       1

loop_
  _symmetry_equiv_pos_as_xyz
  'x, y, z'

loop_
  _atom_site_label
  _atom_site_occupancy
  _atom_site_fract_x
  _atom_site_fract_y
  _atom_site_fract_z
  _atom_site_thermal_displace_type
  _atom_site_B_iso_or_equiv
  _atom_site_type_symbol
  Ba1      1.0000 0.25000  0.25000  0.46951  Biso   1.000  Ba
  Ba2      1.0000 0.75000  0.75000  0.53049  Biso   1.000  Ba
  Cu1      1.0000 0.25000  0.25000  0.05025  Biso   1.000  Cu
  Cu2      1.0000 0.75000  0.75000  0.94975  Biso   1.000  Cu
  O1       1.0000 0.28142  0.37889  0.28084  Biso   1.000  O
  O2       1.0000 0.21858  0.12111  0.28084  Biso   1.000  O
  O3       1.0000 0.12111  0.28142  0.28084  Biso   1.000  O
  O4       1.0000 0.37889  0.21858  0.28084  Biso   1.000  O
  O5       1.0000 0.71858  0.62111  0.71916  Biso   1.000  O
  O6       1.0000 0.78142  0.87889  0.71916  Biso   1.000  O
  O7       1.0000 0.87889  0.71858  0.71916  Biso   1.000  O
  O8       1.0000 0.62111  0.78142  0.71916  Biso   1.000  O
  O9       1.0000 0.22742  0.36779  0.05141  Biso   1.000  O
  O10      1.0000 0.27258  0.13221  0.05141  Biso   1.000  O
  O11      1.0000 0.13221  0.22742  0.05141  Biso   1.000  O
  O12      1.0000 0.36779  0.27258  0.05141  Biso   1.000  O
  O13      1.0000 0.77258  0.63221  0.94859  Biso   1.000  O
  O14      1.0000 0.72742  0.86779  0.94859  Biso   1.000  O
  O15      1.0000 0.86779  0.77258  0.94859  Biso   1.000  O
  O16      1.0000 0.63221  0.72742  0.94859  Biso   1.000  O
  O17      1.0000 0.29335  0.51692  0.40521  Biso   1.000  O
  O18      1.0000 0.20665  0.98308  0.40521  Biso   1.000  O
  O19      1.0000 0.98308  0.29335  0.40521  Biso   1.000  O
  O20      1.0000 0.51692  0.20665  0.40521  Biso   1.000  O
  O21      1.0000 0.70665  0.48308  0.59479  Biso   1.000  O
  O22      1.0000 0.79335  0.01692  0.59479  Biso   1.000  O
  O23      1.0000 0.01692  0.70665  0.59479  Biso   1.000  O
  O24      1.0000 0.48308  0.79335  0.59479  Biso   1.000  O
  O25      1.0000 0.15111  0.36838  0.60279  Biso   1.000  O
  O26      1.0000 0.34889  0.13162  0.60279  Biso   1.000  O
  O27      1.0000 0.13162  0.15111  0.60279  Biso   1.000  O
  O28      1.0000 0.36838  0.34889  0.60279  Biso   1.000  O
  O29      1.0000 0.84889  0.63162  0.39721  Biso   1.000  O
  O30      1.0000 0.65111  0.86838  0.39721  Biso   1.000  O
  O31      1.0000 0.86838  0.84889  0.39721  Biso   1.000  O
  O32      1.0000 0.63162  0.65111  0.39721  Biso   1.000  O
  N1       1.0000 0.07033  0.47123  0.67562  Biso   1.000  N
  N2       1.0000 0.42967  0.02877  0.67562  Biso   1.000  N
  N3       1.0000 0.02877  0.07033  0.67562  Biso   1.000  N
  N4       1.0000 0.47123  0.42967  0.67562  Biso   1.000  N
  N5       1.0000 0.92967  0.52877  0.32438  Biso   1.000  N
  N6       1.0000 0.57033  0.97123  0.32438  Biso   1.000  N
  N7       1.0000 0.97123  0.92967  0.32438  Biso   1.000  N
  N8       1.0000 0.52877  0.57033  0.32438  Biso   1.000  N
  C1       1.0000 0.24745  0.40852  0.16595  Biso   1.000  C
  C2       1.0000 0.25255  0.09148  0.16595  Biso   1.000  C
  C3       1.0000 0.09148  0.24745  0.16595  Biso   1.000  C
  C4       1.0000 0.40852  0.25255  0.16595  Biso   1.000  C
  C5       1.0000 0.75255  0.59148  0.83405  Biso   1.000  C
  C6       1.0000 0.74745  0.90852  0.83405  Biso   1.000  C
  C7       1.0000 0.90852  0.75255  0.83405  Biso   1.000  C
  C8       1.0000 0.59148  0.74745  0.83405  Biso   1.000  C
  C9       1.0000 0.22877  0.49815  0.16522  Biso   1.000  C
  C10      1.0000 0.27123  0.00185  0.16522  Biso   1.000  C
  C11      1.0000 0.00185  0.22877  0.16522  Biso   1.000  C
  C12      1.0000 0.49815  0.27123  0.16522  Biso   1.000  C
  C13      1.0000 0.77123  0.50185  0.83478  Biso   1.000  C
  C14      1.0000 0.72877  0.99815  0.83478  Biso   1.000  C
  C15      1.0000 0.99815  0.77123  0.83478  Biso   1.000  C
  C16      1.0000 0.50185  0.72877  0.83478  Biso   1.000  C
  C17      1.0000 0.25174  0.54729  0.28735  Biso   1.000  C
  C18      1.0000 0.24826  0.95271  0.28735  Biso   1.000  C
  C19      1.0000 0.95271  0.25174  0.28735  Biso   1.000  C
  C20      1.0000 0.54729  0.24826  0.28735  Biso   1.000  C
  C21      1.0000 0.74826  0.45271  0.71265  Biso   1.000  C
  C22      1.0000 0.75174  0.04729  0.71265  Biso   1.000  C
  C23      1.0000 0.04729  0.74826  0.71265  Biso   1.000  C
  C24      1.0000 0.45271  0.75174  0.71265  Biso   1.000  C
  C25      1.0000 0.23049  0.63006  0.28930  Biso   1.000  C
  C26      1.0000 0.26951  0.86994  0.28930  Biso   1.000  C
  C27      1.0000 0.86994  0.23049  0.28930  Biso   1.000  C
  C28      1.0000 0.63006  0.26951  0.28930  Biso   1.000  C
  C29      1.0000 0.76951  0.36994  0.71070  Biso   1.000  C
  C30      1.0000 0.73049  0.13006  0.71070  Biso   1.000  C
  C31      1.0000 0.13006  0.76951  0.71070  Biso   1.000  C
  C32      1.0000 0.36994  0.73049  0.71070  Biso   1.000  C
  H1       1.0000 0.24590  0.66350  0.37160  Biso   1.000  H
  H2       1.0000 0.25410  0.83650  0.37160  Biso   1.000  H
  H3       1.0000 0.83650  0.24590  0.37160  Biso   1.000  H
  H4       1.0000 0.66350  0.25410  0.37160  Biso   1.000  H
  H5       1.0000 0.75410  0.33650  0.62840  Biso   1.000  H
  H6       1.0000 0.74590  0.16350  0.62840  Biso   1.000  H
  H7       1.0000 0.16350  0.75410  0.62840  Biso   1.000  H
  H8       1.0000 0.33650  0.74590  0.62840  Biso   1.000  H
  C33      1.0000 0.18694  0.66327  0.17110  Biso   1.000  C
  C34      1.0000 0.31306  0.83673  0.17110  Biso   1.000  C
  C35      1.0000 0.83673  0.18694  0.17110  Biso   1.000  C
  C36      1.0000 0.66327  0.31306  0.17110  Biso   1.000  C
  C37      1.0000 0.81306  0.33673  0.82890  Biso   1.000  C
  C38      1.0000 0.68694  0.16327  0.82890  Biso   1.000  C
  C39      1.0000 0.16327  0.81306  0.82890  Biso   1.000  C
  C40      1.0000 0.33673  0.68694  0.82890  Biso   1.000  C
  H9       1.0000 0.17200  0.71940  0.17360  Biso   1.000  H
  H10      1.0000 0.32800  0.78060  0.17360  Biso   1.000  H
  H11      1.0000 0.78060  0.17200  0.17360  Biso   1.000  H
  H12      1.0000 0.71940  0.32800  0.17360  Biso   1.000  H
  H13      1.0000 0.82800  0.28060  0.82640  Biso   1.000  H
  H14      1.0000 0.67200  0.21940  0.82640  Biso   1.000  H
  H15      1.0000 0.21940  0.82800  0.82640  Biso   1.000  H
  H16      1.0000 0.28060  0.67200  0.82640  Biso   1.000  H
  C41      1.0000 0.16479  0.61575  0.04890  Biso   1.000  C
  C42      1.0000 0.33521  0.88425  0.04890  Biso   1.000  C
  C43      1.0000 0.88425  0.16479  0.04890  Biso   1.000  C
  C44      1.0000 0.61575  0.33521  0.04890  Biso   1.000  C
  C45      1.0000 0.83521  0.38425  0.95110  Biso   1.000  C
  C46      1.0000 0.66479  0.11575  0.95110  Biso   1.000  C
  C47      1.0000 0.11575  0.83521  0.95110  Biso   1.000  C
  C48      1.0000 0.38425  0.66479  0.95110  Biso   1.000  C
  H17      1.0000 0.13550  0.63920  0.96760  Biso   1.000  H
  H18      1.0000 0.36450  0.86080  0.96760  Biso   1.000  H
  H19      1.0000 0.86080  0.13550  0.96760  Biso   1.000  H
  H20      1.0000 0.63920  0.36450  0.96760  Biso   1.000  H
  H21      1.0000 0.86450  0.36080  0.03240  Biso   1.000  H
  H22      1.0000 0.63550  0.13920  0.03240  Biso   1.000  H
  H23      1.0000 0.13920  0.86450  0.03240  Biso   1.000  H
  H24      1.0000 0.36080  0.63550  0.03240  Biso   1.000  H
  C49      1.0000 0.18578  0.53363  0.04666  Biso   1.000  C
  C50      1.0000 0.31422  0.96637  0.04666  Biso   1.000  C
  C51      1.0000 0.96637  0.18578  0.04666  Biso   1.000  C
  C52      1.0000 0.53363  0.31422  0.04666  Biso   1.000  C
  C53      1.0000 0.81422  0.46637  0.95334  Biso   1.000  C
  C54      1.0000 0.68578  0.03363  0.95334  Biso   1.000  C
  C55      1.0000 0.03363  0.81422  0.95334  Biso   1.000  C
  C56      1.0000 0.46637  0.68578  0.95334  Biso   1.000  C
  H25      1.0000 0.17060  0.50080  0.96340  Biso   1.000  H
  H26      1.0000 0.32940  0.99920  0.96340  Biso   1.000  H
  H27      1.0000 0.99920  0.17060  0.96340  Biso   1.000  H
  H28      1.0000 0.50080  0.32940  0.96340  Biso   1.000  H
  H29      1.0000 0.82940  0.49920  0.03660  Biso   1.000  H
  H30      1.0000 0.67060  0.00080  0.03660  Biso   1.000  H
  H31      1.0000 0.00080  0.82940  0.03660  Biso   1.000  H
  H32      1.0000 0.49920  0.67060  0.03660  Biso   1.000  H
  C57      1.0000 0.03969  0.33285  0.76220  Biso   1.000  C
  C58      1.0000 0.46031  0.16715  0.76220  Biso   1.000  C
  C59      1.0000 0.16715  0.03969  0.76220  Biso   1.000  C
  C60      1.0000 0.33285  0.46031  0.76220  Biso   1.000  C
  C61      1.0000 0.96031  0.66715  0.23780  Biso   1.000  C
  C62      1.0000 0.53969  0.83285  0.23780  Biso   1.000  C
  C63      1.0000 0.83285  0.96031  0.23780  Biso   1.000  C
  C64      1.0000 0.66715  0.53969  0.23780  Biso   1.000  C
  H33      1.0000 0.06260  0.27780  0.75230  Biso   1.000  H
  H34      1.0000 0.43740  0.22220  0.75230  Biso   1.000  H
  H35      1.0000 0.22220  0.06260  0.75230  Biso   1.000  H
  H36      1.0000 0.27780  0.43740  0.75230  Biso   1.000  H
  H37      1.0000 0.93740  0.72220  0.24770  Biso   1.000  H
  H38      1.0000 0.56260  0.77780  0.24770  Biso   1.000  H
  H39      1.0000 0.77780  0.93740  0.24770  Biso   1.000  H
  H40      1.0000 0.72220  0.56260  0.24770  Biso   1.000  H
  H41      1.0000 0.98360  0.33330  0.72370  Biso   1.000  H
  H42      1.0000 0.51640  0.16670  0.72370  Biso   1.000  H
  H43      1.0000 0.16670  0.98360  0.72370  Biso   1.000  H
  H44      1.0000 0.33330  0.51640  0.72370  Biso   1.000  H
  H45      1.0000 0.01640  0.66670  0.27630  Biso   1.000  H
  H46      1.0000 0.48360  0.83330  0.27630  Biso   1.000  H
  H47      1.0000 0.83330  0.01640  0.27630  Biso   1.000  H
  H48      1.0000 0.66670  0.48360  0.27630  Biso   1.000  H
  H49      1.0000 0.03960  0.34890  0.86810  Biso   1.000  H
  H50      1.0000 0.46040  0.15110  0.86810  Biso   1.000  H
  H51      1.0000 0.15110  0.03960  0.86810  Biso   1.000  H
  H52      1.0000 0.34890  0.46040  0.86810  Biso   1.000  H
  H53      1.0000 0.96040  0.65110  0.13190  Biso   1.000  H
  H54      1.0000 0.53960  0.84890  0.13190  Biso   1.000  H
  H55      1.0000 0.84890  0.96040  0.13190  Biso   1.000  H
  H56      1.0000 0.65110  0.53960  0.13190  Biso   1.000  H
  C65      1.0000 0.09100  0.39232  0.67370  Biso   1.000  C
  C66      1.0000 0.40900  0.10768  0.67370  Biso   1.000  C
  C67      1.0000 0.10768  0.09100  0.67370  Biso   1.000  C
  C68      1.0000 0.39232  0.40900  0.67370  Biso   1.000  C
  C69      1.0000 0.90900  0.60768  0.32630  Biso   1.000  C
  C70      1.0000 0.59100  0.89232  0.32630  Biso   1.000  C
  C71      1.0000 0.89232  0.90900  0.32630  Biso   1.000  C
  C72      1.0000 0.60768  0.59100  0.32630  Biso   1.000  C
  C73      1.0000 0.00034  0.50422  0.75780  Biso   1.000  C
  C74      1.0000 0.49966  0.99578  0.75780  Biso   1.000  C
  C75      1.0000 0.99578  0.00034  0.75780  Biso   1.000  C
  C76      1.0000 0.50422  0.49966  0.75780  Biso   1.000  C
  C77      1.0000 0.99966  0.49578  0.24220  Biso   1.000  C
  C78      1.0000 0.50034  0.00422  0.24220  Biso   1.000  C
  C79      1.0000 0.00422  0.99966  0.24220  Biso   1.000  C
  C80      1.0000 0.49578  0.50034  0.24220  Biso   1.000  C
  H57      1.0000 0.96300  0.45960  0.78400  Biso   1.000  H
  H58      1.0000 0.53700  0.04040  0.78400  Biso   1.000  H
  H59      1.0000 0.04040  0.96300  0.78400  Biso   1.000  H
  H60      1.0000 0.45960  0.53700  0.78400  Biso   1.000  H
  H61      1.0000 0.03700  0.54040  0.21600  Biso   1.000  H
  H62      1.0000 0.46300  0.95960  0.21600  Biso   1.000  H
  H63      1.0000 0.95960  0.03700  0.21600  Biso   1.000  H
  H64      1.0000 0.54040  0.46300  0.21600  Biso   1.000  H
  H65      1.0000 0.97170  0.54410  0.69490  Biso   1.000  H
  H66      1.0000 0.52830  0.95590  0.69490  Biso   1.000  H
  H67      1.0000 0.95590  0.97170  0.69490  Biso   1.000  H
  H68      1.0000 0.54410  0.52830  0.69490  Biso   1.000  H
  H69      1.0000 0.02830  0.45590  0.30510  Biso   1.000  H
  H70      1.0000 0.47170  0.04410  0.30510  Biso   1.000  H
  H71      1.0000 0.04410  0.02830  0.30510  Biso   1.000  H
  H72      1.0000 0.45590  0.47170  0.30510  Biso   1.000  H
  H73      1.0000 0.01950  0.53100  0.84960  Biso   1.000  H
  H74      1.0000 0.48050  0.96900  0.84960  Biso   1.000  H
  H75      1.0000 0.96900  0.01950  0.84960  Biso   1.000  H
  H76      1.0000 0.53100  0.48050  0.84960  Biso   1.000  H
  H77      1.0000 0.98050  0.46900  0.15040  Biso   1.000  H
  H78      1.0000 0.51950  0.03100  0.15040  Biso   1.000  H
  H79      1.0000 0.03100  0.98050  0.15040  Biso   1.000  H
  H80      1.0000 0.46900  0.51950  0.15040  Biso   1.000  H
  C81      1.0000 0.12096  0.53141  0.59870  Biso   1.000  C
  C82      1.0000 0.37904  0.96859  0.59870  Biso   1.000  C
  C83      1.0000 0.96859  0.12096  0.59870  Biso   1.000  C
  C84      1.0000 0.53141  0.37904  0.59870  Biso   1.000  C
  C85      1.0000 0.87904  0.46859  0.40130  Biso   1.000  C
  C86      1.0000 0.62096  0.03141  0.40130  Biso   1.000  C
  C87      1.0000 0.03141  0.87904  0.40130  Biso   1.000  C
  C88      1.0000 0.46859  0.62096  0.40130  Biso   1.000  C
  H81      1.0000 0.14930  0.56530  0.67280  Biso   1.000  H
  H82      1.0000 0.35070  0.93470  0.67280  Biso   1.000  H
  H83      1.0000 0.93470  0.14930  0.67280  Biso   1.000  H
  H84      1.0000 0.56530  0.35070  0.67280  Biso   1.000  H
  H85      1.0000 0.85070  0.43470  0.32720  Biso   1.000  H
  H86      1.0000 0.64930  0.06530  0.32720  Biso   1.000  H
  H87      1.0000 0.06530  0.85070  0.32720  Biso   1.000  H
  H88      1.0000 0.43470  0.64930  0.32720  Biso   1.000  H
  H89      1.0000 0.08630  0.56610  0.53560  Biso   1.000  H
  H90      1.0000 0.41370  0.93390  0.53560  Biso   1.000  H
  H91      1.0000 0.93390  0.08630  0.53560  Biso   1.000  H
  H92      1.0000 0.56610  0.41370  0.53560  Biso   1.000  H
  H93      1.0000 0.91370  0.43390  0.46440  Biso   1.000  H
  H94      1.0000 0.58630  0.06610  0.46440  Biso   1.000  H
  H95      1.0000 0.06610  0.91370  0.46440  Biso   1.000  H
  H96      1.0000 0.43390  0.58630  0.46440  Biso   1.000  H
  H97      1.0000 0.16120  0.50320  0.53590  Biso   1.000  H
  H98      1.0000 0.33880  0.99680  0.53590  Biso   1.000  H
  H99      1.0000 0.99680  0.16120  0.53590  Biso   1.000  H
  H100     1.0000 0.50320  0.33880  0.53590  Biso   1.000  H
  H101     1.0000 0.83880  0.49680  0.46410  Biso   1.000  H
  H102     1.0000 0.66120  0.00320  0.46410  Biso   1.000  H
  H103     1.0000 0.00320  0.83880  0.46410  Biso   1.000  H
  H104     1.0000 0.49680  0.66120  0.46410  Biso   1.000  H
  O33      1.0000 0.25000  0.25000  0.79620  Biso   1.000  O
  O34      1.0000 0.75000  0.75000  0.20380  Biso   1.000  O
  H105     1.0000 0.29800  0.46580  0.38480  Biso   1.000  H
  H106     1.0000 0.20200  0.03420  0.38480  Biso   1.000  H
  H107     1.0000 0.03420  0.29800  0.38480  Biso   1.000  H
  H108     1.0000 0.46580  0.20200  0.38480  Biso   1.000  H
  H109     1.0000 0.70200  0.53420  0.61520  Biso   1.000  H
  H110     1.0000 0.79800  0.96580  0.61520  Biso   1.000  H
  H111     1.0000 0.96580  0.70200  0.61520  Biso   1.000  H
  H112     1.0000 0.53420  0.79800  0.61520  Biso   1.000  H
  H113     1.0000 0.28400  0.22160  0.73640  Biso   1.000  H
  H114     1.0000 0.21600  0.27840  0.73640  Biso   1.000  H
  H115     1.0000 0.27840  0.28400  0.73640  Biso   1.000  H
  H116     1.0000 0.22160  0.21600  0.73640  Biso   1.000  H
  H117     1.0000 0.71600  0.77840  0.26360  Biso   1.000  H
  H118     1.0000 0.78400  0.72160  0.26360  Biso   1.000  H
  H119     1.0000 0.72160  0.71600  0.26360  Biso   1.000  H
  H120     1.0000 0.77840  0.78400  0.26360  Biso   1.000  H
  H121     1.0000 0.05850  0.16010  0.96350  Biso   1.000  H
  H122     1.0000 0.44150  0.33990  0.96350  Biso   1.000  H
  H123     1.0000 0.33990  0.05850  0.96350  Biso   1.000  H
  H124     1.0000 0.16010  0.44150  0.96350  Biso   1.000  H
  H125     1.0000 0.94150  0.83990  0.03650  Biso   1.000  H
  H126     1.0000 0.55850  0.66010  0.03650  Biso   1.000  H
  H127     1.0000 0.66010  0.94150  0.03650  Biso   1.000  H
  H128     1.0000 0.83990  0.55850  0.03650  Biso   1.000  H
  H129     1.0000 0.97600  0.28130  0.36990  Biso   1.000  H
  H130     1.0000 0.52400  0.21870  0.36990  Biso   1.000  H
  H131     1.0000 0.21870  0.97600  0.36990  Biso   1.000  H
  H132     1.0000 0.28130  0.52400  0.36990  Biso   1.000  H
  H133     1.0000 0.02400  0.71870  0.63010  Biso   1.000  H
  H134     1.0000 0.47600  0.78130  0.63010  Biso   1.000  H
  H135     1.0000 0.78130  0.02400  0.63010  Biso   1.000  H
  H136     1.0000 0.71870  0.47600  0.63010  Biso   1.000  H
  O35      1.0000 0.01080  0.15470  0.94100  Biso   1.000  O
  O36      1.0000 0.48920  0.34530  0.94100  Biso   1.000  O
  O37      1.0000 0.34530  0.01080  0.94100  Biso   1.000  O
  O38      1.0000 0.15470  0.48920  0.94100  Biso   1.000  O
  O39      1.0000 0.98920  0.84530  0.05900  Biso   1.000  O
  O40      1.0000 0.51080  0.65470  0.05900  Biso   1.000  O
  O41      1.0000 0.65470  0.98920  0.05900  Biso   1.000  O
  O42      1.0000 0.84530  0.51080  0.05900  Biso   1.000  O
