data_image0
_cell_length_a       11.4981
_cell_length_b       15.7557
_cell_length_c       18.504
_cell_angle_alpha    90
_cell_angle_beta     97.751
_cell_angle_gamma    90

_symmetry_space_group_name_H-M    "P 1"
_symmetry_int_tables_number       1

loop_
  _symmetry_equiv_pos_as_xyz
  'x, y, z'

loop_
  _atom_site_label
  _atom_site_occupancy
  _atom_site_fract_x
  _atom_site_fract_y
  _atom_site_fract_z
  _atom_site_thermal_displace_type
  _atom_site_B_iso_or_equiv
  _atom_site_type_symbol
  Cu1      1.0000 0.35829  0.53313  0.28866  Biso   1.000  Cu
  Cu2      1.0000 0.14171  0.03313  0.21134  Biso   1.000  Cu
  Cu3      1.0000 0.64171  0.46687  0.71134  Biso   1.000  Cu
  Cu4      1.0000 0.85829  0.96687  0.78866  Biso   1.000  Cu
  Cu5      1.0000 0.60603  0.48582  0.26248  Biso   1.000  Cu
  Cu6      1.0000 0.89397  0.98582  0.23752  Biso   1.000  Cu
  Cu7      1.0000 0.39397  0.51418  0.73752  Biso   1.000  Cu
  Cu8      1.0000 0.10603  0.01418  0.76248  Biso   1.000  Cu
  O1       1.0000 0.26560  0.49543  0.35937  Biso   1.000  O
  O2       1.0000 0.23440  0.99543  0.14063  Biso   1.000  O
  O3       1.0000 0.73440  0.50457  0.64063  Biso   1.000  O
  O4       1.0000 0.76560  0.00457  0.85937  Biso   1.000  O
  C1       1.0000 0.21360  0.43130  0.46300  Biso   1.000  C
  C2       1.0000 0.28640  0.93130  0.03700  Biso   1.000  C
  C3       1.0000 0.78640  0.56870  0.53700  Biso   1.000  C
  C4       1.0000 0.71360  0.06870  0.96300  Biso   1.000  C
  F1       1.0000 0.13630  0.38280  0.42930  Biso   1.000  F
  F2       1.0000 0.36370  0.88280  0.07070  Biso   1.000  F
  F3       1.0000 0.86370  0.61720  0.57070  Biso   1.000  F
  F4       1.0000 0.63630  0.11720  0.92930  Biso   1.000  F
  F5       1.0000 0.15670  0.49680  0.48140  Biso   1.000  F
  F6       1.0000 0.34330  0.99680  0.01860  Biso   1.000  F
  F7       1.0000 0.84330  0.50320  0.51860  Biso   1.000  F
  F8       1.0000 0.65670  0.00320  0.98140  Biso   1.000  F
  F9       1.0000 0.25120  0.39370  0.52270  Biso   1.000  F
  F10      1.0000 0.24880  0.89370  0.97730  Biso   1.000  F
  F11      1.0000 0.74880  0.60630  0.47730  Biso   1.000  F
  F12      1.0000 0.75120  0.10630  0.02270  Biso   1.000  F
  C5       1.0000 0.30710  0.45340  0.41590  Biso   1.000  C
  C6       1.0000 0.19290  0.95340  0.08410  Biso   1.000  C
  C7       1.0000 0.69290  0.54660  0.58410  Biso   1.000  C
  C8       1.0000 0.80710  0.04660  0.91590  Biso   1.000  C
  C9       1.0000 0.41920  0.42320  0.43640  Biso   1.000  C
  C10      1.0000 0.08080  0.92320  0.06360  Biso   1.000  C
  C11      1.0000 0.58080  0.57680  0.56360  Biso   1.000  C
  C12      1.0000 0.91920  0.07680  0.93640  Biso   1.000  C
  H1       1.0000 0.43510  0.39780  0.48200  Biso   1.000  H
  H2       1.0000 0.06490  0.89780  0.01800  Biso   1.000  H
  H3       1.0000 0.56490  0.60220  0.51800  Biso   1.000  H
  H4       1.0000 0.93510  0.10220  0.98200  Biso   1.000  H
  C13      1.0000 0.51100  0.42770  0.39410  Biso   1.000  C
  C14      1.0000 0.98900  0.92770  0.10590  Biso   1.000  C
  C15      1.0000 0.48900  0.57230  0.60590  Biso   1.000  C
  C16      1.0000 0.01100  0.07230  0.89410  Biso   1.000  C
  O5       1.0000 0.49670  0.47251  0.33318  Biso   1.000  O
  O6       1.0000 0.00330  0.97251  0.16682  Biso   1.000  O
  O7       1.0000 0.50330  0.52749  0.66682  Biso   1.000  O
  O8       1.0000 0.99670  0.02749  0.83318  Biso   1.000  O
  C17      1.0000 0.61420  0.38160  0.41250  Biso   1.000  C
  C18      1.0000 0.88580  0.88160  0.08750  Biso   1.000  C
  C19      1.0000 0.38580  0.61840  0.58750  Biso   1.000  C
  C20      1.0000 0.11420  0.11840  0.91250  Biso   1.000  C
  H5       1.0000 0.62540  0.35600  0.45820  Biso   1.000  H
  H6       1.0000 0.87460  0.85600  0.04180  Biso   1.000  H
  H7       1.0000 0.37460  0.64400  0.54180  Biso   1.000  H
  H8       1.0000 0.12540  0.14400  0.95820  Biso   1.000  H
  C21      1.0000 0.69900  0.37100  0.36990  Biso   1.000  C
  C22      1.0000 0.80100  0.87100  0.13010  Biso   1.000  C
  C23      1.0000 0.30100  0.62900  0.63010  Biso   1.000  C
  C24      1.0000 0.19900  0.12900  0.86990  Biso   1.000  C
  C25      1.0000 0.79750  0.30760  0.39350  Biso   1.000  C
  C26      1.0000 0.70250  0.80760  0.10650  Biso   1.000  C
  C27      1.0000 0.20250  0.69240  0.60650  Biso   1.000  C
  C28      1.0000 0.29750  0.19240  0.89350  Biso   1.000  C
  F13      1.0000 0.89920  0.34170  0.39610  Biso   1.000  F
  F14      1.0000 0.60080  0.84170  0.10390  Biso   1.000  F
  F15      1.0000 0.10080  0.65830  0.60390  Biso   1.000  F
  F16      1.0000 0.39920  0.15830  0.89610  Biso   1.000  F
  F17      1.0000 0.79970  0.24680  0.34720  Biso   1.000  F
  F18      1.0000 0.70030  0.74680  0.15280  Biso   1.000  F
  F19      1.0000 0.20030  0.75320  0.65280  Biso   1.000  F
  F20      1.0000 0.29970  0.25320  0.84720  Biso   1.000  F
  F21      1.0000 0.79230  0.27200  0.45650  Biso   1.000  F
  F22      1.0000 0.70770  0.77200  0.04350  Biso   1.000  F
  F23      1.0000 0.20770  0.72800  0.54350  Biso   1.000  F
  F24      1.0000 0.29230  0.22800  0.95650  Biso   1.000  F
  O9       1.0000 0.71140  0.40340  0.30776  Biso   1.000  O
  O10      1.0000 0.78860  0.90340  0.19224  Biso   1.000  O
  O11      1.0000 0.28860  0.59660  0.69224  Biso   1.000  O
  O12      1.0000 0.21140  0.09660  0.80776  Biso   1.000  O
  O13      1.0000 0.67560  0.48600  0.17487  Biso   1.000  O
  O14      1.0000 0.82440  0.98600  0.32513  Biso   1.000  O
  O15      1.0000 0.32440  0.51400  0.82513  Biso   1.000  O
  O16      1.0000 0.17560  0.01400  0.67487  Biso   1.000  O
  C29      1.0000 0.71270  0.52520  0.05930  Biso   1.000  C
  C30      1.0000 0.78730  0.02520  0.44070  Biso   1.000  C
  C31      1.0000 0.28730  0.47480  0.94070  Biso   1.000  C
  C32      1.0000 0.21270  0.97480  0.55930  Biso   1.000  C
  F25      1.0000 0.73000  0.44640  0.03980  Biso   1.000  F
  F26      1.0000 0.77000  0.94640  0.46020  Biso   1.000  F
  F27      1.0000 0.27000  0.55360  0.96020  Biso   1.000  F
  F28      1.0000 0.23000  0.05360  0.53980  Biso   1.000  F
  F29      1.0000 0.67260  0.56620  0.99931  Biso   1.000  F
  F30      1.0000 0.82740  0.06620  0.50069  Biso   1.000  F
  F31      1.0000 0.32740  0.43380  0.00069  Biso   1.000  F
  F32      1.0000 0.17260  0.93380  0.49931  Biso   1.000  F
  F33      1.0000 0.81730  0.55650  0.08210  Biso   1.000  F
  F34      1.0000 0.68270  0.05650  0.41790  Biso   1.000  F
  F35      1.0000 0.18270  0.44350  0.91790  Biso   1.000  F
  F36      1.0000 0.31730  0.94350  0.58210  Biso   1.000  F
  C33      1.0000 0.63390  0.52880  0.11910  Biso   1.000  C
  C34      1.0000 0.86610  0.02880  0.38090  Biso   1.000  C
  C35      1.0000 0.36610  0.47120  0.88090  Biso   1.000  C
  C36      1.0000 0.13390  0.97120  0.61910  Biso   1.000  C
  C37      1.0000 0.53340  0.57620  0.10600  Biso   1.000  C
  C38      1.0000 0.96660  0.07620  0.39400  Biso   1.000  C
  C39      1.0000 0.46660  0.42380  0.89400  Biso   1.000  C
  C40      1.0000 0.03340  0.92380  0.60600  Biso   1.000  C
  H9       1.0000 0.51960  0.60500  0.06180  Biso   1.000  H
  H10      1.0000 0.98040  0.10500  0.43820  Biso   1.000  H
  H11      1.0000 0.48040  0.39500  0.93820  Biso   1.000  H
  H12      1.0000 0.01960  0.89500  0.56180  Biso   1.000  H
  C41      1.0000 0.44900  0.58450  0.15450  Biso   1.000  C
  C42      1.0000 0.05100  0.08450  0.34550  Biso   1.000  C
  C43      1.0000 0.55100  0.41550  0.84550  Biso   1.000  C
  C44      1.0000 0.94900  0.91550  0.65450  Biso   1.000  C
  O17      1.0000 0.47010  0.55116  0.22021  Biso   1.000  O
  O18      1.0000 0.02990  0.05116  0.27979  Biso   1.000  O
  O19      1.0000 0.52990  0.44884  0.77979  Biso   1.000  O
  O20      1.0000 0.97010  0.94884  0.72021  Biso   1.000  O
  C45      1.0000 0.34390  0.62890  0.13350  Biso   1.000  C
  C46      1.0000 0.15610  0.12890  0.36650  Biso   1.000  C
  C47      1.0000 0.65610  0.37110  0.86650  Biso   1.000  C
  C48      1.0000 0.84390  0.87110  0.63350  Biso   1.000  C
  H13      1.0000 0.33250  0.65240  0.08690  Biso   1.000  H
  H14      1.0000 0.16750  0.15240  0.41310  Biso   1.000  H
  H15      1.0000 0.66750  0.34760  0.91310  Biso   1.000  H
  H16      1.0000 0.83250  0.84760  0.58690  Biso   1.000  H
  C49      1.0000 0.25770  0.64010  0.17590  Biso   1.000  C
  C50      1.0000 0.24230  0.14010  0.32410  Biso   1.000  C
  C51      1.0000 0.74230  0.35990  0.82410  Biso   1.000  C
  C52      1.0000 0.75770  0.85990  0.67590  Biso   1.000  C
  C53      1.0000 0.15290  0.69560  0.14730  Biso   1.000  C
  C54      1.0000 0.34710  0.19560  0.35270  Biso   1.000  C
  C55      1.0000 0.84710  0.30440  0.85270  Biso   1.000  C
  C56      1.0000 0.65290  0.80440  0.64730  Biso   1.000  C
  F37      1.0000 0.14920  0.71520  0.07843  Biso   1.000  F
  F38      1.0000 0.35080  0.21520  0.42157  Biso   1.000  F
  F39      1.0000 0.85080  0.28480  0.92157  Biso   1.000  F
  F40      1.0000 0.64920  0.78480  0.57843  Biso   1.000  F
  F41      1.0000 0.16040  0.77000  0.18119  Biso   1.000  F
  F42      1.0000 0.33960  0.27000  0.31881  Biso   1.000  F
  F43      1.0000 0.83960  0.23000  0.81881  Biso   1.000  F
  F44      1.0000 0.66040  0.73000  0.68119  Biso   1.000  F
  F45      1.0000 0.05310  0.66410  0.15860  Biso   1.000  F
  F46      1.0000 0.44690  0.16410  0.34140  Biso   1.000  F
  F47      1.0000 0.94690  0.33590  0.84140  Biso   1.000  F
  F48      1.0000 0.55310  0.83590  0.65860  Biso   1.000  F
  O21      1.0000 0.24830  0.61071  0.23934  Biso   1.000  O
  O22      1.0000 0.25170  0.11071  0.26066  Biso   1.000  O
  O23      1.0000 0.75170  0.38929  0.76066  Biso   1.000  O
  O24      1.0000 0.74830  0.88929  0.73934  Biso   1.000  O
  O25      1.0000 0.20200  0.92370  0.30550  Biso   1.000  O
  O26      1.0000 0.29800  0.42370  0.19450  Biso   1.000  O
  O27      1.0000 0.79800  0.07630  0.69450  Biso   1.000  O
  O28      1.0000 0.70200  0.57630  0.80550  Biso   1.000  O
  N1       1.0000 0.27660  0.86700  0.32830  Biso   1.000  N
  N2       1.0000 0.22340  0.36700  0.17170  Biso   1.000  N
  N3       1.0000 0.72340  0.13300  0.67170  Biso   1.000  N
  N4       1.0000 0.77660  0.63300  0.82830  Biso   1.000  N
  C57      1.0000 0.45820  0.79940  0.35120  Biso   1.000  C
  C58      1.0000 0.04180  0.29940  0.14880  Biso   1.000  C
  C59      1.0000 0.54180  0.20060  0.64880  Biso   1.000  C
  C60      1.0000 0.95820  0.70060  0.85120  Biso   1.000  C
  C61      1.0000 0.48510  0.76550  0.27590  Biso   1.000  C
  C62      1.0000 0.01490  0.26550  0.22410  Biso   1.000  C
  C63      1.0000 0.51490  0.23450  0.72410  Biso   1.000  C
  C64      1.0000 0.98510  0.73450  0.77590  Biso   1.000  C
  H17      1.0000 0.55020  0.79620  0.26140  Biso   1.000  H
  H18      1.0000 0.94980  0.29620  0.23860  Biso   1.000  H
  H19      1.0000 0.44980  0.20380  0.73860  Biso   1.000  H
  H20      1.0000 0.05020  0.70380  0.76140  Biso   1.000  H
  H21      1.0000 0.41740  0.77310  0.24010  Biso   1.000  H
  H22      1.0000 0.08260  0.27310  0.25990  Biso   1.000  H
  H23      1.0000 0.58260  0.22690  0.75990  Biso   1.000  H
  H24      1.0000 0.91740  0.72690  0.74010  Biso   1.000  H
  H25      1.0000 0.50430  0.70620  0.28010  Biso   1.000  H
  H26      1.0000 0.99570  0.20620  0.21990  Biso   1.000  H
  H27      1.0000 0.49570  0.29380  0.71990  Biso   1.000  H
  H28      1.0000 0.00430  0.79380  0.78010  Biso   1.000  H
  C65      1.0000 0.56480  0.78300  0.40300  Biso   1.000  C
  C66      1.0000 0.93520  0.28300  0.09700  Biso   1.000  C
  C67      1.0000 0.43520  0.21700  0.59700  Biso   1.000  C
  C68      1.0000 0.06480  0.71700  0.90300  Biso   1.000  C
  H29      1.0000 0.55340  0.80310  0.45050  Biso   1.000  H
  H30      1.0000 0.94660  0.30310  0.04950  Biso   1.000  H
  H31      1.0000 0.44660  0.19690  0.54950  Biso   1.000  H
  H32      1.0000 0.05340  0.69690  0.95050  Biso   1.000  H
  H33      1.0000 0.63020  0.81200  0.38700  Biso   1.000  H
  H34      1.0000 0.86980  0.31200  0.11300  Biso   1.000  H
  H35      1.0000 0.36980  0.18800  0.61300  Biso   1.000  H
  H36      1.0000 0.13020  0.68800  0.88700  Biso   1.000  H
  H37      1.0000 0.58020  0.72310  0.40510  Biso   1.000  H
  H38      1.0000 0.91980  0.22310  0.09490  Biso   1.000  H
  H39      1.0000 0.41980  0.27690  0.59490  Biso   1.000  H
  H40      1.0000 0.08020  0.77690  0.90510  Biso   1.000  H
  C69      1.0000 0.40620  0.88590  0.34240  Biso   1.000  C
  C70      1.0000 0.09380  0.38590  0.15760  Biso   1.000  C
  C71      1.0000 0.59380  0.11410  0.65760  Biso   1.000  C
  C72      1.0000 0.90620  0.61410  0.84240  Biso   1.000  C
  C73      1.0000 0.42160  0.93360  0.41910  Biso   1.000  C
  C74      1.0000 0.07840  0.43360  0.08090  Biso   1.000  C
  C75      1.0000 0.57840  0.06640  0.58090  Biso   1.000  C
  C76      1.0000 0.92160  0.56640  0.91910  Biso   1.000  C
  H41      1.0000 0.50260  0.94850  0.43250  Biso   1.000  H
  H42      1.0000 0.99740  0.44850  0.06750  Biso   1.000  H
  H43      1.0000 0.49740  0.05150  0.56750  Biso   1.000  H
  H44      1.0000 0.00260  0.55150  0.93250  Biso   1.000  H
  H45      1.0000 0.39700  0.89680  0.45550  Biso   1.000  H
  H46      1.0000 0.10300  0.39680  0.04450  Biso   1.000  H
  H47      1.0000 0.60300  0.10320  0.54450  Biso   1.000  H
  H48      1.0000 0.89700  0.60320  0.95550  Biso   1.000  H
  H49      1.0000 0.37440  0.98410  0.41540  Biso   1.000  H
  H50      1.0000 0.12560  0.48410  0.08460  Biso   1.000  H
  H51      1.0000 0.62560  0.01590  0.58460  Biso   1.000  H
  H52      1.0000 0.87440  0.51590  0.91540  Biso   1.000  H
  C77      1.0000 0.44470  0.94420  0.28720  Biso   1.000  C
  C78      1.0000 0.05530  0.44420  0.21280  Biso   1.000  C
  C79      1.0000 0.55530  0.05580  0.71280  Biso   1.000  C
  C80      1.0000 0.94470  0.55580  0.78720  Biso   1.000  C
  H53      1.0000 0.43680  0.91640  0.24070  Biso   1.000  H
  H54      1.0000 0.06320  0.41640  0.25930  Biso   1.000  H
  H55      1.0000 0.56320  0.08360  0.75930  Biso   1.000  H
  H56      1.0000 0.93680  0.58360  0.74070  Biso   1.000  H
  H57      1.0000 0.52540  0.95960  0.30150  Biso   1.000  H
  H58      1.0000 0.97460  0.45960  0.19850  Biso   1.000  H
  H59      1.0000 0.47460  0.04040  0.69850  Biso   1.000  H
  H60      1.0000 0.02540  0.54040  0.80150  Biso   1.000  H
  H61      1.0000 0.39700  0.99440  0.28390  Biso   1.000  H
  H62      1.0000 0.10300  0.49440  0.21610  Biso   1.000  H
  H63      1.0000 0.60300  0.00560  0.71610  Biso   1.000  H
  H64      1.0000 0.89700  0.50560  0.78390  Biso   1.000  H
  N5       1.0000 0.35570  0.74780  0.36980  Biso   1.000  N
  N6       1.0000 0.14430  0.24780  0.13020  Biso   1.000  N
  N7       1.0000 0.64430  0.25220  0.63020  Biso   1.000  N
  N8       1.0000 0.85570  0.75220  0.86980  Biso   1.000  N
  O29      1.0000 0.37080  0.67150  0.39310  Biso   1.000  O
  O30      1.0000 0.12920  0.17150  0.10690  Biso   1.000  O
  O31      1.0000 0.62920  0.32850  0.60690  Biso   1.000  O
  O32      1.0000 0.87080  0.82850  0.89310  Biso   1.000  O
  C81      1.0000 0.25190  0.78830  0.35040  Biso   1.000  C
  C82      1.0000 0.24810  0.28830  0.14960  Biso   1.000  C
  C83      1.0000 0.74810  0.21170  0.64960  Biso   1.000  C
  C84      1.0000 0.75190  0.71170  0.85040  Biso   1.000  C
  C85      1.0000 0.13410  0.75310  0.35030  Biso   1.000  C
  C86      1.0000 0.36590  0.25310  0.14970  Biso   1.000  C
  C87      1.0000 0.86590  0.24690  0.64970  Biso   1.000  C
  C88      1.0000 0.63410  0.74690  0.85030  Biso   1.000  C
  C89      1.0000 0.03380  0.80020  0.33140  Biso   1.000  C
  C90      1.0000 0.46620  0.30020  0.16860  Biso   1.000  C
  C91      1.0000 0.96620  0.19980  0.66860  Biso   1.000  C
  C92      1.0000 0.53380  0.69980  0.83140  Biso   1.000  C
  H65      1.0000 0.04060  0.85830  0.32390  Biso   1.000  H
  H66      1.0000 0.45940  0.35830  0.17610  Biso   1.000  H
  H67      1.0000 0.95940  0.14170  0.67610  Biso   1.000  H
  H68      1.0000 0.54060  0.64170  0.82390  Biso   1.000  H
  C93      1.0000 0.92500  0.76440  0.32340  Biso   1.000  C
  C94      1.0000 0.57500  0.26440  0.17660  Biso   1.000  C
  C95      1.0000 0.07500  0.23560  0.67660  Biso   1.000  C
  C96      1.0000 0.42500  0.73560  0.82340  Biso   1.000  C
  H69      1.0000 0.85890  0.79770  0.30960  Biso   1.000  H
  H70      1.0000 0.64110  0.29770  0.19040  Biso   1.000  H
  H71      1.0000 0.14110  0.20230  0.69040  Biso   1.000  H
  H72      1.0000 0.35890  0.70230  0.80960  Biso   1.000  H
  C97      1.0000 0.91300  0.67910  0.33550  Biso   1.000  C
  C98      1.0000 0.58700  0.17910  0.16450  Biso   1.000  C
  C99      1.0000 0.08700  0.32090  0.66450  Biso   1.000  C
  C100     1.0000 0.41300  0.82090  0.83550  Biso   1.000  C
  C101     1.0000 0.80030  0.63710  0.32100  Biso   1.000  C
  C102     1.0000 0.69970  0.13710  0.17900  Biso   1.000  C
  C103     1.0000 0.19970  0.36290  0.67900  Biso   1.000  C
  C104     1.0000 0.30030  0.86290  0.82100  Biso   1.000  C
  N9       1.0000 0.71380  0.60140  0.30840  Biso   1.000  N
  N10      1.0000 0.78620  0.10140  0.19160  Biso   1.000  N
  N11      1.0000 0.28620  0.39860  0.69160  Biso   1.000  N
  N12      1.0000 0.21380  0.89860  0.80840  Biso   1.000  N
  C105     1.0000 0.01080  0.63110  0.35910  Biso   1.000  C
  C106     1.0000 0.48920  0.13110  0.14090  Biso   1.000  C
  C107     1.0000 0.98920  0.36890  0.64090  Biso   1.000  C
  C108     1.0000 0.51080  0.86890  0.85910  Biso   1.000  C
  H73      1.0000 0.00330  0.57380  0.36960  Biso   1.000  H
  H74      1.0000 0.49670  0.07380  0.13040  Biso   1.000  H
  H75      1.0000 0.99670  0.42620  0.63040  Biso   1.000  H
  H76      1.0000 0.50330  0.92620  0.86960  Biso   1.000  H
  C109     1.0000 0.12010  0.66890  0.36690  Biso   1.000  C
  C110     1.0000 0.37990  0.16890  0.13310  Biso   1.000  C
  C111     1.0000 0.87990  0.33110  0.63310  Biso   1.000  C
  C112     1.0000 0.62010  0.83110  0.86690  Biso   1.000  C
  H77      1.0000 0.18590  0.63660  0.38390  Biso   1.000  H
  H78      1.0000 0.31410  0.13660  0.11610  Biso   1.000  H
  H79      1.0000 0.81410  0.36340  0.61610  Biso   1.000  H
  H80      1.0000 0.68590  0.86340  0.88390  Biso   1.000  H
