data_image0
_cell_length_a       10.406
_cell_length_b       11.555
_cell_length_c       16.89
_cell_angle_alpha    88.69
_cell_angle_beta     80.492
_cell_angle_gamma    78.645

_symmetry_space_group_name_H-M    "P 1"
_symmetry_int_tables_number       1

loop_
  _symmetry_equiv_pos_as_xyz
  'x, y, z'

loop_
  _atom_site_label
  _atom_site_occupancy
  _atom_site_fract_x
  _atom_site_fract_y
  _atom_site_fract_z
  _atom_site_thermal_displace_type
  _atom_site_B_iso_or_equiv
  _atom_site_type_symbol
  Cu1      1.0000 0.97598  0.37778  0.48332  Biso   1.000  Cu
  Cu2      1.0000 0.02402  0.62222  0.51668  Biso   1.000  Cu
  O1       1.0000 0.84640  0.46870  0.39110  Biso   1.000  O
  O2       1.0000 0.15360  0.53130  0.60890  Biso   1.000  O
  H1       1.0000 0.86370  0.54360  0.37900  Biso   1.000  H
  H2       1.0000 0.13630  0.45640  0.62100  Biso   1.000  H
  C1       1.0000 0.73610  0.44120  0.34190  Biso   1.000  C
  C2       1.0000 0.26390  0.55880  0.65810  Biso   1.000  C
  H3       1.0000 0.71470  0.50000  0.30170  Biso   1.000  H
  H4       1.0000 0.28530  0.50000  0.69830  Biso   1.000  H
  H5       1.0000 0.75770  0.36250  0.31840  Biso   1.000  H
  H6       1.0000 0.24230  0.63750  0.68160  Biso   1.000  H
  C3       1.0000 0.65920  0.45000  0.39690  Biso   1.000  C
  C4       1.0000 0.34080  0.55000  0.60310  Biso   1.000  C
  H7       1.0000 0.68180  0.49860  0.43570  Biso   1.000  H
  H8       1.0000 0.31820  0.50140  0.56430  Biso   1.000  H
  H9       1.0000 0.65510  0.37330  0.41910  Biso   1.000  H
  H10      1.0000 0.34490  0.62670  0.58090  Biso   1.000  H
  H11      1.0000 0.57430  0.48560  0.38340  Biso   1.000  H
  H12      1.0000 0.42570  0.51440  0.61660  Biso   1.000  H
  O3       1.0000 0.07780  0.25340  0.41482  Biso   1.000  O
  O4       1.0000 0.92220  0.74660  0.58518  Biso   1.000  O
  C5       1.0000 0.24990  0.14820  0.32410  Biso   1.000  C
  C6       1.0000 0.75010  0.85180  0.67590  Biso   1.000  C
  F1       1.0000 0.16600  0.09290  0.29888  Biso   1.000  F
  F2       1.0000 0.83400  0.90710  0.70112  Biso   1.000  F
  F3       1.0000 0.33820  0.16150  0.26196  Biso   1.000  F
  F4       1.0000 0.66180  0.83850  0.73804  Biso   1.000  F
  F5       1.0000 0.31440  0.07660  0.37153  Biso   1.000  F
  F6       1.0000 0.68560  0.92340  0.62847  Biso   1.000  F
  C7       1.0000 0.18280  0.26320  0.36730  Biso   1.000  C
  C8       1.0000 0.81720  0.73680  0.63270  Biso   1.000  C
  C9       1.0000 0.24340  0.35800  0.35280  Biso   1.000  C
  C10      1.0000 0.75660  0.64200  0.64720  Biso   1.000  C
  H13      1.0000 0.31860  0.34920  0.31350  Biso   1.000  H
  H14      1.0000 0.68140  0.65080  0.68650  Biso   1.000  H
  C11      1.0000 0.20120  0.46730  0.39260  Biso   1.000  C
  C12      1.0000 0.79880  0.53270  0.60740  Biso   1.000  C
  O5       1.0000 0.09720  0.48420  0.44822  Biso   1.000  O
  O6       1.0000 0.90280  0.51580  0.55178  Biso   1.000  O
  C13      1.0000 0.27130  0.55920  0.37290  Biso   1.000  C
  C14      1.0000 0.72870  0.44080  0.62710  Biso   1.000  C
  H15      1.0000 0.34350  0.54510  0.33150  Biso   1.000  H
  H16      1.0000 0.65650  0.45490  0.66850  Biso   1.000  H
  C15      1.0000 0.24230  0.66700  0.40960  Biso   1.000  C
  C16      1.0000 0.75770  0.33300  0.59040  Biso   1.000  C
  C17      1.0000 0.32950  0.75590  0.38030  Biso   1.000  C
  C18      1.0000 0.67050  0.24410  0.61970  Biso   1.000  C
  F7       1.0000 0.24060  0.84640  0.33810  Biso   1.000  F
  F8       1.0000 0.75940  0.15360  0.66190  Biso   1.000  F
  F9       1.0000 0.44650  0.70910  0.33650  Biso   1.000  F
  F10      1.0000 0.55350  0.29090  0.66350  Biso   1.000  F
  F11      1.0000 0.36210  0.81620  0.44380  Biso   1.000  F
  F12      1.0000 0.63790  0.18380  0.55620  Biso   1.000  F
  O7       1.0000 0.15040  0.70980  0.46650  Biso   1.000  O
  O8       1.0000 0.84960  0.29020  0.53350  Biso   1.000  O
  Cu3      1.0000 0.13951  0.00784  0.95897  Biso   1.000  Cu
  Cu4      1.0000 0.86049  0.99216  0.04103  Biso   1.000  Cu
  O9       1.0000 0.20880  0.99950  0.08065  Biso   1.000  O
  O10      1.0000 0.79120  0.00050  0.91935  Biso   1.000  O
  H17      1.0000 0.15660  0.02530  0.11000  Biso   1.000  H
  H18      1.0000 0.84340  0.97470  0.89000  Biso   1.000  H
  C19      1.0000 0.32820  0.03390  0.08850  Biso   1.000  C
  C20      1.0000 0.67180  0.96610  0.91150  Biso   1.000  C
  H19      1.0000 0.37260  0.05170  0.03580  Biso   1.000  H
  H20      1.0000 0.62740  0.94830  0.96420  Biso   1.000  H
  H21      1.0000 0.30820  0.10550  0.12080  Biso   1.000  H
  H22      1.0000 0.69180  0.89450  0.87920  Biso   1.000  H
  C21      1.0000 0.41750  0.94390  0.12530  Biso   1.000  C
  C22      1.0000 0.58250  0.05610  0.87470  Biso   1.000  C
  H23      1.0000 0.49770  0.97140  0.12870  Biso   1.000  H
  H24      1.0000 0.50230  0.02860  0.87130  Biso   1.000  H
  H25      1.0000 0.37530  0.92780  0.17820  Biso   1.000  H
  H26      1.0000 0.62470  0.07220  0.82180  Biso   1.000  H
  H27      1.0000 0.43860  0.87300  0.09330  Biso   1.000  H
  H28      1.0000 0.56140  0.12700  0.90670  Biso   1.000  H
  O11      1.0000 0.28570  0.89010  0.91211  Biso   1.000  O
  O12      1.0000 0.71430  0.10990  0.08789  Biso   1.000  O
  C23      1.0000 0.41620  0.70580  0.88070  Biso   1.000  C
  C24      1.0000 0.58380  0.29420  0.11930  Biso   1.000  C
  F13      1.0000 0.51590  0.74250  0.89430  Biso   1.000  F
  F14      1.0000 0.48410  0.25750  0.10570  Biso   1.000  F
  F15      1.0000 0.42710  0.59930  0.90720  Biso   1.000  F
  F16      1.0000 0.57290  0.40070  0.09280  Biso   1.000  F
  F17      1.0000 0.43050  0.70510  0.80410  Biso   1.000  F
  F18      1.0000 0.56950  0.29490  0.19590  Biso   1.000  F
  C25      1.0000 0.28490  0.78000  0.91800  Biso   1.000  C
  C26      1.0000 0.71510  0.22000  0.08200  Biso   1.000  C
  C27      1.0000 0.18680  0.72500  0.95160  Biso   1.000  C
  C28      1.0000 0.81320  0.27500  0.04840  Biso   1.000  C
  H29      1.0000 0.20560  0.64290  0.94960  Biso   1.000  H
  H30      1.0000 0.79440  0.35710  0.05040  Biso   1.000  H
  C29      1.0000 0.05870  0.77900  0.98930  Biso   1.000  C
  C30      1.0000 0.94130  0.22100  0.01070  Biso   1.000  C
  O13      1.0000 0.02740  0.89370  0.99346  Biso   1.000  O
  O14      1.0000 0.97260  0.10630  0.00654  Biso   1.000  O
  C31      1.0000 0.96560  0.71210  0.02280  Biso   1.000  C
  C32      1.0000 0.03440  0.28790  0.97720  Biso   1.000  C
  H31      1.0000 0.99150  0.63050  0.01800  Biso   1.000  H
  H32      1.0000 0.00850  0.36950  0.98200  Biso   1.000  H
  C33      1.0000 0.84040  0.75530  0.06200  Biso   1.000  C
  C34      1.0000 0.15960  0.24470  0.93800  Biso   1.000  C
  C35      1.0000 0.75290  0.66830  0.09370  Biso   1.000  C
  C36      1.0000 0.24710  0.33170  0.90630  Biso   1.000  C
  F19      1.0000 0.82140  0.56070  0.09930  Biso   1.000  F
  F20      1.0000 0.17860  0.43930  0.90070  Biso   1.000  F
  F21      1.0000 0.66730  0.66900  0.04380  Biso   1.000  F
  F22      1.0000 0.33270  0.33100  0.95620  Biso   1.000  F
  F23      1.0000 0.69130  0.69710  0.16260  Biso   1.000  F
  F24      1.0000 0.30870  0.30290  0.83740  Biso   1.000  F
  O15      1.0000 0.78130  0.86090  0.07667  Biso   1.000  O
  O16      1.0000 0.21870  0.13910  0.92333  Biso   1.000  O
  O17      1.0000 0.10390  0.30260  0.60933  Biso   1.000  O
  O18      1.0000 0.89610  0.69740  0.39067  Biso   1.000  O
  N1       1.0000 0.11200  0.20980  0.65260  Biso   1.000  N
  N2       1.0000 0.88800  0.79020  0.34740  Biso   1.000  N
  C37      1.0000 0.18680  0.09200  0.61890  Biso   1.000  C
  C38      1.0000 0.81320  0.90800  0.38110  Biso   1.000  C
  C39      1.0000 0.31380  0.10430  0.56610  Biso   1.000  C
  C40      1.0000 0.68620  0.89570  0.43390  Biso   1.000  C
  H33      1.0000 0.37070  0.13220  0.59740  Biso   1.000  H
  H34      1.0000 0.62930  0.86780  0.40260  Biso   1.000  H
  H35      1.0000 0.29480  0.15960  0.52430  Biso   1.000  H
  H36      1.0000 0.70520  0.84040  0.47570  Biso   1.000  H
  H37      1.0000 0.35750  0.02890  0.54260  Biso   1.000  H
  H38      1.0000 0.64250  0.97110  0.45740  Biso   1.000  H
  C41      1.0000 0.09520  0.04680  0.56870  Biso   1.000  C
  C42      1.0000 0.90480  0.95320  0.43130  Biso   1.000  C
  H39      1.0000 0.09080  0.09250  0.52070  Biso   1.000  H
  H40      1.0000 0.90920  0.90750  0.47930  Biso   1.000  H
  H41      1.0000 0.00770  0.05440  0.59950  Biso   1.000  H
  H42      1.0000 0.99230  0.94560  0.40050  Biso   1.000  H
  H43      1.0000 0.13020  0.96530  0.55460  Biso   1.000  H
  H44      1.0000 0.86980  0.03470  0.44540  Biso   1.000  H
  C43      1.0000 0.19700  0.02170  0.69690  Biso   1.000  C
  C44      1.0000 0.80300  0.97830  0.30310  Biso   1.000  C
  C45      1.0000 0.32150  0.03630  0.73160  Biso   1.000  C
  C46      1.0000 0.67850  0.96370  0.26840  Biso   1.000  C
  H45      1.0000 0.32570  0.99170  0.78010  Biso   1.000  H
  H46      1.0000 0.67430  0.00830  0.21990  Biso   1.000  H
  H47      1.0000 0.31640  0.11820  0.74320  Biso   1.000  H
  H48      1.0000 0.68360  0.88180  0.25680  Biso   1.000  H
  H49      1.0000 0.39970  0.00820  0.69310  Biso   1.000  H
  H50      1.0000 0.60030  0.99180  0.30690  Biso   1.000  H
  C47      1.0000 0.18990  0.89450  0.69480  Biso   1.000  C
  C48      1.0000 0.81010  0.10550  0.30520  Biso   1.000  C
  H51      1.0000 0.11230  0.88580  0.67350  Biso   1.000  H
  H52      1.0000 0.88770  0.11420  0.32650  Biso   1.000  H
  H53      1.0000 0.18510  0.86350  0.74820  Biso   1.000  H
  H54      1.0000 0.81490  0.13650  0.25180  Biso   1.000  H
  H55      1.0000 0.26780  0.85200  0.66130  Biso   1.000  H
  H56      1.0000 0.73220  0.14800  0.33870  Biso   1.000  H
  N3       1.0000 0.08160  0.08970  0.75200  Biso   1.000  N
  N4       1.0000 0.91840  0.91030  0.24800  Biso   1.000  N
  O19      1.0000 0.03520  0.04960  0.81960  Biso   1.000  O
  O20      1.0000 0.96480  0.95040  0.18040  Biso   1.000  O
  C49      1.0000 0.04470  0.20070  0.72650  Biso   1.000  C
  C50      1.0000 0.95530  0.79930  0.27350  Biso   1.000  C
  C51      1.0000 0.95050  0.29460  0.77140  Biso   1.000  C
  C52      1.0000 0.04950  0.70540  0.22860  Biso   1.000  C
  C53      1.0000 0.97710  0.40720  0.77130  Biso   1.000  C
  C54      1.0000 0.02290  0.59280  0.22870  Biso   1.000  C
  H57      1.0000 0.05510  0.42260  0.74130  Biso   1.000  H
  H58      1.0000 0.94490  0.57740  0.25870  Biso   1.000  H
  C55      1.0000 0.88920  0.49630  0.81490  Biso   1.000  C
  C56      1.0000 0.11080  0.50370  0.18510  Biso   1.000  C
  C57      1.0000 0.92000  0.61210  0.81670  Biso   1.000  C
  C58      1.0000 0.08000  0.38790  0.18330  Biso   1.000  C
  N5       1.0000 0.94400  0.70280  0.81890  Biso   1.000  N
  N6       1.0000 0.05600  0.29720  0.18110  Biso   1.000  N
  C59      1.0000 0.77260  0.47500  0.85800  Biso   1.000  C
  C60      1.0000 0.22740  0.52500  0.14200  Biso   1.000  C
  H59      1.0000 0.71290  0.53540  0.88760  Biso   1.000  H
  H60      1.0000 0.28710  0.46460  0.11240  Biso   1.000  H
  C61      1.0000 0.74460  0.36440  0.85720  Biso   1.000  C
  C62      1.0000 0.25540  0.63560  0.14280  Biso   1.000  C
  H61      1.0000 0.66460  0.35000  0.88540  Biso   1.000  H
  H62      1.0000 0.33540  0.65000  0.11460  Biso   1.000  H
  C63      1.0000 0.83350  0.27440  0.81530  Biso   1.000  C
  C64      1.0000 0.16650  0.72560  0.18470  Biso   1.000  C
  H63      1.0000 0.81460  0.19890  0.81640  Biso   1.000  H
  H64      1.0000 0.18540  0.80110  0.18360  Biso   1.000  H
  F25      1.0000 0.80660  0.55780  0.07710  Biso   1.000  F
  F26      1.0000 0.19340  0.44220  0.92290  Biso   1.000  F
  F27      1.0000 0.64130  0.68210  0.07130  Biso   1.000  F
  F28      1.0000 0.35870  0.31790  0.92870  Biso   1.000  F
  F29      1.0000 0.71670  0.67460  0.17530  Biso   1.000  F
  F30      1.0000 0.28330  0.32540  0.82470  Biso   1.000  F
  F31      1.0000 0.72010  0.15720  0.64500  Biso   1.000  F
  F32      1.0000 0.27990  0.84280  0.35500  Biso   1.000  F
  F33      1.0000 0.58610  0.27580  0.68450  Biso   1.000  F
  F34      1.0000 0.41390  0.72420  0.31550  Biso   1.000  F
  F35      1.0000 0.61780  0.21600  0.57050  Biso   1.000  F
  F36      1.0000 0.38220  0.78400  0.42950  Biso   1.000  F
  F37      1.0000 0.48930  0.28120  0.08010  Biso   1.000  F
  F38      1.0000 0.51070  0.71880  0.91990  Biso   1.000  F
  F39      1.0000 0.57920  0.40690  0.12780  Biso   1.000  F
  F40      1.0000 0.42080  0.59310  0.87220  Biso   1.000  F
  F41      1.0000 0.54980  0.26390  0.19450  Biso   1.000  F
  F42      1.0000 0.45020  0.73610  0.80550  Biso   1.000  F
