data_image0
_cell_length_a       20.454
_cell_length_b       8.1842
_cell_length_c       18.934
_cell_angle_alpha    90
_cell_angle_beta     109.939
_cell_angle_gamma    90

_symmetry_space_group_name_H-M    "P 1"
_symmetry_int_tables_number       1

loop_
  _symmetry_equiv_pos_as_xyz
  'x, y, z'

loop_
  _atom_site_label
  _atom_site_occupancy
  _atom_site_fract_x
  _atom_site_fract_y
  _atom_site_fract_z
  _atom_site_thermal_displace_type
  _atom_site_B_iso_or_equiv
  _atom_site_type_symbol
  Cu1      1.0000 0.99918  0.15265  0.45344  Biso   1.000  Cu
  Cu2      1.0000 0.00082  0.15265  0.04656  Biso   1.000  Cu
  Cu3      1.0000 0.49918  0.65265  0.45344  Biso   1.000  Cu
  Cu4      1.0000 0.50082  0.65265  0.04656  Biso   1.000  Cu
  Cu5      1.0000 0.00082  0.84735  0.54656  Biso   1.000  Cu
  Cu6      1.0000 0.99918  0.84735  0.95344  Biso   1.000  Cu
  Cu7      1.0000 0.50082  0.34735  0.54656  Biso   1.000  Cu
  Cu8      1.0000 0.49918  0.34735  0.95344  Biso   1.000  Cu
  O1       1.0000 0.92548  0.26040  0.37828  Biso   1.000  O
  O2       1.0000 0.07452  0.26040  0.12172  Biso   1.000  O
  O3       1.0000 0.42548  0.76040  0.37828  Biso   1.000  O
  O4       1.0000 0.57452  0.76040  0.12172  Biso   1.000  O
  O5       1.0000 0.07452  0.73960  0.62172  Biso   1.000  O
  O6       1.0000 0.92548  0.73960  0.87828  Biso   1.000  O
  O7       1.0000 0.57452  0.23960  0.62172  Biso   1.000  O
  O8       1.0000 0.42548  0.23960  0.87828  Biso   1.000  O
  F1       1.0000 0.82920  0.30730  0.23050  Biso   1.000  F
  F2       1.0000 0.17080  0.30730  0.26950  Biso   1.000  F
  F3       1.0000 0.32920  0.80730  0.23050  Biso   1.000  F
  F4       1.0000 0.67080  0.80730  0.26950  Biso   1.000  F
  F5       1.0000 0.17080  0.69270  0.76950  Biso   1.000  F
  F6       1.0000 0.82920  0.69270  0.73050  Biso   1.000  F
  F7       1.0000 0.67080  0.19270  0.76950  Biso   1.000  F
  F8       1.0000 0.32920  0.19270  0.73050  Biso   1.000  F
  F9       1.0000 0.82450  0.46430  0.30840  Biso   1.000  F
  F10      1.0000 0.17550  0.46430  0.19160  Biso   1.000  F
  F11      1.0000 0.32450  0.96430  0.30840  Biso   1.000  F
  F12      1.0000 0.67550  0.96430  0.19160  Biso   1.000  F
  F13      1.0000 0.17550  0.53570  0.69160  Biso   1.000  F
  F14      1.0000 0.82450  0.53570  0.80840  Biso   1.000  F
  F15      1.0000 0.67550  0.03570  0.69160  Biso   1.000  F
  F16      1.0000 0.32450  0.03570  0.80840  Biso   1.000  F
  F17      1.0000 0.74978  0.27870  0.27300  Biso   1.000  F
  F18      1.0000 0.25022  0.27870  0.22700  Biso   1.000  F
  F19      1.0000 0.24978  0.77870  0.27300  Biso   1.000  F
  F20      1.0000 0.75022  0.77870  0.22700  Biso   1.000  F
  F21      1.0000 0.25022  0.72130  0.72700  Biso   1.000  F
  F22      1.0000 0.74978  0.72130  0.77300  Biso   1.000  F
  F23      1.0000 0.75022  0.22130  0.72700  Biso   1.000  F
  F24      1.0000 0.24978  0.22130  0.77300  Biso   1.000  F
  C1       1.0000 0.81490  0.31190  0.29200  Biso   1.000  C
  C2       1.0000 0.18510  0.31190  0.20800  Biso   1.000  C
  C3       1.0000 0.31490  0.81190  0.29200  Biso   1.000  C
  C4       1.0000 0.68510  0.81190  0.20800  Biso   1.000  C
  C5       1.0000 0.18510  0.68810  0.70800  Biso   1.000  C
  C6       1.0000 0.81490  0.68810  0.79200  Biso   1.000  C
  C7       1.0000 0.68510  0.18810  0.70800  Biso   1.000  C
  C8       1.0000 0.31490  0.18810  0.79200  Biso   1.000  C
  C9       1.0000 0.86352  0.20260  0.35280  Biso   1.000  C
  C10      1.0000 0.13648  0.20260  0.14720  Biso   1.000  C
  C11      1.0000 0.36352  0.70260  0.35280  Biso   1.000  C
  C12      1.0000 0.63648  0.70260  0.14720  Biso   1.000  C
  C13      1.0000 0.13648  0.79740  0.64720  Biso   1.000  C
  C14      1.0000 0.86352  0.79740  0.85280  Biso   1.000  C
  C15      1.0000 0.63648  0.29740  0.64720  Biso   1.000  C
  C16      1.0000 0.36352  0.29740  0.85280  Biso   1.000  C
  C17      1.0000 0.83637  0.06270  0.37010  Biso   1.000  C
  C18      1.0000 0.16363  0.06270  0.12990  Biso   1.000  C
  C19      1.0000 0.33637  0.56270  0.37010  Biso   1.000  C
  C20      1.0000 0.66363  0.56270  0.12990  Biso   1.000  C
  C21      1.0000 0.16363  0.93730  0.62990  Biso   1.000  C
  C22      1.0000 0.83637  0.93730  0.87010  Biso   1.000  C
  C23      1.0000 0.66363  0.43730  0.62990  Biso   1.000  C
  C24      1.0000 0.33637  0.43730  0.87010  Biso   1.000  C
  H1       1.0000 0.78960  0.04140  0.34430  Biso   1.000  H
  H2       1.0000 0.21040  0.04140  0.15570  Biso   1.000  H
  H3       1.0000 0.28960  0.54140  0.34430  Biso   1.000  H
  H4       1.0000 0.71040  0.54140  0.15570  Biso   1.000  H
  H5       1.0000 0.21040  0.95860  0.65570  Biso   1.000  H
  H6       1.0000 0.78960  0.95860  0.84430  Biso   1.000  H
  H7       1.0000 0.71040  0.45860  0.65570  Biso   1.000  H
  H8       1.0000 0.28960  0.45860  0.84430  Biso   1.000  H
  C25      1.0000 0.87402  0.94660  0.42468  Biso   1.000  C
  C26      1.0000 0.12598  0.94660  0.07532  Biso   1.000  C
  C27      1.0000 0.37402  0.44660  0.42468  Biso   1.000  C
  C28      1.0000 0.62598  0.44660  0.07532  Biso   1.000  C
  C29      1.0000 0.12598  0.05340  0.57532  Biso   1.000  C
  C30      1.0000 0.87402  0.05340  0.92468  Biso   1.000  C
  C31      1.0000 0.62598  0.55340  0.57532  Biso   1.000  C
  C32      1.0000 0.37402  0.55340  0.92468  Biso   1.000  C
  O9       1.0000 0.93996  0.97060  0.46112  Biso   1.000  O
  O10      1.0000 0.06004  0.97060  0.03888  Biso   1.000  O
  O11      1.0000 0.43996  0.47060  0.46112  Biso   1.000  O
  O12      1.0000 0.56004  0.47060  0.03888  Biso   1.000  O
  O13      1.0000 0.06004  0.02940  0.53888  Biso   1.000  O
  O14      1.0000 0.93996  0.02940  0.96112  Biso   1.000  O
  O15      1.0000 0.56004  0.52940  0.53888  Biso   1.000  O
  O16      1.0000 0.43996  0.52940  0.96112  Biso   1.000  O
  C33      1.0000 0.84099  0.80640  0.43940  Biso   1.000  C
  C34      1.0000 0.15901  0.80640  0.06060  Biso   1.000  C
  C35      1.0000 0.34099  0.30640  0.43940  Biso   1.000  C
  C36      1.0000 0.65901  0.30640  0.06060  Biso   1.000  C
  C37      1.0000 0.15901  0.19360  0.56060  Biso   1.000  C
  C38      1.0000 0.84099  0.19360  0.93940  Biso   1.000  C
  C39      1.0000 0.65901  0.69360  0.56060  Biso   1.000  C
  C40      1.0000 0.34099  0.69360  0.93940  Biso   1.000  C
  H9       1.0000 0.79380  0.79430  0.41270  Biso   1.000  H
  H10      1.0000 0.20620  0.79430  0.08730  Biso   1.000  H
  H11      1.0000 0.29380  0.29430  0.41270  Biso   1.000  H
  H12      1.0000 0.70620  0.29430  0.08730  Biso   1.000  H
  H13      1.0000 0.20620  0.20570  0.58730  Biso   1.000  H
  H14      1.0000 0.79380  0.20570  0.91270  Biso   1.000  H
  H15      1.0000 0.70620  0.70570  0.58730  Biso   1.000  H
  H16      1.0000 0.29380  0.70570  0.91270  Biso   1.000  H
  C41      1.0000 0.87270  0.68610  0.48990  Biso   1.000  C
  C42      1.0000 0.12730  0.68610  0.01010  Biso   1.000  C
  C43      1.0000 0.37270  0.18610  0.48990  Biso   1.000  C
  C44      1.0000 0.62730  0.18610  0.01010  Biso   1.000  C
  C45      1.0000 0.12730  0.31390  0.51010  Biso   1.000  C
  C46      1.0000 0.87270  0.31390  0.98990  Biso   1.000  C
  C47      1.0000 0.62730  0.81390  0.51010  Biso   1.000  C
  C48      1.0000 0.37270  0.81390  0.98990  Biso   1.000  C
  C49      1.0000 0.82840  0.54550  0.50110  Biso   1.000  C
  C50      1.0000 0.17160  0.54550  0.99890  Biso   1.000  C
  C51      1.0000 0.32840  0.04550  0.50110  Biso   1.000  C
  C52      1.0000 0.67160  0.04550  0.99890  Biso   1.000  C
  C53      1.0000 0.17160  0.45450  0.49890  Biso   1.000  C
  C54      1.0000 0.82840  0.45450  0.00110  Biso   1.000  C
  C55      1.0000 0.67160  0.95450  0.49890  Biso   1.000  C
  C56      1.0000 0.32840  0.95450  0.00110  Biso   1.000  C
  F25      1.0000 0.76213  0.55030  0.45429  Biso   1.000  F
  F26      1.0000 0.23787  0.55030  0.04571  Biso   1.000  F
  F27      1.0000 0.26213  0.05030  0.45429  Biso   1.000  F
  F28      1.0000 0.73787  0.05030  0.04571  Biso   1.000  F
  F29      1.0000 0.23787  0.44970  0.54571  Biso   1.000  F
  F30      1.0000 0.76213  0.44970  0.95429  Biso   1.000  F
  F31      1.0000 0.73787  0.94970  0.54571  Biso   1.000  F
  F32      1.0000 0.26213  0.94970  0.95429  Biso   1.000  F
  F33      1.0000 0.85445  0.40110  0.49346  Biso   1.000  F
  F34      1.0000 0.14555  0.40110  0.00654  Biso   1.000  F
  F35      1.0000 0.35445  0.90110  0.49346  Biso   1.000  F
  F36      1.0000 0.64555  0.90110  0.00654  Biso   1.000  F
  F37      1.0000 0.14555  0.59890  0.50654  Biso   1.000  F
  F38      1.0000 0.85445  0.59890  0.99346  Biso   1.000  F
  F39      1.0000 0.64555  0.09890  0.50654  Biso   1.000  F
  F40      1.0000 0.35445  0.09890  0.99346  Biso   1.000  F
  F41      1.0000 0.82515  0.54800  0.57003  Biso   1.000  F
  F42      1.0000 0.17485  0.54800  0.92997  Biso   1.000  F
  F43      1.0000 0.32515  0.04800  0.57003  Biso   1.000  F
  F44      1.0000 0.67485  0.04800  0.92997  Biso   1.000  F
  F45      1.0000 0.17485  0.45200  0.42997  Biso   1.000  F
  F46      1.0000 0.82515  0.45200  0.07003  Biso   1.000  F
  F47      1.0000 0.67485  0.95200  0.42997  Biso   1.000  F
  F48      1.0000 0.32515  0.95200  0.07003  Biso   1.000  F
  O17      1.0000 0.93564  0.67240  0.53274  Biso   1.000  O
  O18      1.0000 0.06436  0.67240  0.96726  Biso   1.000  O
  O19      1.0000 0.43564  0.17240  0.53274  Biso   1.000  O
  O20      1.0000 0.56436  0.17240  0.96726  Biso   1.000  O
  O21      1.0000 0.06436  0.32760  0.46726  Biso   1.000  O
  O22      1.0000 0.93564  0.32760  0.03274  Biso   1.000  O
  O23      1.0000 0.56436  0.82760  0.46726  Biso   1.000  O
  O24      1.0000 0.43564  0.82760  0.03274  Biso   1.000  O
  O25      1.0000 0.04766  0.01540  0.37907  Biso   1.000  O
  O26      1.0000 0.95234  0.01540  0.12093  Biso   1.000  O
  O27      1.0000 0.54766  0.51540  0.37907  Biso   1.000  O
  O28      1.0000 0.45234  0.51540  0.12093  Biso   1.000  O
  O29      1.0000 0.95234  0.98460  0.62093  Biso   1.000  O
  O30      1.0000 0.04766  0.98460  0.87907  Biso   1.000  O
  O31      1.0000 0.45234  0.48460  0.62093  Biso   1.000  O
  O32      1.0000 0.54766  0.48460  0.87907  Biso   1.000  O
  N1       1.0000 0.02146  0.96580  0.31068  Biso   1.000  N
  N2       1.0000 0.97854  0.96580  0.18932  Biso   1.000  N
  N3       1.0000 0.52146  0.46580  0.31068  Biso   1.000  N
  N4       1.0000 0.47854  0.46580  0.18932  Biso   1.000  N
  N5       1.0000 0.97854  0.03420  0.68932  Biso   1.000  N
  N6       1.0000 0.02146  0.03420  0.81068  Biso   1.000  N
  N7       1.0000 0.47854  0.53420  0.68932  Biso   1.000  N
  N8       1.0000 0.52146  0.53420  0.81068  Biso   1.000  N
  C57      1.0000 0.02410  0.78910  0.29140  Biso   1.000  C
  C58      1.0000 0.97590  0.78910  0.20860  Biso   1.000  C
  C59      1.0000 0.52410  0.28910  0.29140  Biso   1.000  C
  C60      1.0000 0.47590  0.28910  0.20860  Biso   1.000  C
  C61      1.0000 0.97590  0.21090  0.70860  Biso   1.000  C
  C62      1.0000 0.02410  0.21090  0.79140  Biso   1.000  C
  C63      1.0000 0.47590  0.71090  0.70860  Biso   1.000  C
  C64      1.0000 0.52410  0.71090  0.79140  Biso   1.000  C
  C65      1.0000 0.00010  0.68450  0.34560  Biso   1.000  C
  C66      1.0000 0.99990  0.68450  0.15440  Biso   1.000  C
  C67      1.0000 0.50010  0.18450  0.34560  Biso   1.000  C
  C68      1.0000 0.49990  0.18450  0.15440  Biso   1.000  C
  C69      1.0000 0.99990  0.31550  0.65440  Biso   1.000  C
  C70      1.0000 0.00010  0.31550  0.84560  Biso   1.000  C
  C71      1.0000 0.49990  0.81550  0.65440  Biso   1.000  C
  C72      1.0000 0.50010  0.81550  0.84560  Biso   1.000  C
  H17      1.0000 0.03360  0.69280  0.39540  Biso   1.000  H
  H18      1.0000 0.96640  0.69280  0.10460  Biso   1.000  H
  H19      1.0000 0.53360  0.19280  0.39540  Biso   1.000  H
  H20      1.0000 0.46640  0.19280  0.10460  Biso   1.000  H
  H21      1.0000 0.96640  0.30720  0.60460  Biso   1.000  H
  H22      1.0000 0.03360  0.30720  0.89540  Biso   1.000  H
  H23      1.0000 0.46640  0.80720  0.60460  Biso   1.000  H
  H24      1.0000 0.53360  0.80720  0.89540  Biso   1.000  H
  H25      1.0000 0.99610  0.57250  0.32960  Biso   1.000  H
  H26      1.0000 0.00390  0.57250  0.17040  Biso   1.000  H
  H27      1.0000 0.49610  0.07250  0.32960  Biso   1.000  H
  H28      1.0000 0.50390  0.07250  0.17040  Biso   1.000  H
  H29      1.0000 0.00390  0.42750  0.67040  Biso   1.000  H
  H30      1.0000 0.99610  0.42750  0.82960  Biso   1.000  H
  H31      1.0000 0.50390  0.92750  0.67040  Biso   1.000  H
  H32      1.0000 0.49610  0.92750  0.82960  Biso   1.000  H
  H33      1.0000 0.95580  0.72300  0.34560  Biso   1.000  H
  H34      1.0000 0.04420  0.72300  0.15440  Biso   1.000  H
  H35      1.0000 0.45580  0.22300  0.34560  Biso   1.000  H
  H36      1.0000 0.54420  0.22300  0.15440  Biso   1.000  H
  H37      1.0000 0.04420  0.27700  0.65440  Biso   1.000  H
  H38      1.0000 0.95580  0.27700  0.84560  Biso   1.000  H
  H39      1.0000 0.54420  0.77700  0.65440  Biso   1.000  H
  H40      1.0000 0.45580  0.77700  0.84560  Biso   1.000  H
  C73      1.0000 0.10050  0.75590  0.30310  Biso   1.000  C
  C74      1.0000 0.89950  0.75590  0.19690  Biso   1.000  C
  C75      1.0000 0.60050  0.25590  0.30310  Biso   1.000  C
  C76      1.0000 0.39950  0.25590  0.19690  Biso   1.000  C
  C77      1.0000 0.89950  0.24410  0.69690  Biso   1.000  C
  C78      1.0000 0.10050  0.24410  0.80310  Biso   1.000  C
  C79      1.0000 0.39950  0.74410  0.69690  Biso   1.000  C
  C80      1.0000 0.60050  0.74410  0.80310  Biso   1.000  C
  H41      1.0000 0.12700  0.75810  0.35580  Biso   1.000  H
  H42      1.0000 0.87300  0.75810  0.14420  Biso   1.000  H
  H43      1.0000 0.62700  0.25810  0.35580  Biso   1.000  H
  H44      1.0000 0.37300  0.25810  0.14420  Biso   1.000  H
  H45      1.0000 0.87300  0.24190  0.64420  Biso   1.000  H
  H46      1.0000 0.12700  0.24190  0.85580  Biso   1.000  H
  H47      1.0000 0.37300  0.74190  0.64420  Biso   1.000  H
  H48      1.0000 0.62700  0.74190  0.85580  Biso   1.000  H
  H49      1.0000 0.11770  0.83830  0.27780  Biso   1.000  H
  H50      1.0000 0.88230  0.83830  0.22220  Biso   1.000  H
  H51      1.0000 0.61770  0.33830  0.27780  Biso   1.000  H
  H52      1.0000 0.38230  0.33830  0.22220  Biso   1.000  H
  H53      1.0000 0.88230  0.16170  0.72220  Biso   1.000  H
  H54      1.0000 0.11770  0.16170  0.77780  Biso   1.000  H
  H55      1.0000 0.38230  0.66170  0.72220  Biso   1.000  H
  H56      1.0000 0.61770  0.66170  0.77780  Biso   1.000  H
  H57      1.0000 0.10500  0.65050  0.28300  Biso   1.000  H
  H58      1.0000 0.89500  0.65050  0.21700  Biso   1.000  H
  H59      1.0000 0.60500  0.15050  0.28300  Biso   1.000  H
  H60      1.0000 0.39500  0.15050  0.21700  Biso   1.000  H
  H61      1.0000 0.89500  0.34950  0.71700  Biso   1.000  H
  H62      1.0000 0.10500  0.34950  0.78300  Biso   1.000  H
  H63      1.0000 0.39500  0.84950  0.71700  Biso   1.000  H
  H64      1.0000 0.60500  0.84950  0.78300  Biso   1.000  H
  C81      1.0000 0.00000  0.05990  0.25000  Biso   1.000  C
  C82      1.0000 0.50000  0.55990  0.25000  Biso   1.000  C
  C83      1.0000 0.00000  0.94010  0.75000  Biso   1.000  C
  C84      1.0000 0.50000  0.44010  0.75000  Biso   1.000  C
  C85      1.0000 0.00000  0.24180  0.25000  Biso   1.000  C
  C86      1.0000 0.50000  0.74180  0.25000  Biso   1.000  C
  C87      1.0000 0.00000  0.75820  0.75000  Biso   1.000  C
  C88      1.0000 0.50000  0.25820  0.75000  Biso   1.000  C
  H65      1.0000 0.98190  0.28090  0.19920  Biso   1.000  H
  H66      1.0000 0.01810  0.28090  0.30080  Biso   1.000  H
  H67      1.0000 0.48190  0.78090  0.19920  Biso   1.000  H
  H68      1.0000 0.51810  0.78090  0.30080  Biso   1.000  H
  H69      1.0000 0.01810  0.71910  0.80080  Biso   1.000  H
  H70      1.0000 0.98190  0.71910  0.69920  Biso   1.000  H
  H71      1.0000 0.51810  0.21910  0.80080  Biso   1.000  H
  H72      1.0000 0.48190  0.21910  0.69920  Biso   1.000  H
  H73      1.0000 0.04670  0.28090  0.27340  Biso   1.000  H
  H74      1.0000 0.95330  0.28090  0.22660  Biso   1.000  H
  H75      1.0000 0.54670  0.78090  0.27340  Biso   1.000  H
  H76      1.0000 0.45330  0.78090  0.22660  Biso   1.000  H
  H77      1.0000 0.95330  0.71910  0.72660  Biso   1.000  H
  H78      1.0000 0.04670  0.71910  0.77340  Biso   1.000  H
  H79      1.0000 0.45330  0.21910  0.72660  Biso   1.000  H
  H80      1.0000 0.54670  0.21910  0.77340  Biso   1.000  H
  H81      1.0000 0.97140  0.28090  0.27740  Biso   1.000  H
  H82      1.0000 0.02860  0.28090  0.22260  Biso   1.000  H
  H83      1.0000 0.47140  0.78090  0.27740  Biso   1.000  H
  H84      1.0000 0.52860  0.78090  0.22260  Biso   1.000  H
  H85      1.0000 0.02860  0.71910  0.72260  Biso   1.000  H
  H86      1.0000 0.97140  0.71910  0.77740  Biso   1.000  H
  H87      1.0000 0.52860  0.21910  0.72260  Biso   1.000  H
  H88      1.0000 0.47140  0.21910  0.77740  Biso   1.000  H
