data_image0
_cell_length_a       8.7745
_cell_length_b       18.613
_cell_length_c       24.644
_cell_angle_alpha    90
_cell_angle_beta     90
_cell_angle_gamma    90

_symmetry_space_group_name_H-M    "P 1"
_symmetry_int_tables_number       1

loop_
  _symmetry_equiv_pos_as_xyz
  'x, y, z'

loop_
  _atom_site_label
  _atom_site_occupancy
  _atom_site_fract_x
  _atom_site_fract_y
  _atom_site_fract_z
  _atom_site_thermal_displace_type
  _atom_site_B_iso_or_equiv
  _atom_site_type_symbol
  Cu1      1.0000 0.29869  0.88184  0.82949  Biso   1.000  Cu
  Cu2      1.0000 0.20131  0.11816  0.32949  Biso   1.000  Cu
  Cu3      1.0000 0.79869  0.61816  0.17051  Biso   1.000  Cu
  Cu4      1.0000 0.70131  0.38184  0.67051  Biso   1.000  Cu
  Cu5      1.0000 0.70131  0.11816  0.17051  Biso   1.000  Cu
  Cu6      1.0000 0.79869  0.88184  0.67051  Biso   1.000  Cu
  Cu7      1.0000 0.20131  0.38184  0.82949  Biso   1.000  Cu
  Cu8      1.0000 0.29869  0.61816  0.32949  Biso   1.000  Cu
  O1       1.0000 0.05830  0.39858  0.88745  Biso   1.000  O
  O2       1.0000 0.44170  0.60142  0.38745  Biso   1.000  O
  O3       1.0000 0.55830  0.10142  0.11255  Biso   1.000  O
  O4       1.0000 0.94170  0.89858  0.61255  Biso   1.000  O
  O5       1.0000 0.94170  0.60142  0.11255  Biso   1.000  O
  O6       1.0000 0.55830  0.39858  0.61255  Biso   1.000  O
  O7       1.0000 0.44170  0.89858  0.88745  Biso   1.000  O
  O8       1.0000 0.05830  0.10142  0.38745  Biso   1.000  O
  O9       1.0000 0.37070  0.37435  0.77846  Biso   1.000  O
  O10      1.0000 0.12930  0.62565  0.27846  Biso   1.000  O
  O11      1.0000 0.87070  0.12565  0.22154  Biso   1.000  O
  O12      1.0000 0.62930  0.87435  0.72154  Biso   1.000  O
  O13      1.0000 0.62930  0.62565  0.22154  Biso   1.000  O
  O14      1.0000 0.87070  0.37435  0.72154  Biso   1.000  O
  O15      1.0000 0.12930  0.87435  0.77846  Biso   1.000  O
  O16      1.0000 0.37070  0.12565  0.27846  Biso   1.000  O
  O17      1.0000 0.54790  0.32205  0.73055  Biso   1.000  O
  O18      1.0000 0.95210  0.67795  0.23055  Biso   1.000  O
  O19      1.0000 0.04790  0.17795  0.26945  Biso   1.000  O
  O20      1.0000 0.45210  0.82205  0.76945  Biso   1.000  O
  O21      1.0000 0.45210  0.67795  0.26945  Biso   1.000  O
  O22      1.0000 0.04790  0.32205  0.76945  Biso   1.000  O
  O23      1.0000 0.95210  0.82205  0.73055  Biso   1.000  O
  O24      1.0000 0.54790  0.17795  0.23055  Biso   1.000  O
  O25      1.0000 0.15320  0.01883  0.85298  Biso   1.000  O
  O26      1.0000 0.34680  0.98117  0.35298  Biso   1.000  O
  O27      1.0000 0.65320  0.48117  0.14702  Biso   1.000  O
  O28      1.0000 0.84680  0.51883  0.64702  Biso   1.000  O
  O29      1.0000 0.84680  0.98117  0.14702  Biso   1.000  O
  O30      1.0000 0.65320  0.01883  0.64702  Biso   1.000  O
  O31      1.0000 0.34680  0.51883  0.85298  Biso   1.000  O
  O32      1.0000 0.15320  0.48117  0.35298  Biso   1.000  O
  H1       1.0000 0.14080  0.05530  0.87330  Biso   1.000  H
  H2       1.0000 0.35920  0.94470  0.37330  Biso   1.000  H
  H3       1.0000 0.64080  0.44470  0.12670  Biso   1.000  H
  H4       1.0000 0.85920  0.55530  0.62670  Biso   1.000  H
  H5       1.0000 0.85920  0.94470  0.12670  Biso   1.000  H
  H6       1.0000 0.64080  0.05530  0.62670  Biso   1.000  H
  H7       1.0000 0.35920  0.55530  0.87330  Biso   1.000  H
  H8       1.0000 0.14080  0.44470  0.37330  Biso   1.000  H
  O33      1.0000 0.34160  0.97877  0.80147  Biso   1.000  O
  O34      1.0000 0.15840  0.02123  0.30147  Biso   1.000  O
  O35      1.0000 0.84160  0.52123  0.19853  Biso   1.000  O
  O36      1.0000 0.65840  0.47877  0.69853  Biso   1.000  O
  O37      1.0000 0.65840  0.02123  0.19853  Biso   1.000  O
  O38      1.0000 0.84160  0.97877  0.69853  Biso   1.000  O
  O39      1.0000 0.15840  0.47877  0.80147  Biso   1.000  O
  O40      1.0000 0.34160  0.52123  0.30147  Biso   1.000  O
  N1       1.0000 0.25950  0.29067  0.86329  Biso   1.000  N
  N2       1.0000 0.24050  0.70933  0.36329  Biso   1.000  N
  N3       1.0000 0.75950  0.20933  0.13671  Biso   1.000  N
  N4       1.0000 0.74050  0.79067  0.63671  Biso   1.000  N
  N5       1.0000 0.74050  0.70933  0.13671  Biso   1.000  N
  N6       1.0000 0.75950  0.29067  0.63671  Biso   1.000  N
  N7       1.0000 0.24050  0.79067  0.86329  Biso   1.000  N
  N8       1.0000 0.25950  0.20933  0.36329  Biso   1.000  N
  C1       1.0000 0.08190  0.38061  0.93717  Biso   1.000  C
  C2       1.0000 0.41810  0.61939  0.43717  Biso   1.000  C
  C3       1.0000 0.58190  0.11939  0.06283  Biso   1.000  C
  C4       1.0000 0.91810  0.88061  0.56283  Biso   1.000  C
  C5       1.0000 0.91810  0.61939  0.06283  Biso   1.000  C
  C6       1.0000 0.58190  0.38061  0.56283  Biso   1.000  C
  C7       1.0000 0.41810  0.88061  0.93717  Biso   1.000  C
  C8       1.0000 0.08190  0.11939  0.43717  Biso   1.000  C
  C9       1.0000 0.98460  0.41271  0.97753  Biso   1.000  C
  C10      1.0000 0.51540  0.58729  0.47753  Biso   1.000  C
  C11      1.0000 0.48460  0.08729  0.02247  Biso   1.000  C
  C12      1.0000 0.01540  0.91271  0.52247  Biso   1.000  C
  C13      1.0000 0.01540  0.58729  0.02247  Biso   1.000  C
  C14      1.0000 0.48460  0.41271  0.52247  Biso   1.000  C
  C15      1.0000 0.51540  0.91271  0.97753  Biso   1.000  C
  C16      1.0000 0.98460  0.08729  0.47753  Biso   1.000  C
  H9       1.0000 0.90840  0.44420  0.96650  Biso   1.000  H
  H10      1.0000 0.59160  0.55580  0.46650  Biso   1.000  H
  H11      1.0000 0.40840  0.05580  0.03350  Biso   1.000  H
  H12      1.0000 0.09160  0.94420  0.53350  Biso   1.000  H
  H13      1.0000 0.09160  0.55580  0.03350  Biso   1.000  H
  H14      1.0000 0.40840  0.44420  0.53350  Biso   1.000  H
  H15      1.0000 0.59160  0.94420  0.96650  Biso   1.000  H
  H16      1.0000 0.90840  0.05580  0.46650  Biso   1.000  H
  C17      1.0000 0.00110  0.39823  0.03094  Biso   1.000  C
  C18      1.0000 0.49890  0.60177  0.53094  Biso   1.000  C
  C19      1.0000 0.50110  0.10177  0.96906  Biso   1.000  C
  C20      1.0000 0.99890  0.89823  0.46906  Biso   1.000  C
  C21      1.0000 0.99890  0.60177  0.96906  Biso   1.000  C
  C22      1.0000 0.50110  0.39823  0.46906  Biso   1.000  C
  C23      1.0000 0.49890  0.89823  0.03094  Biso   1.000  C
  C24      1.0000 0.00110  0.10177  0.53094  Biso   1.000  C
  H17      1.0000 0.93480  0.41920  0.05580  Biso   1.000  H
  H18      1.0000 0.56520  0.58080  0.55580  Biso   1.000  H
  H19      1.0000 0.43480  0.08080  0.94420  Biso   1.000  H
  H20      1.0000 0.06520  0.91920  0.44420  Biso   1.000  H
  H21      1.0000 0.06520  0.58080  0.94420  Biso   1.000  H
  H22      1.0000 0.43480  0.41920  0.44420  Biso   1.000  H
  H23      1.0000 0.56520  0.91920  0.05580  Biso   1.000  H
  H24      1.0000 0.93480  0.08080  0.55580  Biso   1.000  H
  C25      1.0000 0.11850  0.35136  0.05013  Biso   1.000  C
  C26      1.0000 0.38150  0.64864  0.55013  Biso   1.000  C
  C27      1.0000 0.61850  0.14864  0.94987  Biso   1.000  C
  C28      1.0000 0.88150  0.85136  0.44987  Biso   1.000  C
  C29      1.0000 0.88150  0.64864  0.94987  Biso   1.000  C
  C30      1.0000 0.61850  0.35136  0.44987  Biso   1.000  C
  C31      1.0000 0.38150  0.85136  0.05013  Biso   1.000  C
  C32      1.0000 0.11850  0.14864  0.55013  Biso   1.000  C
  C33      1.0000 0.14090  0.34039  0.10625  Biso   1.000  C
  C34      1.0000 0.35910  0.65961  0.60625  Biso   1.000  C
  C35      1.0000 0.64090  0.15961  0.89375  Biso   1.000  C
  C36      1.0000 0.85910  0.84039  0.39375  Biso   1.000  C
  C37      1.0000 0.85910  0.65961  0.89375  Biso   1.000  C
  C38      1.0000 0.64090  0.34039  0.39375  Biso   1.000  C
  C39      1.0000 0.35910  0.84039  0.10625  Biso   1.000  C
  C40      1.0000 0.14090  0.15961  0.60625  Biso   1.000  C
  H25      1.0000 0.07560  0.36250  0.13090  Biso   1.000  H
  H26      1.0000 0.42440  0.63750  0.63090  Biso   1.000  H
  H27      1.0000 0.57560  0.13750  0.86910  Biso   1.000  H
  H28      1.0000 0.92440  0.86250  0.36910  Biso   1.000  H
  H29      1.0000 0.92440  0.63750  0.86910  Biso   1.000  H
  H30      1.0000 0.57560  0.36250  0.36910  Biso   1.000  H
  H31      1.0000 0.42440  0.86250  0.13090  Biso   1.000  H
  H32      1.0000 0.07560  0.13750  0.63090  Biso   1.000  H
  C41      1.0000 0.25560  0.29820  0.12510  Biso   1.000  C
  C42      1.0000 0.24440  0.70180  0.62510  Biso   1.000  C
  C43      1.0000 0.75560  0.20180  0.87490  Biso   1.000  C
  C44      1.0000 0.74440  0.79820  0.37490  Biso   1.000  C
  C45      1.0000 0.74440  0.70180  0.87490  Biso   1.000  C
  C46      1.0000 0.75560  0.29820  0.37490  Biso   1.000  C
  C47      1.0000 0.24440  0.79820  0.12510  Biso   1.000  C
  C48      1.0000 0.25560  0.20180  0.62510  Biso   1.000  C
  H33      1.0000 0.26830  0.29110  0.16220  Biso   1.000  H
  H34      1.0000 0.23170  0.70890  0.66220  Biso   1.000  H
  H35      1.0000 0.76830  0.20890  0.83780  Biso   1.000  H
  H36      1.0000 0.73170  0.79110  0.33780  Biso   1.000  H
  H37      1.0000 0.73170  0.70890  0.83780  Biso   1.000  H
  H38      1.0000 0.76830  0.29110  0.33780  Biso   1.000  H
  H39      1.0000 0.23170  0.79110  0.16220  Biso   1.000  H
  H40      1.0000 0.26830  0.20890  0.66220  Biso   1.000  H
  C49      1.0000 0.35490  0.26540  0.08776  Biso   1.000  C
  C50      1.0000 0.14510  0.73460  0.58776  Biso   1.000  C
  C51      1.0000 0.85490  0.23460  0.91224  Biso   1.000  C
  C52      1.0000 0.64510  0.76540  0.41224  Biso   1.000  C
  C53      1.0000 0.64510  0.73460  0.91224  Biso   1.000  C
  C54      1.0000 0.85490  0.26540  0.41224  Biso   1.000  C
  C55      1.0000 0.14510  0.76540  0.08776  Biso   1.000  C
  C56      1.0000 0.35490  0.23460  0.58776  Biso   1.000  C
  H41      1.0000 0.43540  0.23760  0.10040  Biso   1.000  H
  H42      1.0000 0.06460  0.76240  0.60040  Biso   1.000  H
  H43      1.0000 0.93540  0.26240  0.89960  Biso   1.000  H
  H44      1.0000 0.56460  0.73760  0.39960  Biso   1.000  H
  H45      1.0000 0.56460  0.76240  0.89960  Biso   1.000  H
  H46      1.0000 0.93540  0.23760  0.39960  Biso   1.000  H
  H47      1.0000 0.06460  0.73760  0.10040  Biso   1.000  H
  H48      1.0000 0.43540  0.26240  0.60040  Biso   1.000  H
  C57      1.0000 0.33430  0.27413  0.03267  Biso   1.000  C
  C58      1.0000 0.16570  0.72587  0.53267  Biso   1.000  C
  C59      1.0000 0.83430  0.22587  0.96733  Biso   1.000  C
  C60      1.0000 0.66570  0.77413  0.46733  Biso   1.000  C
  C61      1.0000 0.66570  0.72587  0.96733  Biso   1.000  C
  C62      1.0000 0.83430  0.27413  0.46733  Biso   1.000  C
  C63      1.0000 0.16570  0.77413  0.03267  Biso   1.000  C
  C64      1.0000 0.33430  0.22587  0.53267  Biso   1.000  C
  H49      1.0000 0.40050  0.25140  0.00870  Biso   1.000  H
  H50      1.0000 0.09950  0.74860  0.50870  Biso   1.000  H
  H51      1.0000 0.90050  0.24860  0.99130  Biso   1.000  H
  H52      1.0000 0.59950  0.75140  0.49130  Biso   1.000  H
  H53      1.0000 0.59950  0.74860  0.99130  Biso   1.000  H
  H54      1.0000 0.90050  0.25140  0.49130  Biso   1.000  H
  H55      1.0000 0.09950  0.75140  0.00870  Biso   1.000  H
  H56      1.0000 0.40050  0.24860  0.50870  Biso   1.000  H
  C65      1.0000 0.21510  0.31675  0.01189  Biso   1.000  C
  C66      1.0000 0.28490  0.68325  0.51189  Biso   1.000  C
  C67      1.0000 0.71510  0.18325  0.98811  Biso   1.000  C
  C68      1.0000 0.78490  0.81675  0.48811  Biso   1.000  C
  C69      1.0000 0.78490  0.68325  0.98811  Biso   1.000  C
  C70      1.0000 0.71510  0.31675  0.48811  Biso   1.000  C
  C71      1.0000 0.28490  0.81675  0.01189  Biso   1.000  C
  C72      1.0000 0.21510  0.18325  0.51189  Biso   1.000  C
  C73      1.0000 0.19050  0.32871  0.95453  Biso   1.000  C
  C74      1.0000 0.30950  0.67129  0.45453  Biso   1.000  C
  C75      1.0000 0.69050  0.17129  0.04547  Biso   1.000  C
  C76      1.0000 0.80950  0.82871  0.54547  Biso   1.000  C
  C77      1.0000 0.80950  0.67129  0.04547  Biso   1.000  C
  C78      1.0000 0.69050  0.32871  0.54547  Biso   1.000  C
  C79      1.0000 0.30950  0.82871  0.95453  Biso   1.000  C
  C80      1.0000 0.19050  0.17129  0.45453  Biso   1.000  C
  C81      1.0000 0.25930  0.28185  0.91585  Biso   1.000  C
  C82      1.0000 0.24070  0.71815  0.41585  Biso   1.000  C
  C83      1.0000 0.75930  0.21815  0.08415  Biso   1.000  C
  C84      1.0000 0.74070  0.78185  0.58415  Biso   1.000  C
  C85      1.0000 0.74070  0.71815  0.08415  Biso   1.000  C
  C86      1.0000 0.75930  0.28185  0.58415  Biso   1.000  C
  C87      1.0000 0.24070  0.78185  0.91585  Biso   1.000  C
  C88      1.0000 0.25930  0.21815  0.41585  Biso   1.000  C
  H57      1.0000 0.30850  0.24130  0.92930  Biso   1.000  H
  H58      1.0000 0.19150  0.75870  0.42930  Biso   1.000  H
  H59      1.0000 0.80850  0.25870  0.07070  Biso   1.000  H
  H60      1.0000 0.69150  0.74130  0.57070  Biso   1.000  H
  H61      1.0000 0.69150  0.75870  0.07070  Biso   1.000  H
  H62      1.0000 0.80850  0.24130  0.57070  Biso   1.000  H
  H63      1.0000 0.19150  0.74130  0.92930  Biso   1.000  H
  H64      1.0000 0.30850  0.25870  0.42930  Biso   1.000  H
  C89      1.0000 0.44170  0.31904  0.76294  Biso   1.000  C
  C90      1.0000 0.05830  0.68096  0.26294  Biso   1.000  C
  C91      1.0000 0.94170  0.18096  0.23706  Biso   1.000  C
  C92      1.0000 0.55830  0.81904  0.73706  Biso   1.000  C
  C93      1.0000 0.55830  0.68096  0.23706  Biso   1.000  C
  C94      1.0000 0.94170  0.31904  0.73706  Biso   1.000  C
  C95      1.0000 0.05830  0.81904  0.76294  Biso   1.000  C
  C96      1.0000 0.44170  0.18096  0.26294  Biso   1.000  C
  C97      1.0000 0.30780  0.23263  0.83009  Biso   1.000  C
  C98      1.0000 0.19220  0.76737  0.33009  Biso   1.000  C
  C99      1.0000 0.80780  0.26737  0.16991  Biso   1.000  C
  C100     1.0000 0.69220  0.73263  0.66991  Biso   1.000  C
  C101     1.0000 0.69220  0.76737  0.16991  Biso   1.000  C
  C102     1.0000 0.80780  0.23263  0.66991  Biso   1.000  C
  C103     1.0000 0.19220  0.73263  0.83009  Biso   1.000  C
  C104     1.0000 0.30780  0.26737  0.33009  Biso   1.000  C
  C105     1.0000 0.39960  0.24549  0.78402  Biso   1.000  C
  C106     1.0000 0.10040  0.75451  0.28402  Biso   1.000  C
  C107     1.0000 0.89960  0.25451  0.21598  Biso   1.000  C
  C108     1.0000 0.60040  0.74549  0.71598  Biso   1.000  C
  C109     1.0000 0.60040  0.75451  0.21598  Biso   1.000  C
  C110     1.0000 0.89960  0.24549  0.71598  Biso   1.000  C
  C111     1.0000 0.10040  0.74549  0.78402  Biso   1.000  C
  C112     1.0000 0.39960  0.25451  0.28402  Biso   1.000  C
  C113     1.0000 0.45570  0.18676  0.75530  Biso   1.000  C
  C114     1.0000 0.04430  0.81324  0.25530  Biso   1.000  C
  C115     1.0000 0.95570  0.31324  0.24470  Biso   1.000  C
  C116     1.0000 0.54430  0.68676  0.74470  Biso   1.000  C
  C117     1.0000 0.54430  0.81324  0.24470  Biso   1.000  C
  C118     1.0000 0.95570  0.18676  0.74470  Biso   1.000  C
  C119     1.0000 0.04430  0.68676  0.75530  Biso   1.000  C
  C120     1.0000 0.45570  0.31324  0.25530  Biso   1.000  C
  H65      1.0000 0.52110  0.19460  0.72620  Biso   1.000  H
  H66      1.0000 0.97890  0.80540  0.22620  Biso   1.000  H
  H67      1.0000 0.02110  0.30540  0.27380  Biso   1.000  H
  H68      1.0000 0.47890  0.69460  0.77380  Biso   1.000  H
  H69      1.0000 0.47890  0.80540  0.27380  Biso   1.000  H
  H70      1.0000 0.02110  0.19460  0.77380  Biso   1.000  H
  H71      1.0000 0.97890  0.69460  0.72620  Biso   1.000  H
  H72      1.0000 0.52110  0.30540  0.22620  Biso   1.000  H
  C121     1.0000 0.41690  0.11696  0.76891  Biso   1.000  C
  C122     1.0000 0.08310  0.88304  0.26891  Biso   1.000  C
  C123     1.0000 0.91690  0.38304  0.23109  Biso   1.000  C
  C124     1.0000 0.58310  0.61696  0.73109  Biso   1.000  C
  C125     1.0000 0.58310  0.88304  0.23109  Biso   1.000  C
  C126     1.0000 0.91690  0.11696  0.73109  Biso   1.000  C
  C127     1.0000 0.08310  0.61696  0.76891  Biso   1.000  C
  C128     1.0000 0.41690  0.38304  0.26891  Biso   1.000  C
  H73      1.0000 0.45850  0.07860  0.74980  Biso   1.000  H
  H74      1.0000 0.04150  0.92140  0.24980  Biso   1.000  H
  H75      1.0000 0.95850  0.42140  0.25020  Biso   1.000  H
  H76      1.0000 0.54150  0.57860  0.75020  Biso   1.000  H
  H77      1.0000 0.54150  0.92140  0.25020  Biso   1.000  H
  H78      1.0000 0.95850  0.07860  0.75020  Biso   1.000  H
  H79      1.0000 0.04150  0.57860  0.74980  Biso   1.000  H
  H80      1.0000 0.45850  0.42140  0.24980  Biso   1.000  H
  C129     1.0000 0.31550  0.10435  0.81126  Biso   1.000  C
  C130     1.0000 0.18450  0.89565  0.31126  Biso   1.000  C
  C131     1.0000 0.81550  0.39565  0.18874  Biso   1.000  C
  C132     1.0000 0.68450  0.60435  0.68874  Biso   1.000  C
  C133     1.0000 0.68450  0.89565  0.18874  Biso   1.000  C
  C134     1.0000 0.81550  0.10435  0.68874  Biso   1.000  C
  C135     1.0000 0.18450  0.60435  0.81126  Biso   1.000  C
  C136     1.0000 0.31550  0.39565  0.31126  Biso   1.000  C
  C137     1.0000 0.26240  0.16212  0.84197  Biso   1.000  C
  C138     1.0000 0.23760  0.83788  0.34197  Biso   1.000  C
  C139     1.0000 0.76240  0.33788  0.15803  Biso   1.000  C
  C140     1.0000 0.73760  0.66212  0.65803  Biso   1.000  C
  C141     1.0000 0.73760  0.83788  0.15803  Biso   1.000  C
  C142     1.0000 0.76240  0.16212  0.65803  Biso   1.000  C
  C143     1.0000 0.23760  0.66212  0.84197  Biso   1.000  C
  C144     1.0000 0.26240  0.33788  0.34197  Biso   1.000  C
  H81      1.0000 0.19600  0.15380  0.87070  Biso   1.000  H
  H82      1.0000 0.30400  0.84620  0.37070  Biso   1.000  H
  H83      1.0000 0.69600  0.34620  0.12930  Biso   1.000  H
  H84      1.0000 0.80400  0.65380  0.62930  Biso   1.000  H
  H85      1.0000 0.80400  0.84620  0.12930  Biso   1.000  H
  H86      1.0000 0.69600  0.15380  0.62930  Biso   1.000  H
  H87      1.0000 0.30400  0.65380  0.87070  Biso   1.000  H
  H88      1.0000 0.19600  0.34620  0.37070  Biso   1.000  H
  C145     1.0000 0.26370  0.02860  0.82386  Biso   1.000  C
  C146     1.0000 0.23630  0.97140  0.32386  Biso   1.000  C
  C147     1.0000 0.76370  0.47140  0.17614  Biso   1.000  C
  C148     1.0000 0.73630  0.52860  0.67614  Biso   1.000  C
  C149     1.0000 0.73630  0.97140  0.17614  Biso   1.000  C
  C150     1.0000 0.76370  0.02860  0.67614  Biso   1.000  C
  C151     1.0000 0.23630  0.52860  0.82386  Biso   1.000  C
  C152     1.0000 0.26370  0.47140  0.32386  Biso   1.000  C
  C153     1.0000 0.82430  0.88390  0.85510  Biso   1.000  C
  C154     1.0000 0.67570  0.11610  0.35510  Biso   1.000  C
  C155     1.0000 0.32430  0.61610  0.14490  Biso   1.000  C
  C156     1.0000 0.17570  0.38390  0.64490  Biso   1.000  C
  C157     1.0000 0.17570  0.11610  0.14490  Biso   1.000  C
  C158     1.0000 0.32430  0.88390  0.64490  Biso   1.000  C
  C159     1.0000 0.67570  0.38390  0.85510  Biso   1.000  C
  C160     1.0000 0.82430  0.61610  0.35510  Biso   1.000  C
  H89      1.0000 0.89890  0.84820  0.84580  Biso   1.000  H
  H90      1.0000 0.60110  0.15180  0.34580  Biso   1.000  H
  H91      1.0000 0.39890  0.65180  0.15420  Biso   1.000  H
  H92      1.0000 0.10110  0.34820  0.65420  Biso   1.000  H
  H93      1.0000 0.10110  0.15180  0.15420  Biso   1.000  H
  H94      1.0000 0.39890  0.84820  0.65420  Biso   1.000  H
  H95      1.0000 0.60110  0.34820  0.84580  Biso   1.000  H
  H96      1.0000 0.89890  0.65180  0.34580  Biso   1.000  H
  H97      1.0000 0.72410  0.86360  0.85180  Biso   1.000  H
  H98      1.0000 0.77590  0.13640  0.35180  Biso   1.000  H
  H99      1.0000 0.22410  0.63640  0.14820  Biso   1.000  H
  H100     1.0000 0.27590  0.36360  0.64820  Biso   1.000  H
  H101     1.0000 0.27590  0.13640  0.14820  Biso   1.000  H
  H102     1.0000 0.22410  0.86360  0.64820  Biso   1.000  H
  H103     1.0000 0.77590  0.36360  0.85180  Biso   1.000  H
  H104     1.0000 0.72410  0.63640  0.35180  Biso   1.000  H
  H105     1.0000 0.84030  0.89940  0.89180  Biso   1.000  H
  H106     1.0000 0.65970  0.10060  0.39180  Biso   1.000  H
  H107     1.0000 0.34030  0.60060  0.10820  Biso   1.000  H
  H108     1.0000 0.15970  0.39940  0.60820  Biso   1.000  H
  H109     1.0000 0.15970  0.10060  0.10820  Biso   1.000  H
  H110     1.0000 0.34030  0.89940  0.60820  Biso   1.000  H
  H111     1.0000 0.65970  0.39940  0.89180  Biso   1.000  H
  H112     1.0000 0.84030  0.60060  0.39180  Biso   1.000  H
  C161     1.0000 0.83840  0.94390  0.81930  Biso   1.000  C
  C162     1.0000 0.66160  0.05610  0.31930  Biso   1.000  C
  C163     1.0000 0.33840  0.55610  0.18070  Biso   1.000  C
  C164     1.0000 0.16160  0.44390  0.68070  Biso   1.000  C
  C165     1.0000 0.16160  0.05610  0.18070  Biso   1.000  C
  C166     1.0000 0.33840  0.94390  0.68070  Biso   1.000  C
  C167     1.0000 0.66160  0.44390  0.81930  Biso   1.000  C
  C168     1.0000 0.83840  0.55610  0.31930  Biso   1.000  C
  H113     1.0000 0.94090  0.96300  0.82220  Biso   1.000  H
  H114     1.0000 0.55910  0.03700  0.32220  Biso   1.000  H
  H115     1.0000 0.44090  0.53700  0.17780  Biso   1.000  H
  H116     1.0000 0.05910  0.46300  0.67780  Biso   1.000  H
  H117     1.0000 0.05910  0.03700  0.17780  Biso   1.000  H
  H118     1.0000 0.44090  0.96300  0.67780  Biso   1.000  H
  H119     1.0000 0.55910  0.46300  0.82220  Biso   1.000  H
  H120     1.0000 0.94090  0.53700  0.32220  Biso   1.000  H
  H121     1.0000 0.82410  0.92750  0.78230  Biso   1.000  H
  H122     1.0000 0.67590  0.07250  0.28230  Biso   1.000  H
  H123     1.0000 0.32410  0.57250  0.21770  Biso   1.000  H
  H124     1.0000 0.17590  0.42750  0.71770  Biso   1.000  H
  H125     1.0000 0.17590  0.07250  0.21770  Biso   1.000  H
  H126     1.0000 0.32410  0.92750  0.71770  Biso   1.000  H
  H127     1.0000 0.67590  0.42750  0.78230  Biso   1.000  H
  H128     1.0000 0.82410  0.57250  0.28230  Biso   1.000  H
  O41      1.0000 0.73270  0.00000  0.83010  Biso   1.000  O
  O42      1.0000 0.76730  0.00000  0.33010  Biso   1.000  O
  O43      1.0000 0.23270  0.50000  0.16990  Biso   1.000  O
  O44      1.0000 0.26730  0.50000  0.66990  Biso   1.000  O
  O45      1.0000 0.26730  0.00000  0.16990  Biso   1.000  O
  O46      1.0000 0.23270  0.00000  0.66990  Biso   1.000  O
  O47      1.0000 0.76730  0.50000  0.83010  Biso   1.000  O
  O48      1.0000 0.73270  0.50000  0.33010  Biso   1.000  O
  H129     1.0000 0.74360  0.03210  0.80770  Biso   1.000  H
  H130     1.0000 0.75640  0.96790  0.30770  Biso   1.000  H
  H131     1.0000 0.24360  0.46790  0.19230  Biso   1.000  H
  H132     1.0000 0.25640  0.53210  0.69230  Biso   1.000  H
  H133     1.0000 0.25640  0.96790  0.19230  Biso   1.000  H
  H134     1.0000 0.24360  0.03210  0.69230  Biso   1.000  H
  H135     1.0000 0.75640  0.53210  0.80770  Biso   1.000  H
  H136     1.0000 0.74360  0.46790  0.30770  Biso   1.000  H
