data_image0
_cell_length_a       5.0936
_cell_length_b       9.832
_cell_length_c       12.8114
_cell_angle_alpha    73.952
_cell_angle_beta     78.679
_cell_angle_gamma    83.706

_symmetry_space_group_name_H-M    "P 1"
_symmetry_int_tables_number       1

loop_
  _symmetry_equiv_pos_as_xyz
  'x, y, z'

loop_
  _atom_site_label
  _atom_site_occupancy
  _atom_site_fract_x
  _atom_site_fract_y
  _atom_site_fract_z
  _atom_site_thermal_displace_type
  _atom_site_B_iso_or_equiv
  _atom_site_type_symbol
  Cu1      1.0000 0.95470  0.51350  0.88570  Biso   1.000  Cu
  Cu2      1.0000 0.04530  0.48650  0.11430  Biso   1.000  Cu
  Mg1      1.0000 0.50000  0.50000  0.50000  Biso   1.000  Mg
  N1       1.0000 0.19430  0.94650  0.18710  Biso   1.000  N
  N2       1.0000 0.80570  0.05350  0.81290  Biso   1.000  N
  O1       1.0000 0.83390  0.40930  0.03640  Biso   1.000  O
  O2       1.0000 0.16610  0.59070  0.96360  Biso   1.000  O
  O3       1.0000 0.94330  0.34920  0.24790  Biso   1.000  O
  O4       1.0000 0.05670  0.65080  0.75210  Biso   1.000  O
  O5       1.0000 0.75310  0.16500  0.36420  Biso   1.000  O
  O6       1.0000 0.24690  0.83500  0.63580  Biso   1.000  O
  O7       1.0000 0.68600  0.44420  0.83300  Biso   1.000  O
  O8       1.0000 0.31400  0.55580  0.16700  Biso   1.000  O
  O9       1.0000 0.30800  0.34550  0.84730  Biso   1.000  O
  O10      1.0000 0.69200  0.65450  0.15270  Biso   1.000  O
  O11      1.0000 0.21700  0.86650  0.27810  Biso   1.000  O
  O12      1.0000 0.78300  0.13350  0.72190  Biso   1.000  O
  O13      1.0000 0.05260  0.92570  0.12840  Biso   1.000  O
  O14      1.0000 0.94740  0.07430  0.87160  Biso   1.000  O
  O15      1.0000 0.72820  0.63800  0.37130  Biso   1.000  O
  O16      1.0000 0.27180  0.36200  0.62870  Biso   1.000  O
  H1       1.0000 0.71970  0.72090  0.38030  Biso   1.000  H
  H2       1.0000 0.28030  0.27910  0.61970  Biso   1.000  H
  H3       1.0000 0.72830  0.63380  0.30600  Biso   1.000  H
  H4       1.0000 0.27170  0.36620  0.69400  Biso   1.000  H
  O17      1.0000 0.68000  0.56000  0.60880  Biso   1.000  O
  O18      1.0000 0.32000  0.44000  0.39120  Biso   1.000  O
  H5       1.0000 0.84150  0.58360  0.59350  Biso   1.000  H
  H6       1.0000 0.15850  0.41640  0.40650  Biso   1.000  H
  H7       1.0000 0.66130  0.50390  0.67320  Biso   1.000  H
  H8       1.0000 0.33870  0.49610  0.32680  Biso   1.000  H
  O19      1.0000 0.80240  0.33780  0.49250  Biso   1.000  O
  O20      1.0000 0.19760  0.66220  0.50750  Biso   1.000  O
  H9       1.0000 0.77920  0.28100  0.45610  Biso   1.000  H
  H10      1.0000 0.22080  0.71900  0.54390  Biso   1.000  H
  H11      1.0000 0.83400  0.27970  0.55210  Biso   1.000  H
  H12      1.0000 0.16600  0.72030  0.44790  Biso   1.000  H
  O21      1.0000 0.73030  0.86890  0.45590  Biso   1.000  O
  O22      1.0000 0.26970  0.13110  0.54410  Biso   1.000  O
  H13      1.0000 0.61490  0.85610  0.51490  Biso   1.000  H
  H14      1.0000 0.38510  0.14390  0.48510  Biso   1.000  H
  H15      1.0000 0.75470  0.95630  0.42630  Biso   1.000  H
  H16      1.0000 0.24530  0.04370  0.57370  Biso   1.000  H
  C1       1.0000 0.79470  0.24570  0.26970  Biso   1.000  C
  C2       1.0000 0.20530  0.75430  0.73030  Biso   1.000  C
  C3       1.0000 0.50490  0.35870  0.88750  Biso   1.000  C
  C4       1.0000 0.49510  0.64130  0.11250  Biso   1.000  C
  C5       1.0000 0.67680  0.30130  0.07360  Biso   1.000  C
  C6       1.0000 0.32320  0.69870  0.92640  Biso   1.000  C
  C7       1.0000 0.65660  0.21760  0.18380  Biso   1.000  C
  C8       1.0000 0.34340  0.78240  0.81620  Biso   1.000  C
  C9       1.0000 0.49780  0.10160  0.21820  Biso   1.000  C
  C10      1.0000 0.50220  0.89840  0.78180  Biso   1.000  C
  H17      1.0000 0.48780  0.04390  0.28970  Biso   1.000  H
  H18      1.0000 0.51220  0.95610  0.71030  Biso   1.000  H
  C11      1.0000 0.35650  0.07140  0.14810  Biso   1.000  C
  C12      1.0000 0.64350  0.92860  0.85190  Biso   1.000  C
  C13      1.0000 0.35650  0.15540  0.04240  Biso   1.000  C
  C14      1.0000 0.64350  0.84460  0.95760  Biso   1.000  C
  H19      1.0000 0.25130  0.13510  0.99760  Biso   1.000  H
  H20      1.0000 0.74870  0.86490  0.00240  Biso   1.000  H
  C15      1.0000 0.51710  0.27170  0.00360  Biso   1.000  C
  C16      1.0000 0.48290  0.72830  0.99640  Biso   1.000  C
