data_image0
_cell_length_a       30.1892
_cell_length_b       30.1892
_cell_length_c       30.1892
_cell_angle_alpha    90
_cell_angle_beta     90
_cell_angle_gamma    90

_symmetry_space_group_name_H-M    "P 1"
_symmetry_int_tables_number       1

loop_
  _symmetry_equiv_pos_as_xyz
  'x, y, z'

loop_
  _atom_site_label
  _atom_site_occupancy
  _atom_site_fract_x
  _atom_site_fract_y
  _atom_site_fract_z
  _atom_site_thermal_displace_type
  _atom_site_B_iso_or_equiv
  _atom_site_type_symbol
  Cu1      1.0000 0.50000  0.50000  0.95673  Biso   1.000  Cu
  Cu2      1.0000 0.50000  0.50000  0.04327  Biso   1.000  Cu
  Cu3      1.0000 0.95673  0.50000  0.50000  Biso   1.000  Cu
  Cu4      1.0000 0.04327  0.50000  0.50000  Biso   1.000  Cu
  Cu5      1.0000 0.50000  0.95673  0.50000  Biso   1.000  Cu
  Cu6      1.0000 0.50000  0.04327  0.50000  Biso   1.000  Cu
  Cu7      1.0000 0.00000  0.00000  0.45673  Biso   1.000  Cu
  Cu8      1.0000 0.00000  0.00000  0.54327  Biso   1.000  Cu
  Cu9      1.0000 0.45673  0.00000  0.00000  Biso   1.000  Cu
  Cu10     1.0000 0.54327  0.00000  0.00000  Biso   1.000  Cu
  Cu11     1.0000 0.00000  0.45673  0.00000  Biso   1.000  Cu
  Cu12     1.0000 0.00000  0.54327  0.00000  Biso   1.000  Cu
  O1       1.0000 0.50000  0.50000  0.88358  Biso   1.000  O
  O2       1.0000 0.50000  0.50000  0.11642  Biso   1.000  O
  O3       1.0000 0.88358  0.50000  0.50000  Biso   1.000  O
  O4       1.0000 0.11642  0.50000  0.50000  Biso   1.000  O
  O5       1.0000 0.50000  0.88358  0.50000  Biso   1.000  O
  O6       1.0000 0.50000  0.11642  0.50000  Biso   1.000  O
  O7       1.0000 0.00000  0.00000  0.38358  Biso   1.000  O
  O8       1.0000 0.00000  0.00000  0.61642  Biso   1.000  O
  O9       1.0000 0.38358  0.00000  0.00000  Biso   1.000  O
  O10      1.0000 0.61642  0.00000  0.00000  Biso   1.000  O
  O11      1.0000 0.00000  0.38358  0.00000  Biso   1.000  O
  O12      1.0000 0.00000  0.61642  0.00000  Biso   1.000  O
  O13      1.0000 0.50089  0.56295  0.96252  Biso   1.000  O
  O14      1.0000 0.49911  0.43705  0.96252  Biso   1.000  O
  O15      1.0000 0.49911  0.56295  0.03748  Biso   1.000  O
  O16      1.0000 0.50089  0.43705  0.03748  Biso   1.000  O
  O17      1.0000 0.96252  0.50089  0.56295  Biso   1.000  O
  O18      1.0000 0.96252  0.49911  0.43705  Biso   1.000  O
  O19      1.0000 0.03748  0.49911  0.56295  Biso   1.000  O
  O20      1.0000 0.03748  0.50089  0.43705  Biso   1.000  O
  O21      1.0000 0.56295  0.96252  0.50089  Biso   1.000  O
  O22      1.0000 0.43705  0.96252  0.49911  Biso   1.000  O
  O23      1.0000 0.56295  0.03748  0.49911  Biso   1.000  O
  O24      1.0000 0.43705  0.03748  0.50089  Biso   1.000  O
  O25      1.0000 0.56295  0.50089  0.03748  Biso   1.000  O
  O26      1.0000 0.43705  0.49911  0.03748  Biso   1.000  O
  O27      1.0000 0.56295  0.49911  0.96252  Biso   1.000  O
  O28      1.0000 0.43705  0.50089  0.96252  Biso   1.000  O
  O29      1.0000 0.50089  0.96252  0.43705  Biso   1.000  O
  O30      1.0000 0.49911  0.96252  0.56295  Biso   1.000  O
  O31      1.0000 0.49911  0.03748  0.43705  Biso   1.000  O
  O32      1.0000 0.50089  0.03748  0.56295  Biso   1.000  O
  O33      1.0000 0.96252  0.56295  0.49911  Biso   1.000  O
  O34      1.0000 0.96252  0.43705  0.50089  Biso   1.000  O
  O35      1.0000 0.03748  0.56295  0.50089  Biso   1.000  O
  O36      1.0000 0.03748  0.43705  0.49911  Biso   1.000  O
  O37      1.0000 0.00089  0.06295  0.46252  Biso   1.000  O
  O38      1.0000 0.99911  0.93705  0.46252  Biso   1.000  O
  O39      1.0000 0.99911  0.06295  0.53748  Biso   1.000  O
  O40      1.0000 0.00089  0.93705  0.53748  Biso   1.000  O
  O41      1.0000 0.46252  0.00089  0.06295  Biso   1.000  O
  O42      1.0000 0.46252  0.99911  0.93705  Biso   1.000  O
  O43      1.0000 0.53748  0.99911  0.06295  Biso   1.000  O
  O44      1.0000 0.53748  0.00089  0.93705  Biso   1.000  O
  O45      1.0000 0.06295  0.46252  0.00089  Biso   1.000  O
  O46      1.0000 0.93705  0.46252  0.99911  Biso   1.000  O
  O47      1.0000 0.06295  0.53748  0.99911  Biso   1.000  O
  O48      1.0000 0.93705  0.53748  0.00089  Biso   1.000  O
  O49      1.0000 0.06295  0.00089  0.53748  Biso   1.000  O
  O50      1.0000 0.93705  0.99911  0.53748  Biso   1.000  O
  O51      1.0000 0.06295  0.99911  0.46252  Biso   1.000  O
  O52      1.0000 0.93705  0.00089  0.46252  Biso   1.000  O
  O53      1.0000 0.00089  0.46252  0.93705  Biso   1.000  O
  O54      1.0000 0.99911  0.46252  0.06295  Biso   1.000  O
  O55      1.0000 0.99911  0.53748  0.93705  Biso   1.000  O
  O56      1.0000 0.00089  0.53748  0.06295  Biso   1.000  O
  O57      1.0000 0.46252  0.06295  0.99911  Biso   1.000  O
  O58      1.0000 0.46252  0.93705  0.00089  Biso   1.000  O
  O59      1.0000 0.53748  0.06295  0.00089  Biso   1.000  O
  O60      1.0000 0.53748  0.93705  0.99911  Biso   1.000  O
  C1       1.0000 0.50000  0.58272  0.00000  Biso   1.000  C
  C2       1.0000 0.50000  0.41728  0.00000  Biso   1.000  C
  C3       1.0000 0.00000  0.50000  0.58272  Biso   1.000  C
  C4       1.0000 0.00000  0.50000  0.41728  Biso   1.000  C
  C5       1.0000 0.58272  0.00000  0.50000  Biso   1.000  C
  C6       1.0000 0.41728  0.00000  0.50000  Biso   1.000  C
  C7       1.0000 0.58272  0.50000  0.00000  Biso   1.000  C
  C8       1.0000 0.41728  0.50000  0.00000  Biso   1.000  C
  C9       1.0000 0.50000  0.00000  0.41728  Biso   1.000  C
  C10      1.0000 0.50000  0.00000  0.58272  Biso   1.000  C
  C11      1.0000 0.00000  0.58272  0.50000  Biso   1.000  C
  C12      1.0000 0.00000  0.41728  0.50000  Biso   1.000  C
  C13      1.0000 0.00000  0.08272  0.50000  Biso   1.000  C
  C14      1.0000 0.00000  0.91728  0.50000  Biso   1.000  C
  C15      1.0000 0.50000  0.00000  0.08272  Biso   1.000  C
  C16      1.0000 0.50000  0.00000  0.91728  Biso   1.000  C
  C17      1.0000 0.08272  0.50000  0.00000  Biso   1.000  C
  C18      1.0000 0.91728  0.50000  0.00000  Biso   1.000  C
  C19      1.0000 0.08272  0.00000  0.50000  Biso   1.000  C
  C20      1.0000 0.91728  0.00000  0.50000  Biso   1.000  C
  C21      1.0000 0.00000  0.50000  0.91728  Biso   1.000  C
  C22      1.0000 0.00000  0.50000  0.08272  Biso   1.000  C
  C23      1.0000 0.50000  0.08272  0.00000  Biso   1.000  C
  C24      1.0000 0.50000  0.91728  0.00000  Biso   1.000  C
  C25      1.0000 0.50000  0.63269  0.00000  Biso   1.000  C
  C26      1.0000 0.50000  0.36731  0.00000  Biso   1.000  C
  C27      1.0000 0.00000  0.50000  0.63269  Biso   1.000  C
  C28      1.0000 0.00000  0.50000  0.36731  Biso   1.000  C
  C29      1.0000 0.63269  0.00000  0.50000  Biso   1.000  C
  C30      1.0000 0.36731  0.00000  0.50000  Biso   1.000  C
  C31      1.0000 0.63269  0.50000  0.00000  Biso   1.000  C
  C32      1.0000 0.36731  0.50000  0.00000  Biso   1.000  C
  C33      1.0000 0.50000  0.00000  0.36731  Biso   1.000  C
  C34      1.0000 0.50000  0.00000  0.63269  Biso   1.000  C
  C35      1.0000 0.00000  0.63269  0.50000  Biso   1.000  C
  C36      1.0000 0.00000  0.36731  0.50000  Biso   1.000  C
  C37      1.0000 0.00000  0.13269  0.50000  Biso   1.000  C
  C38      1.0000 0.00000  0.86731  0.50000  Biso   1.000  C
  C39      1.0000 0.50000  0.00000  0.13269  Biso   1.000  C
  C40      1.0000 0.50000  0.00000  0.86731  Biso   1.000  C
  C41      1.0000 0.13269  0.50000  0.00000  Biso   1.000  C
  C42      1.0000 0.86731  0.50000  0.00000  Biso   1.000  C
  C43      1.0000 0.13269  0.00000  0.50000  Biso   1.000  C
  C44      1.0000 0.86731  0.00000  0.50000  Biso   1.000  C
  C45      1.0000 0.00000  0.50000  0.86731  Biso   1.000  C
  C46      1.0000 0.00000  0.50000  0.13269  Biso   1.000  C
  C47      1.0000 0.50000  0.13269  0.00000  Biso   1.000  C
  C48      1.0000 0.50000  0.86731  0.00000  Biso   1.000  C
  C49      1.0000 0.50231  0.65432  0.95935  Biso   1.000  C
  C50      1.0000 0.49769  0.34568  0.95935  Biso   1.000  C
  C51      1.0000 0.49769  0.65432  0.04065  Biso   1.000  C
  C52      1.0000 0.50231  0.34568  0.04065  Biso   1.000  C
  C53      1.0000 0.95935  0.50231  0.65432  Biso   1.000  C
  C54      1.0000 0.95935  0.49769  0.34568  Biso   1.000  C
  C55      1.0000 0.04065  0.49769  0.65432  Biso   1.000  C
  C56      1.0000 0.04065  0.50231  0.34568  Biso   1.000  C
  C57      1.0000 0.65432  0.95935  0.50231  Biso   1.000  C
  C58      1.0000 0.34568  0.95935  0.49769  Biso   1.000  C
  C59      1.0000 0.65432  0.04065  0.49769  Biso   1.000  C
  C60      1.0000 0.34568  0.04065  0.50231  Biso   1.000  C
  C61      1.0000 0.65432  0.50231  0.04065  Biso   1.000  C
  C62      1.0000 0.34568  0.49769  0.04065  Biso   1.000  C
  C63      1.0000 0.65432  0.49769  0.95935  Biso   1.000  C
  C64      1.0000 0.34568  0.50231  0.95935  Biso   1.000  C
  C65      1.0000 0.50231  0.95935  0.34568  Biso   1.000  C
  C66      1.0000 0.49769  0.95935  0.65432  Biso   1.000  C
  C67      1.0000 0.49769  0.04065  0.34568  Biso   1.000  C
  C68      1.0000 0.50231  0.04065  0.65432  Biso   1.000  C
  C69      1.0000 0.95935  0.65432  0.49769  Biso   1.000  C
  C70      1.0000 0.95935  0.34568  0.50231  Biso   1.000  C
  C71      1.0000 0.04065  0.65432  0.50231  Biso   1.000  C
  C72      1.0000 0.04065  0.34568  0.49769  Biso   1.000  C
  C73      1.0000 0.00231  0.15432  0.45935  Biso   1.000  C
  C74      1.0000 0.99769  0.84568  0.45935  Biso   1.000  C
  C75      1.0000 0.99769  0.15432  0.54065  Biso   1.000  C
  C76      1.0000 0.00231  0.84568  0.54065  Biso   1.000  C
  C77      1.0000 0.45935  0.00231  0.15432  Biso   1.000  C
  C78      1.0000 0.45935  0.99769  0.84568  Biso   1.000  C
  C79      1.0000 0.54065  0.99769  0.15432  Biso   1.000  C
  C80      1.0000 0.54065  0.00231  0.84568  Biso   1.000  C
  C81      1.0000 0.15432  0.45935  0.00231  Biso   1.000  C
  C82      1.0000 0.84568  0.45935  0.99769  Biso   1.000  C
  C83      1.0000 0.15432  0.54065  0.99769  Biso   1.000  C
  C84      1.0000 0.84568  0.54065  0.00231  Biso   1.000  C
  C85      1.0000 0.15432  0.00231  0.54065  Biso   1.000  C
  C86      1.0000 0.84568  0.99769  0.54065  Biso   1.000  C
  C87      1.0000 0.15432  0.99769  0.45935  Biso   1.000  C
  C88      1.0000 0.84568  0.00231  0.45935  Biso   1.000  C
  C89      1.0000 0.00231  0.45935  0.84568  Biso   1.000  C
  C90      1.0000 0.99769  0.45935  0.15432  Biso   1.000  C
  C91      1.0000 0.99769  0.54065  0.84568  Biso   1.000  C
  C92      1.0000 0.00231  0.54065  0.15432  Biso   1.000  C
  C93      1.0000 0.45935  0.15432  0.99769  Biso   1.000  C
  C94      1.0000 0.45935  0.84568  0.00231  Biso   1.000  C
  C95      1.0000 0.54065  0.15432  0.00231  Biso   1.000  C
  C96      1.0000 0.54065  0.84568  0.99769  Biso   1.000  C
  H1       1.0000 0.50380  0.63790  0.93330  Biso   1.000  H
  H2       1.0000 0.49620  0.36210  0.93330  Biso   1.000  H
  H3       1.0000 0.49620  0.63790  0.06670  Biso   1.000  H
  H4       1.0000 0.50380  0.36210  0.06670  Biso   1.000  H
  H5       1.0000 0.93330  0.50380  0.63790  Biso   1.000  H
  H6       1.0000 0.93330  0.49620  0.36210  Biso   1.000  H
  H7       1.0000 0.06670  0.49620  0.63790  Biso   1.000  H
  H8       1.0000 0.06670  0.50380  0.36210  Biso   1.000  H
  H9       1.0000 0.63790  0.93330  0.50380  Biso   1.000  H
  H10      1.0000 0.36210  0.93330  0.49620  Biso   1.000  H
  H11      1.0000 0.63790  0.06670  0.49620  Biso   1.000  H
  H12      1.0000 0.36210  0.06670  0.50380  Biso   1.000  H
  H13      1.0000 0.63790  0.50380  0.06670  Biso   1.000  H
  H14      1.0000 0.36210  0.49620  0.06670  Biso   1.000  H
  H15      1.0000 0.63790  0.49620  0.93330  Biso   1.000  H
  H16      1.0000 0.36210  0.50380  0.93330  Biso   1.000  H
  H17      1.0000 0.50380  0.93330  0.36210  Biso   1.000  H
  H18      1.0000 0.49620  0.93330  0.63790  Biso   1.000  H
  H19      1.0000 0.49620  0.06670  0.36210  Biso   1.000  H
  H20      1.0000 0.50380  0.06670  0.63790  Biso   1.000  H
  H21      1.0000 0.93330  0.63790  0.49620  Biso   1.000  H
  H22      1.0000 0.93330  0.36210  0.50380  Biso   1.000  H
  H23      1.0000 0.06670  0.63790  0.50380  Biso   1.000  H
  H24      1.0000 0.06670  0.36210  0.49620  Biso   1.000  H
  H25      1.0000 0.00380  0.13790  0.43330  Biso   1.000  H
  H26      1.0000 0.99620  0.86210  0.43330  Biso   1.000  H
  H27      1.0000 0.99620  0.13790  0.56670  Biso   1.000  H
  H28      1.0000 0.00380  0.86210  0.56670  Biso   1.000  H
  H29      1.0000 0.43330  0.00380  0.13790  Biso   1.000  H
  H30      1.0000 0.43330  0.99620  0.86210  Biso   1.000  H
  H31      1.0000 0.56670  0.99620  0.13790  Biso   1.000  H
  H32      1.0000 0.56670  0.00380  0.86210  Biso   1.000  H
  H33      1.0000 0.13790  0.43330  0.00380  Biso   1.000  H
  H34      1.0000 0.86210  0.43330  0.99620  Biso   1.000  H
  H35      1.0000 0.13790  0.56670  0.99620  Biso   1.000  H
  H36      1.0000 0.86210  0.56670  0.00380  Biso   1.000  H
  H37      1.0000 0.13790  0.00380  0.56670  Biso   1.000  H
  H38      1.0000 0.86210  0.99620  0.56670  Biso   1.000  H
  H39      1.0000 0.13790  0.99620  0.43330  Biso   1.000  H
  H40      1.0000 0.86210  0.00380  0.43330  Biso   1.000  H
  H41      1.0000 0.00380  0.43330  0.86210  Biso   1.000  H
  H42      1.0000 0.99620  0.43330  0.13790  Biso   1.000  H
  H43      1.0000 0.99620  0.56670  0.86210  Biso   1.000  H
  H44      1.0000 0.00380  0.56670  0.13790  Biso   1.000  H
  H45      1.0000 0.43330  0.13790  0.99620  Biso   1.000  H
  H46      1.0000 0.43330  0.86210  0.00380  Biso   1.000  H
  H47      1.0000 0.56670  0.13790  0.00380  Biso   1.000  H
  H48      1.0000 0.56670  0.86210  0.99620  Biso   1.000  H
  C97      1.0000 0.50242  0.70184  0.95732  Biso   1.000  C
  C98      1.0000 0.49758  0.29816  0.95732  Biso   1.000  C
  C99      1.0000 0.49758  0.70184  0.04268  Biso   1.000  C
  C100     1.0000 0.50242  0.29816  0.04268  Biso   1.000  C
  C101     1.0000 0.95732  0.50242  0.70184  Biso   1.000  C
  C102     1.0000 0.95732  0.49758  0.29816  Biso   1.000  C
  C103     1.0000 0.04268  0.49758  0.70184  Biso   1.000  C
  C104     1.0000 0.04268  0.50242  0.29816  Biso   1.000  C
  C105     1.0000 0.70184  0.95732  0.50242  Biso   1.000  C
  C106     1.0000 0.29816  0.95732  0.49758  Biso   1.000  C
  C107     1.0000 0.70184  0.04268  0.49758  Biso   1.000  C
  C108     1.0000 0.29816  0.04268  0.50242  Biso   1.000  C
  C109     1.0000 0.70184  0.50242  0.04268  Biso   1.000  C
  C110     1.0000 0.29816  0.49758  0.04268  Biso   1.000  C
  C111     1.0000 0.70184  0.49758  0.95732  Biso   1.000  C
  C112     1.0000 0.29816  0.50242  0.95732  Biso   1.000  C
  C113     1.0000 0.50242  0.95732  0.29816  Biso   1.000  C
  C114     1.0000 0.49758  0.95732  0.70184  Biso   1.000  C
  C115     1.0000 0.49758  0.04268  0.29816  Biso   1.000  C
  C116     1.0000 0.50242  0.04268  0.70184  Biso   1.000  C
  C117     1.0000 0.95732  0.70184  0.49758  Biso   1.000  C
  C118     1.0000 0.95732  0.29816  0.50242  Biso   1.000  C
  C119     1.0000 0.04268  0.70184  0.50242  Biso   1.000  C
  C120     1.0000 0.04268  0.29816  0.49758  Biso   1.000  C
  C121     1.0000 0.00242  0.20184  0.45732  Biso   1.000  C
  C122     1.0000 0.99758  0.79816  0.45732  Biso   1.000  C
  C123     1.0000 0.99758  0.20184  0.54268  Biso   1.000  C
  C124     1.0000 0.00242  0.79816  0.54268  Biso   1.000  C
  C125     1.0000 0.45732  0.00242  0.20184  Biso   1.000  C
  C126     1.0000 0.45732  0.99758  0.79816  Biso   1.000  C
  C127     1.0000 0.54268  0.99758  0.20184  Biso   1.000  C
  C128     1.0000 0.54268  0.00242  0.79816  Biso   1.000  C
  C129     1.0000 0.20184  0.45732  0.00242  Biso   1.000  C
  C130     1.0000 0.79816  0.45732  0.99758  Biso   1.000  C
  C131     1.0000 0.20184  0.54268  0.99758  Biso   1.000  C
  C132     1.0000 0.79816  0.54268  0.00242  Biso   1.000  C
  C133     1.0000 0.20184  0.00242  0.54268  Biso   1.000  C
  C134     1.0000 0.79816  0.99758  0.54268  Biso   1.000  C
  C135     1.0000 0.20184  0.99758  0.45732  Biso   1.000  C
  C136     1.0000 0.79816  0.00242  0.45732  Biso   1.000  C
  C137     1.0000 0.00242  0.45732  0.79816  Biso   1.000  C
  C138     1.0000 0.99758  0.45732  0.20184  Biso   1.000  C
  C139     1.0000 0.99758  0.54268  0.79816  Biso   1.000  C
  C140     1.0000 0.00242  0.54268  0.20184  Biso   1.000  C
  C141     1.0000 0.45732  0.20184  0.99758  Biso   1.000  C
  C142     1.0000 0.45732  0.79816  0.00242  Biso   1.000  C
  C143     1.0000 0.54268  0.20184  0.00242  Biso   1.000  C
  C144     1.0000 0.54268  0.79816  0.99758  Biso   1.000  C
  C145     1.0000 0.50000  0.72317  0.00000  Biso   1.000  C
  C146     1.0000 0.50000  0.27683  0.00000  Biso   1.000  C
  C147     1.0000 0.00000  0.50000  0.72317  Biso   1.000  C
  C148     1.0000 0.00000  0.50000  0.27683  Biso   1.000  C
  C149     1.0000 0.72317  0.00000  0.50000  Biso   1.000  C
  C150     1.0000 0.27683  0.00000  0.50000  Biso   1.000  C
  C151     1.0000 0.72317  0.50000  0.00000  Biso   1.000  C
  C152     1.0000 0.27683  0.50000  0.00000  Biso   1.000  C
  C153     1.0000 0.50000  0.00000  0.27683  Biso   1.000  C
  C154     1.0000 0.50000  0.00000  0.72317  Biso   1.000  C
  C155     1.0000 0.00000  0.72317  0.50000  Biso   1.000  C
  C156     1.0000 0.00000  0.27683  0.50000  Biso   1.000  C
  C157     1.0000 0.00000  0.22317  0.50000  Biso   1.000  C
  C158     1.0000 0.00000  0.77683  0.50000  Biso   1.000  C
  C159     1.0000 0.50000  0.00000  0.22317  Biso   1.000  C
  C160     1.0000 0.50000  0.00000  0.77683  Biso   1.000  C
  C161     1.0000 0.22317  0.50000  0.00000  Biso   1.000  C
  C162     1.0000 0.77683  0.50000  0.00000  Biso   1.000  C
  C163     1.0000 0.22317  0.00000  0.50000  Biso   1.000  C
  C164     1.0000 0.77683  0.00000  0.50000  Biso   1.000  C
  C165     1.0000 0.00000  0.50000  0.77683  Biso   1.000  C
  C166     1.0000 0.00000  0.50000  0.22317  Biso   1.000  C
  C167     1.0000 0.50000  0.22317  0.00000  Biso   1.000  C
  C168     1.0000 0.50000  0.77683  0.00000  Biso   1.000  C
  C169     1.0000 0.50492  0.72770  0.91330  Biso   1.000  C
  C170     1.0000 0.49508  0.27230  0.91330  Biso   1.000  C
  C171     1.0000 0.49508  0.72770  0.08670  Biso   1.000  C
  C172     1.0000 0.50492  0.27230  0.08670  Biso   1.000  C
  C173     1.0000 0.91330  0.50492  0.72770  Biso   1.000  C
  C174     1.0000 0.91330  0.49508  0.27230  Biso   1.000  C
  C175     1.0000 0.08670  0.49508  0.72770  Biso   1.000  C
  C176     1.0000 0.08670  0.50492  0.27230  Biso   1.000  C
  C177     1.0000 0.72770  0.91330  0.50492  Biso   1.000  C
  C178     1.0000 0.27230  0.91330  0.49508  Biso   1.000  C
  C179     1.0000 0.72770  0.08670  0.49508  Biso   1.000  C
  C180     1.0000 0.27230  0.08670  0.50492  Biso   1.000  C
  C181     1.0000 0.72770  0.50492  0.08670  Biso   1.000  C
  C182     1.0000 0.27230  0.49508  0.08670  Biso   1.000  C
  C183     1.0000 0.72770  0.49508  0.91330  Biso   1.000  C
  C184     1.0000 0.27230  0.50492  0.91330  Biso   1.000  C
  C185     1.0000 0.50492  0.91330  0.27230  Biso   1.000  C
  C186     1.0000 0.49508  0.91330  0.72770  Biso   1.000  C
  C187     1.0000 0.49508  0.08670  0.27230  Biso   1.000  C
  C188     1.0000 0.50492  0.08670  0.72770  Biso   1.000  C
  C189     1.0000 0.91330  0.72770  0.49508  Biso   1.000  C
  C190     1.0000 0.91330  0.27230  0.50492  Biso   1.000  C
  C191     1.0000 0.08670  0.72770  0.50492  Biso   1.000  C
  C192     1.0000 0.08670  0.27230  0.49508  Biso   1.000  C
  C193     1.0000 0.00492  0.22770  0.41330  Biso   1.000  C
  C194     1.0000 0.99508  0.77230  0.41330  Biso   1.000  C
  C195     1.0000 0.99508  0.22770  0.58670  Biso   1.000  C
  C196     1.0000 0.00492  0.77230  0.58670  Biso   1.000  C
  C197     1.0000 0.41330  0.00492  0.22770  Biso   1.000  C
  C198     1.0000 0.41330  0.99508  0.77230  Biso   1.000  C
  C199     1.0000 0.58670  0.99508  0.22770  Biso   1.000  C
  C200     1.0000 0.58670  0.00492  0.77230  Biso   1.000  C
  C201     1.0000 0.22770  0.41330  0.00492  Biso   1.000  C
  C202     1.0000 0.77230  0.41330  0.99508  Biso   1.000  C
  C203     1.0000 0.22770  0.58670  0.99508  Biso   1.000  C
  C204     1.0000 0.77230  0.58670  0.00492  Biso   1.000  C
  C205     1.0000 0.22770  0.00492  0.58670  Biso   1.000  C
  C206     1.0000 0.77230  0.99508  0.58670  Biso   1.000  C
  C207     1.0000 0.22770  0.99508  0.41330  Biso   1.000  C
  C208     1.0000 0.77230  0.00492  0.41330  Biso   1.000  C
  C209     1.0000 0.00492  0.41330  0.77230  Biso   1.000  C
  C210     1.0000 0.99508  0.41330  0.22770  Biso   1.000  C
  C211     1.0000 0.99508  0.58670  0.77230  Biso   1.000  C
  C212     1.0000 0.00492  0.58670  0.22770  Biso   1.000  C
  C213     1.0000 0.41330  0.22770  0.99508  Biso   1.000  C
  C214     1.0000 0.41330  0.77230  0.00492  Biso   1.000  C
  C215     1.0000 0.58670  0.22770  0.00492  Biso   1.000  C
  C216     1.0000 0.58670  0.77230  0.99508  Biso   1.000  C
  O61      1.0000 0.50469  0.72720  0.91729  Biso   1.000  O
  O62      1.0000 0.49531  0.27280  0.91729  Biso   1.000  O
  O63      1.0000 0.49531  0.72720  0.08271  Biso   1.000  O
  O64      1.0000 0.50469  0.27280  0.08271  Biso   1.000  O
  O65      1.0000 0.91729  0.50469  0.72720  Biso   1.000  O
  O66      1.0000 0.91729  0.49531  0.27280  Biso   1.000  O
  O67      1.0000 0.08271  0.49531  0.72720  Biso   1.000  O
  O68      1.0000 0.08271  0.50469  0.27280  Biso   1.000  O
  O69      1.0000 0.72720  0.91729  0.50469  Biso   1.000  O
  O70      1.0000 0.27280  0.91729  0.49531  Biso   1.000  O
  O71      1.0000 0.72720  0.08271  0.49531  Biso   1.000  O
  O72      1.0000 0.27280  0.08271  0.50469  Biso   1.000  O
  O73      1.0000 0.72720  0.50469  0.08271  Biso   1.000  O
  O74      1.0000 0.27280  0.49531  0.08271  Biso   1.000  O
  O75      1.0000 0.72720  0.49531  0.91729  Biso   1.000  O
  O76      1.0000 0.27280  0.50469  0.91729  Biso   1.000  O
  O77      1.0000 0.50469  0.91729  0.27280  Biso   1.000  O
  O78      1.0000 0.49531  0.91729  0.72720  Biso   1.000  O
  O79      1.0000 0.49531  0.08271  0.27280  Biso   1.000  O
  O80      1.0000 0.50469  0.08271  0.72720  Biso   1.000  O
  O81      1.0000 0.91729  0.72720  0.49531  Biso   1.000  O
  O82      1.0000 0.91729  0.27280  0.50469  Biso   1.000  O
  O83      1.0000 0.08271  0.72720  0.50469  Biso   1.000  O
  O84      1.0000 0.08271  0.27280  0.49531  Biso   1.000  O
  O85      1.0000 0.00469  0.22720  0.41729  Biso   1.000  O
  O86      1.0000 0.99531  0.77280  0.41729  Biso   1.000  O
  O87      1.0000 0.99531  0.22720  0.58271  Biso   1.000  O
  O88      1.0000 0.00469  0.77280  0.58271  Biso   1.000  O
  O89      1.0000 0.41729  0.00469  0.22720  Biso   1.000  O
  O90      1.0000 0.41729  0.99531  0.77280  Biso   1.000  O
  O91      1.0000 0.58271  0.99531  0.22720  Biso   1.000  O
  O92      1.0000 0.58271  0.00469  0.77280  Biso   1.000  O
  O93      1.0000 0.22720  0.41729  0.00469  Biso   1.000  O
  O94      1.0000 0.77280  0.41729  0.99531  Biso   1.000  O
  O95      1.0000 0.22720  0.58271  0.99531  Biso   1.000  O
  O96      1.0000 0.77280  0.58271  0.00469  Biso   1.000  O
  O97      1.0000 0.22720  0.00469  0.58271  Biso   1.000  O
  O98      1.0000 0.77280  0.99531  0.58271  Biso   1.000  O
  O99      1.0000 0.22720  0.99531  0.41729  Biso   1.000  O
  O100     1.0000 0.77280  0.00469  0.41729  Biso   1.000  O
  O101     1.0000 0.00469  0.41729  0.77280  Biso   1.000  O
  O102     1.0000 0.99531  0.41729  0.22720  Biso   1.000  O
  O103     1.0000 0.99531  0.58271  0.77280  Biso   1.000  O
  O104     1.0000 0.00469  0.58271  0.22720  Biso   1.000  O
  O105     1.0000 0.41729  0.22720  0.99531  Biso   1.000  O
  O106     1.0000 0.41729  0.77280  0.00469  Biso   1.000  O
  O107     1.0000 0.58271  0.22720  0.00469  Biso   1.000  O
  O108     1.0000 0.58271  0.77280  0.99531  Biso   1.000  O
