data_image0
_cell_length_a       32.475
_cell_length_b       13.496
_cell_length_c       8.738
_cell_angle_alpha    90
_cell_angle_beta     96.335
_cell_angle_gamma    90

_symmetry_space_group_name_H-M    "P 1"
_symmetry_int_tables_number       1

loop_
  _symmetry_equiv_pos_as_xyz
  'x, y, z'

loop_
  _atom_site_label
  _atom_site_occupancy
  _atom_site_fract_x
  _atom_site_fract_y
  _atom_site_fract_z
  _atom_site_thermal_displace_type
  _atom_site_B_iso_or_equiv
  _atom_site_type_symbol
  Cu1      1.0000 0.29341  0.24120  0.13380  Biso   1.000  Cu
  Cu2      1.0000 0.29341  0.75880  0.63380  Biso   1.000  Cu
  Cu3      1.0000 0.79341  0.74120  0.13380  Biso   1.000  Cu
  Cu4      1.0000 0.79341  0.25880  0.63380  Biso   1.000  Cu
  Cu5      1.0000 0.70659  0.75880  0.86620  Biso   1.000  Cu
  Cu6      1.0000 0.70659  0.24120  0.36620  Biso   1.000  Cu
  Cu7      1.0000 0.20659  0.25880  0.86620  Biso   1.000  Cu
  Cu8      1.0000 0.20659  0.74120  0.36620  Biso   1.000  Cu
  Cl1      1.0000 0.23347  0.31350  0.17330  Biso   1.000  Cl
  Cl2      1.0000 0.23347  0.68650  0.67330  Biso   1.000  Cl
  Cl3      1.0000 0.73347  0.81350  0.17330  Biso   1.000  Cl
  Cl4      1.0000 0.73347  0.18650  0.67330  Biso   1.000  Cl
  Cl5      1.0000 0.76653  0.68650  0.82670  Biso   1.000  Cl
  Cl6      1.0000 0.76653  0.31350  0.32670  Biso   1.000  Cl
  Cl7      1.0000 0.26653  0.18650  0.82670  Biso   1.000  Cl
  Cl8      1.0000 0.26653  0.81350  0.32670  Biso   1.000  Cl
  S1       1.0000 0.32004  0.38560  0.03800  Biso   1.000  S
  S2       1.0000 0.32004  0.61440  0.53800  Biso   1.000  S
  S3       1.0000 0.82004  0.88560  0.03800  Biso   1.000  S
  S4       1.0000 0.82004  0.11440  0.53800  Biso   1.000  S
  S5       1.0000 0.67996  0.61440  0.96200  Biso   1.000  S
  S6       1.0000 0.67996  0.38560  0.46200  Biso   1.000  S
  S7       1.0000 0.17996  0.11440  0.96200  Biso   1.000  S
  S8       1.0000 0.17996  0.88560  0.46200  Biso   1.000  S
  C1       1.0000 0.36070  0.32420  0.95300  Biso   1.000  C
  C2       1.0000 0.36070  0.67580  0.45300  Biso   1.000  C
  C3       1.0000 0.86070  0.82420  0.95300  Biso   1.000  C
  C4       1.0000 0.86070  0.17580  0.45300  Biso   1.000  C
  C5       1.0000 0.63930  0.67580  0.04700  Biso   1.000  C
  C6       1.0000 0.63930  0.32420  0.54700  Biso   1.000  C
  C7       1.0000 0.13930  0.17580  0.04700  Biso   1.000  C
  C8       1.0000 0.13930  0.82420  0.54700  Biso   1.000  C
  C9       1.0000 0.37450  0.22750  0.02800  Biso   1.000  C
  C10      1.0000 0.37450  0.77250  0.52800  Biso   1.000  C
  C11      1.0000 0.87450  0.72750  0.02800  Biso   1.000  C
  C12      1.0000 0.87450  0.27250  0.52800  Biso   1.000  C
  C13      1.0000 0.62550  0.77250  0.97200  Biso   1.000  C
  C14      1.0000 0.62550  0.22750  0.47200  Biso   1.000  C
  C15      1.0000 0.12550  0.27250  0.97200  Biso   1.000  C
  C16      1.0000 0.12550  0.72750  0.47200  Biso   1.000  C
  N1       1.0000 0.34790  0.18080  0.11180  Biso   1.000  N
  N2       1.0000 0.34790  0.81920  0.61180  Biso   1.000  N
  N3       1.0000 0.84790  0.68080  0.11180  Biso   1.000  N
  N4       1.0000 0.84790  0.31920  0.61180  Biso   1.000  N
  N5       1.0000 0.65210  0.81920  0.88820  Biso   1.000  N
  N6       1.0000 0.65210  0.18080  0.38820  Biso   1.000  N
  N7       1.0000 0.15210  0.31920  0.88820  Biso   1.000  N
  N8       1.0000 0.15210  0.68080  0.38820  Biso   1.000  N
  C17      1.0000 0.35830  0.09160  0.17370  Biso   1.000  C
  C18      1.0000 0.35830  0.90840  0.67370  Biso   1.000  C
  C19      1.0000 0.85830  0.59160  0.17370  Biso   1.000  C
  C20      1.0000 0.85830  0.40840  0.67370  Biso   1.000  C
  C21      1.0000 0.64170  0.90840  0.82630  Biso   1.000  C
  C22      1.0000 0.64170  0.09160  0.32630  Biso   1.000  C
  C23      1.0000 0.14170  0.40840  0.82630  Biso   1.000  C
  C24      1.0000 0.14170  0.59160  0.32630  Biso   1.000  C
  C25      1.0000 0.32900  0.04430  0.27500  Biso   1.000  C
  C26      1.0000 0.32900  0.95570  0.77500  Biso   1.000  C
  C27      1.0000 0.82900  0.54430  0.27500  Biso   1.000  C
  C28      1.0000 0.82900  0.45570  0.77500  Biso   1.000  C
  C29      1.0000 0.67100  0.95570  0.72500  Biso   1.000  C
  C30      1.0000 0.67100  0.04430  0.22500  Biso   1.000  C
  C31      1.0000 0.17100  0.45570  0.72500  Biso   1.000  C
  C32      1.0000 0.17100  0.54430  0.22500  Biso   1.000  C
  S9       1.0000 0.27644  0.08860  0.23040  Biso   1.000  S
  S10      1.0000 0.27644  0.91140  0.73040  Biso   1.000  S
  S11      1.0000 0.77644  0.58860  0.23040  Biso   1.000  S
  S12      1.0000 0.77644  0.41140  0.73040  Biso   1.000  S
  S13      1.0000 0.72356  0.91140  0.76960  Biso   1.000  S
  S14      1.0000 0.72356  0.08860  0.26960  Biso   1.000  S
  S15      1.0000 0.22356  0.41140  0.76960  Biso   1.000  S
  S16      1.0000 0.22356  0.58860  0.26960  Biso   1.000  S
  C33      1.0000 0.34580  0.44300  0.20700  Biso   1.000  C
  C34      1.0000 0.34580  0.55700  0.70700  Biso   1.000  C
  C35      1.0000 0.84580  0.94300  0.20700  Biso   1.000  C
  C36      1.0000 0.84580  0.05700  0.70700  Biso   1.000  C
  C37      1.0000 0.65420  0.55700  0.79300  Biso   1.000  C
  C38      1.0000 0.65420  0.44300  0.29300  Biso   1.000  C
  C39      1.0000 0.15420  0.05700  0.79300  Biso   1.000  C
  C40      1.0000 0.15420  0.94300  0.29300  Biso   1.000  C
  C41      1.0000 0.25960  0.10870  0.41800  Biso   1.000  C
  C42      1.0000 0.25960  0.89130  0.91800  Biso   1.000  C
  C43      1.0000 0.75960  0.60870  0.41800  Biso   1.000  C
  C44      1.0000 0.75960  0.39130  0.91800  Biso   1.000  C
  C45      1.0000 0.74040  0.89130  0.58200  Biso   1.000  C
  C46      1.0000 0.74040  0.10870  0.08200  Biso   1.000  C
  C47      1.0000 0.24040  0.39130  0.58200  Biso   1.000  C
  C48      1.0000 0.24040  0.60870  0.08200  Biso   1.000  C
  C49      1.0000 0.41220  0.18590  0.00300  Biso   1.000  C
  C50      1.0000 0.41220  0.81410  0.50300  Biso   1.000  C
  C51      1.0000 0.91220  0.68590  0.00300  Biso   1.000  C
  C52      1.0000 0.91220  0.31410  0.50300  Biso   1.000  C
  C53      1.0000 0.58780  0.81410  0.99700  Biso   1.000  C
  C54      1.0000 0.58780  0.18590  0.49700  Biso   1.000  C
  C55      1.0000 0.08780  0.31410  0.99700  Biso   1.000  C
  C56      1.0000 0.08780  0.68590  0.49700  Biso   1.000  C
  C57      1.0000 0.42330  0.09200  0.06300  Biso   1.000  C
  C58      1.0000 0.42330  0.90800  0.56300  Biso   1.000  C
  C59      1.0000 0.92330  0.59200  0.06300  Biso   1.000  C
  C60      1.0000 0.92330  0.40800  0.56300  Biso   1.000  C
  C61      1.0000 0.57670  0.90800  0.93700  Biso   1.000  C
  C62      1.0000 0.57670  0.09200  0.43700  Biso   1.000  C
  C63      1.0000 0.07670  0.40800  0.93700  Biso   1.000  C
  C64      1.0000 0.07670  0.59200  0.43700  Biso   1.000  C
  C65      1.0000 0.39530  0.04460  0.14900  Biso   1.000  C
  C66      1.0000 0.39530  0.95540  0.64900  Biso   1.000  C
  C67      1.0000 0.89530  0.54460  0.14900  Biso   1.000  C
  C68      1.0000 0.89530  0.45540  0.64900  Biso   1.000  C
  C69      1.0000 0.60470  0.95540  0.85100  Biso   1.000  C
  C70      1.0000 0.60470  0.04460  0.35100  Biso   1.000  C
  C71      1.0000 0.10470  0.45540  0.85100  Biso   1.000  C
  C72      1.0000 0.10470  0.54460  0.35100  Biso   1.000  C
  C73      1.0000 0.46300  0.04450  0.03100  Biso   1.000  C
  C74      1.0000 0.46300  0.95550  0.53100  Biso   1.000  C
  C75      1.0000 0.96300  0.54450  0.03100  Biso   1.000  C
  C76      1.0000 0.96300  0.45550  0.53100  Biso   1.000  C
  C77      1.0000 0.53700  0.95550  0.96900  Biso   1.000  C
  C78      1.0000 0.53700  0.04450  0.46900  Biso   1.000  C
  C79      1.0000 0.03700  0.45550  0.96900  Biso   1.000  C
  C80      1.0000 0.03700  0.54450  0.46900  Biso   1.000  C
  C81      1.0000 0.46570  0.94390  0.01900  Biso   1.000  C
  C82      1.0000 0.46570  0.05610  0.51900  Biso   1.000  C
  C83      1.0000 0.96570  0.44390  0.01900  Biso   1.000  C
  C84      1.0000 0.96570  0.55610  0.51900  Biso   1.000  C
  C85      1.0000 0.53430  0.05610  0.98100  Biso   1.000  C
  C86      1.0000 0.53430  0.94390  0.48100  Biso   1.000  C
  C87      1.0000 0.03430  0.55610  0.98100  Biso   1.000  C
  C88      1.0000 0.03430  0.44390  0.48100  Biso   1.000  C
  C89      1.0000 0.49730  0.10060  0.01300  Biso   1.000  C
  C90      1.0000 0.49730  0.89940  0.51300  Biso   1.000  C
  C91      1.0000 0.99730  0.60060  0.01300  Biso   1.000  C
  C92      1.0000 0.99730  0.39940  0.51300  Biso   1.000  C
  C93      1.0000 0.50270  0.89940  0.98700  Biso   1.000  C
  C94      1.0000 0.50270  0.10060  0.48700  Biso   1.000  C
  C95      1.0000 0.00270  0.39940  0.98700  Biso   1.000  C
  C96      1.0000 0.00270  0.60060  0.48700  Biso   1.000  C
  B1       1.0000 0.37290  0.26000  0.53700  Biso   1.000  B
  B2       1.0000 0.37290  0.74000  0.03700  Biso   1.000  B
  B3       1.0000 0.87290  0.76000  0.53700  Biso   1.000  B
  B4       1.0000 0.87290  0.24000  0.03700  Biso   1.000  B
  B5       1.0000 0.62710  0.74000  0.46300  Biso   1.000  B
  B6       1.0000 0.62710  0.26000  0.96300  Biso   1.000  B
  B7       1.0000 0.12710  0.24000  0.46300  Biso   1.000  B
  B8       1.0000 0.12710  0.76000  0.96300  Biso   1.000  B
  F1       1.0000 0.38180  0.33890  0.60600  Biso   1.000  F
  F2       1.0000 0.38180  0.66110  0.10600  Biso   1.000  F
  F3       1.0000 0.88180  0.83890  0.60600  Biso   1.000  F
  F4       1.0000 0.88180  0.16110  0.10600  Biso   1.000  F
  F5       1.0000 0.61820  0.66110  0.39400  Biso   1.000  F
  F6       1.0000 0.61820  0.33890  0.89400  Biso   1.000  F
  F7       1.0000 0.11820  0.16110  0.39400  Biso   1.000  F
  F8       1.0000 0.11820  0.83890  0.89400  Biso   1.000  F
  F9       1.0000 0.33250  0.27880  0.45200  Biso   1.000  F
  F10      1.0000 0.33250  0.72120  0.95200  Biso   1.000  F
  F11      1.0000 0.83250  0.77880  0.45200  Biso   1.000  F
  F12      1.0000 0.83250  0.22120  0.95200  Biso   1.000  F
  F13      1.0000 0.66750  0.72120  0.54800  Biso   1.000  F
  F14      1.0000 0.66750  0.27880  0.04800  Biso   1.000  F
  F15      1.0000 0.16750  0.22120  0.54800  Biso   1.000  F
  F16      1.0000 0.16750  0.77880  0.04800  Biso   1.000  F
  F17      1.0000 0.36820  0.18310  0.62800  Biso   1.000  F
  F18      1.0000 0.36820  0.81690  0.12800  Biso   1.000  F
  F19      1.0000 0.86820  0.68310  0.62800  Biso   1.000  F
  F20      1.0000 0.86820  0.31690  0.12800  Biso   1.000  F
  F21      1.0000 0.63180  0.81690  0.37200  Biso   1.000  F
  F22      1.0000 0.63180  0.18310  0.87200  Biso   1.000  F
  F23      1.0000 0.13180  0.31690  0.37200  Biso   1.000  F
  F24      1.0000 0.13180  0.68310  0.87200  Biso   1.000  F
  F25      1.0000 0.39650  0.24360  0.42200  Biso   1.000  F
  F26      1.0000 0.39650  0.75640  0.92200  Biso   1.000  F
  F27      1.0000 0.89650  0.74360  0.42200  Biso   1.000  F
  F28      1.0000 0.89650  0.25640  0.92200  Biso   1.000  F
  F29      1.0000 0.60350  0.75640  0.57800  Biso   1.000  F
  F30      1.0000 0.60350  0.24360  0.07800  Biso   1.000  F
  F31      1.0000 0.10350  0.25640  0.57800  Biso   1.000  F
  F32      1.0000 0.10350  0.74360  0.07800  Biso   1.000  F
  H1       1.0000 0.38390  0.36730  0.95860  Biso   1.000  H
  H2       1.0000 0.38390  0.63270  0.45860  Biso   1.000  H
  H3       1.0000 0.88390  0.86730  0.95860  Biso   1.000  H
  H4       1.0000 0.88390  0.13270  0.45860  Biso   1.000  H
  H5       1.0000 0.61610  0.63270  0.04140  Biso   1.000  H
  H6       1.0000 0.61610  0.36730  0.54140  Biso   1.000  H
  H7       1.0000 0.11610  0.13270  0.04140  Biso   1.000  H
  H8       1.0000 0.11610  0.86730  0.54140  Biso   1.000  H
  H9       1.0000 0.35130  0.31150  0.84770  Biso   1.000  H
  H10      1.0000 0.35130  0.68850  0.34770  Biso   1.000  H
  H11      1.0000 0.85130  0.81150  0.84770  Biso   1.000  H
  H12      1.0000 0.85130  0.18850  0.34770  Biso   1.000  H
  H13      1.0000 0.64870  0.68850  0.15230  Biso   1.000  H
  H14      1.0000 0.64870  0.31150  0.65230  Biso   1.000  H
  H15      1.0000 0.14870  0.18850  0.15230  Biso   1.000  H
  H16      1.0000 0.14870  0.81150  0.65230  Biso   1.000  H
  H17      1.0000 0.33810  0.05920  0.37920  Biso   1.000  H
  H18      1.0000 0.33810  0.94080  0.87920  Biso   1.000  H
  H19      1.0000 0.83810  0.55920  0.37920  Biso   1.000  H
  H20      1.0000 0.83810  0.44080  0.87920  Biso   1.000  H
  H21      1.0000 0.66190  0.94080  0.62080  Biso   1.000  H
  H22      1.0000 0.66190  0.05920  0.12080  Biso   1.000  H
  H23      1.0000 0.16190  0.44080  0.62080  Biso   1.000  H
  H24      1.0000 0.16190  0.55920  0.12080  Biso   1.000  H
  H25      1.0000 0.32940  0.97460  0.26000  Biso   1.000  H
  H26      1.0000 0.32940  0.02540  0.76000  Biso   1.000  H
  H27      1.0000 0.82940  0.47460  0.26000  Biso   1.000  H
  H28      1.0000 0.82940  0.52540  0.76000  Biso   1.000  H
  H29      1.0000 0.67060  0.02540  0.74000  Biso   1.000  H
  H30      1.0000 0.67060  0.97460  0.24000  Biso   1.000  H
  H31      1.0000 0.17060  0.52540  0.74000  Biso   1.000  H
  H32      1.0000 0.17060  0.47460  0.24000  Biso   1.000  H
  H33      1.0000 0.32610  0.47760  0.25950  Biso   1.000  H
  H34      1.0000 0.32610  0.52240  0.75950  Biso   1.000  H
  H35      1.0000 0.82610  0.97760  0.25950  Biso   1.000  H
  H36      1.0000 0.82610  0.02240  0.75950  Biso   1.000  H
  H37      1.0000 0.67390  0.52240  0.74050  Biso   1.000  H
  H38      1.0000 0.67390  0.47760  0.24050  Biso   1.000  H
  H39      1.0000 0.17390  0.02240  0.74050  Biso   1.000  H
  H40      1.0000 0.17390  0.97760  0.24050  Biso   1.000  H
  H41      1.0000 0.35900  0.39360  0.27260  Biso   1.000  H
  H42      1.0000 0.35900  0.60640  0.77260  Biso   1.000  H
  H43      1.0000 0.85900  0.89360  0.27260  Biso   1.000  H
  H44      1.0000 0.85900  0.10640  0.77260  Biso   1.000  H
  H45      1.0000 0.64100  0.60640  0.72740  Biso   1.000  H
  H46      1.0000 0.64100  0.39360  0.22740  Biso   1.000  H
  H47      1.0000 0.14100  0.10640  0.72740  Biso   1.000  H
  H48      1.0000 0.14100  0.89360  0.22740  Biso   1.000  H
  H49      1.0000 0.36600  0.48810  0.17790  Biso   1.000  H
  H50      1.0000 0.36600  0.51190  0.67790  Biso   1.000  H
  H51      1.0000 0.86600  0.98810  0.17790  Biso   1.000  H
  H52      1.0000 0.86600  0.01190  0.67790  Biso   1.000  H
  H53      1.0000 0.63400  0.51190  0.82210  Biso   1.000  H
  H54      1.0000 0.63400  0.48810  0.32210  Biso   1.000  H
  H55      1.0000 0.13400  0.01190  0.82210  Biso   1.000  H
  H56      1.0000 0.13400  0.98810  0.32210  Biso   1.000  H
  H57      1.0000 0.23190  0.13240  0.40610  Biso   1.000  H
  H58      1.0000 0.23190  0.86760  0.90610  Biso   1.000  H
  H59      1.0000 0.73190  0.63240  0.40610  Biso   1.000  H
  H60      1.0000 0.73190  0.36760  0.90610  Biso   1.000  H
  H61      1.0000 0.76810  0.86760  0.59390  Biso   1.000  H
  H62      1.0000 0.76810  0.13240  0.09390  Biso   1.000  H
  H63      1.0000 0.26810  0.36760  0.59390  Biso   1.000  H
  H64      1.0000 0.26810  0.63240  0.09390  Biso   1.000  H
  H65      1.0000 0.26100  0.04800  0.47320  Biso   1.000  H
  H66      1.0000 0.26100  0.95200  0.97320  Biso   1.000  H
  H67      1.0000 0.76100  0.54800  0.47320  Biso   1.000  H
  H68      1.0000 0.76100  0.45200  0.97320  Biso   1.000  H
  H69      1.0000 0.73900  0.95200  0.52680  Biso   1.000  H
  H70      1.0000 0.73900  0.04800  0.02680  Biso   1.000  H
  H71      1.0000 0.23900  0.45200  0.52680  Biso   1.000  H
  H72      1.0000 0.23900  0.54800  0.02680  Biso   1.000  H
  H73      1.0000 0.27710  0.15620  0.47230  Biso   1.000  H
  H74      1.0000 0.27710  0.84380  0.97230  Biso   1.000  H
  H75      1.0000 0.77710  0.65620  0.47230  Biso   1.000  H
  H76      1.0000 0.77710  0.34380  0.97230  Biso   1.000  H
  H77      1.0000 0.72290  0.84380  0.52770  Biso   1.000  H
  H78      1.0000 0.72290  0.15620  0.02770  Biso   1.000  H
  H79      1.0000 0.22290  0.34380  0.52770  Biso   1.000  H
  H80      1.0000 0.22290  0.65620  0.02770  Biso   1.000  H
  H81      1.0000 0.43070  0.22130  0.94610  Biso   1.000  H
  H82      1.0000 0.43070  0.77870  0.44610  Biso   1.000  H
  H83      1.0000 0.93070  0.72130  0.94610  Biso   1.000  H
  H84      1.0000 0.93070  0.27870  0.44610  Biso   1.000  H
  H85      1.0000 0.56930  0.77870  0.05390  Biso   1.000  H
  H86      1.0000 0.56930  0.22130  0.55390  Biso   1.000  H
  H87      1.0000 0.06930  0.27870  0.05390  Biso   1.000  H
  H88      1.0000 0.06930  0.72130  0.55390  Biso   1.000  H
  H89      1.0000 0.40140  0.98050  0.19070  Biso   1.000  H
  H90      1.0000 0.40140  0.01950  0.69070  Biso   1.000  H
  H91      1.0000 0.90140  0.48050  0.19070  Biso   1.000  H
  H92      1.0000 0.90140  0.51950  0.69070  Biso   1.000  H
  H93      1.0000 0.59860  0.01950  0.80930  Biso   1.000  H
  H94      1.0000 0.59860  0.98050  0.30930  Biso   1.000  H
  H95      1.0000 0.09860  0.51950  0.80930  Biso   1.000  H
  H96      1.0000 0.09860  0.48050  0.30930  Biso   1.000  H
  H97      1.0000 0.44230  0.90390  0.03240  Biso   1.000  H
  H98      1.0000 0.44230  0.09610  0.53240  Biso   1.000  H
  H99      1.0000 0.94230  0.40390  0.03240  Biso   1.000  H
  H100     1.0000 0.94230  0.59610  0.53240  Biso   1.000  H
  H101     1.0000 0.55770  0.09610  0.96760  Biso   1.000  H
  H102     1.0000 0.55770  0.90390  0.46760  Biso   1.000  H
  H103     1.0000 0.05770  0.59610  0.96760  Biso   1.000  H
  H104     1.0000 0.05770  0.40390  0.46760  Biso   1.000  H
  H105     1.0000 0.49590  0.17070  0.02140  Biso   1.000  H
  H106     1.0000 0.49590  0.82930  0.52140  Biso   1.000  H
  H107     1.0000 0.99590  0.67070  0.02140  Biso   1.000  H
  H108     1.0000 0.99590  0.32930  0.52140  Biso   1.000  H
  H109     1.0000 0.50410  0.82930  0.97860  Biso   1.000  H
  H110     1.0000 0.50410  0.17070  0.47860  Biso   1.000  H
  H111     1.0000 0.00410  0.32930  0.97860  Biso   1.000  H
  H112     1.0000 0.00410  0.67070  0.47860  Biso   1.000  H
