data_image0
_cell_length_a       9.4755
_cell_length_b       10.1109
_cell_length_c       17.3555
_cell_angle_alpha    79.512
_cell_angle_beta     79.796
_cell_angle_gamma    69.574

_symmetry_space_group_name_H-M    "P 1"
_symmetry_int_tables_number       1

loop_
  _symmetry_equiv_pos_as_xyz
  'x, y, z'

loop_
  _atom_site_label
  _atom_site_occupancy
  _atom_site_fract_x
  _atom_site_fract_y
  _atom_site_fract_z
  _atom_site_thermal_displace_type
  _atom_site_B_iso_or_equiv
  _atom_site_type_symbol
  Cu1      1.0000 0.84948  0.45335  0.98597  Biso   1.000  Cu
  Cu2      1.0000 0.15052  0.54665  0.01403  Biso   1.000  Cu
  S1       1.0000 0.43052  0.77112  0.34090  Biso   1.000  S
  S2       1.0000 0.56948  0.22888  0.65910  Biso   1.000  S
  S3       1.0000 0.99587  0.54283  0.88671  Biso   1.000  S
  S4       1.0000 0.00413  0.45717  0.11329  Biso   1.000  S
  S5       1.0000 0.91869  0.21525  0.98629  Biso   1.000  S
  S6       1.0000 0.08131  0.78475  0.01371  Biso   1.000  S
  S7       1.0000 0.10901  0.18166  0.57368  Biso   1.000  S
  S8       1.0000 0.89099  0.81834  0.42632  Biso   1.000  S
  S9       1.0000 0.81588  0.34585  0.34034  Biso   1.000  S
  S10      1.0000 0.18412  0.65415  0.65966  Biso   1.000  S
  C1       1.0000 0.66790  0.38540  0.28280  Biso   1.000  C
  C2       1.0000 0.33210  0.61460  0.71720  Biso   1.000  C
  H1       1.0000 0.70480  0.40330  0.22810  Biso   1.000  H
  H2       1.0000 0.29520  0.59670  0.77190  Biso   1.000  H
  H3       1.0000 0.58700  0.46820  0.29820  Biso   1.000  H
  H4       1.0000 0.41300  0.53180  0.70180  Biso   1.000  H
  H5       1.0000 0.63090  0.30620  0.29060  Biso   1.000  H
  H6       1.0000 0.36910  0.69380  0.70940  Biso   1.000  H
  C3       1.0000 0.71900  0.31860  0.43620  Biso   1.000  C
  C4       1.0000 0.28100  0.68140  0.56380  Biso   1.000  C
  H7       1.0000 0.78810  0.29570  0.47470  Biso   1.000  H
  H8       1.0000 0.21190  0.70430  0.52530  Biso   1.000  H
  H9       1.0000 0.68020  0.24170  0.43920  Biso   1.000  H
  H10      1.0000 0.31980  0.75830  0.56080  Biso   1.000  H
  H11      1.0000 0.63650  0.40380  0.44640  Biso   1.000  H
  H12      1.0000 0.36350  0.59620  0.55360  Biso   1.000  H
  S11      1.0000 0.28257  0.34349  0.35803  Biso   1.000  S
  S12      1.0000 0.71743  0.65651  0.64197  Biso   1.000  S
  Na1      1.0000 0.10040  0.05733  0.40729  Biso   1.000  Na
  Na2      1.0000 0.89960  0.94267  0.59271  Biso   1.000  Na
  O1       1.0000 0.54140  0.66850  0.38940  Biso   1.000  O
  O2       1.0000 0.45860  0.33150  0.61060  Biso   1.000  O
  O3       1.0000 0.35960  0.70320  0.29940  Biso   1.000  O
  O4       1.0000 0.64040  0.29680  0.70060  Biso   1.000  O
  O5       1.0000 0.03700  0.09870  0.53880  Biso   1.000  O
  O6       1.0000 0.96300  0.90130  0.46120  Biso   1.000  O
  O7       1.0000 0.32270  0.88230  0.38430  Biso   1.000  O
  O8       1.0000 0.67730  0.11770  0.61570  Biso   1.000  O
  O9       1.0000 0.92100  0.19850  0.32240  Biso   1.000  O
  O10      1.0000 0.07900  0.80150  0.67760  Biso   1.000  O
  O11      1.0000 0.20620  0.23480  0.39320  Biso   1.000  O
  O12      1.0000 0.79380  0.76520  0.60680  Biso   1.000  O
  N1       1.0000 0.67100  0.29490  0.09660  Biso   1.000  N
  N2       1.0000 0.32900  0.70510  0.90340  Biso   1.000  N
  N3       1.0000 0.79270  0.05420  0.09160  Biso   1.000  N
  N4       1.0000 0.20730  0.94580  0.90840  Biso   1.000  N
  N5       1.0000 0.75000  0.76430  0.94010  Biso   1.000  N
  N6       1.0000 0.25000  0.23570  0.05990  Biso   1.000  N
  N7       1.0000 0.91620  0.81970  0.83750  Biso   1.000  N
  N8       1.0000 0.08380  0.18030  0.16250  Biso   1.000  N
  N9       1.0000 0.71900  0.65180  0.98690  Biso   1.000  N
  N10      1.0000 0.28100  0.34820  0.01310  Biso   1.000  N
  N11      1.0000 0.67780  0.42610  0.06160  Biso   1.000  N
  N12      1.0000 0.32220  0.57390  0.93840  Biso   1.000  N
  C5       1.0000 0.70120  0.99450  0.15150  Biso   1.000  C
  C6       1.0000 0.29880  0.00550  0.84850  Biso   1.000  C
  C7       1.0000 0.49680  0.00420  0.25610  Biso   1.000  C
  C8       1.0000 0.50320  0.99580  0.74390  Biso   1.000  C
  H13      1.0000 0.41450  0.05730  0.28800  Biso   1.000  H
  H14      1.0000 0.58550  0.94270  0.71200  Biso   1.000  H
  C9       1.0000 0.56880  0.54090  0.07820  Biso   1.000  C
  C10      1.0000 0.43120  0.45910  0.92180  Biso   1.000  C
  C11      1.0000 0.59150  0.67360  0.03510  Biso   1.000  C
  C12      1.0000 0.40850  0.32640  0.96490  Biso   1.000  C
  C13      1.0000 0.65820  0.77880  0.21850  Biso   1.000  C
  C14      1.0000 0.34180  0.22120  0.78150  Biso   1.000  C
  H15      1.0000 0.68530  0.68010  0.22500  Biso   1.000  H
  H16      1.0000 0.31470  0.31990  0.77500  Biso   1.000  H
  C15      1.0000 0.87580  0.72110  0.88970  Biso   1.000  C
  C16      1.0000 0.12420  0.27890  0.11030  Biso   1.000  C
  C17      1.0000 0.83190  0.97170  0.83670  Biso   1.000  C
  C18      1.0000 0.16810  0.02830  0.16330  Biso   1.000  C
  H17      1.0000 0.87860  0.02490  0.79500  Biso   1.000  H
  H18      1.0000 0.12140  0.97510  0.20500  Biso   1.000  H
  H19      1.0000 0.83250  0.00030  0.88640  Biso   1.000  H
  H20      1.0000 0.16750  0.99970  0.11360  Biso   1.000  H
  H21      1.0000 0.72910  0.98960  0.82820  Biso   1.000  H
  H22      1.0000 0.27090  0.01040  0.17180  Biso   1.000  H
  C19      1.0000 0.42910  0.54520  0.13450  Biso   1.000  C
  C20      1.0000 0.57090  0.45480  0.86550  Biso   1.000  C
  H23      1.0000 0.43320  0.45000  0.15670  Biso   1.000  H
  H24      1.0000 0.56680  0.55000  0.84330  Biso   1.000  H
  H25      1.0000 0.34150  0.58940  0.10690  Biso   1.000  H
  H26      1.0000 0.65850  0.41060  0.89310  Biso   1.000  H
  H27      1.0000 0.42270  0.59890  0.17590  Biso   1.000  H
  H28      1.0000 0.57730  0.40110  0.82410  Biso   1.000  H
  C21      1.0000 0.73960  0.84650  0.16160  Biso   1.000  C
  C22      1.0000 0.26040  0.15350  0.83840  Biso   1.000  C
  H29      1.0000 0.82120  0.79310  0.12950  Biso   1.000  H
  H30      1.0000 0.17880  0.20690  0.87050  Biso   1.000  H
  C23      1.0000 0.78180  0.19170  0.06550  Biso   1.000  C
  C24      1.0000 0.21820  0.80830  0.93450  Biso   1.000  C
  C25      1.0000 0.47900  0.81760  0.04220  Biso   1.000  C
  C26      1.0000 0.52100  0.18240  0.95780  Biso   1.000  C
  H31      1.0000 0.51750  0.88780  0.00930  Biso   1.000  H
  H32      1.0000 0.48250  0.11220  0.99070  Biso   1.000  H
  H33      1.0000 0.46140  0.83540  0.09610  Biso   1.000  H
  H34      1.0000 0.53860  0.16460  0.90390  Biso   1.000  H
  H35      1.0000 0.38550  0.82280  0.02580  Biso   1.000  H
  H36      1.0000 0.61450  0.17720  0.97420  Biso   1.000  H
  C27      1.0000 0.53590  0.85760  0.26630  Biso   1.000  C
  C28      1.0000 0.46410  0.14240  0.73370  Biso   1.000  C
  C29      1.0000 0.30710  0.08340  0.56610  Biso   1.000  C
  C30      1.0000 0.69290  0.91660  0.43390  Biso   1.000  C
  H37      1.0000 0.35060  0.09200  0.51190  Biso   1.000  H
  H38      1.0000 0.64940  0.90800  0.48810  Biso   1.000  H
  H39      1.0000 0.35580  0.12050  0.59700  Biso   1.000  H
  H40      1.0000 0.64420  0.87950  0.40300  Biso   1.000  H
  H41      1.0000 0.32140  0.98500  0.58540  Biso   1.000  H
  H42      1.0000 0.67860  0.01500  0.41460  Biso   1.000  H
  C31      1.0000 0.57900  0.07340  0.19870  Biso   1.000  C
  C32      1.0000 0.42100  0.92660  0.80130  Biso   1.000  C
  H43      1.0000 0.55180  0.17210  0.19220  Biso   1.000  H
  H44      1.0000 0.44820  0.82790  0.80780  Biso   1.000  H
  C33      1.0000 0.15340  0.48080  0.30120  Biso   1.000  C
  C34      1.0000 0.84660  0.51920  0.69880  Biso   1.000  C
  H45      1.0000 0.14430  0.44610  0.25500  Biso   1.000  H
  H46      1.0000 0.85570  0.55390  0.74500  Biso   1.000  H
  H47      1.0000 0.05600  0.51040  0.33220  Biso   1.000  H
  H48      1.0000 0.94400  0.48960  0.66780  Biso   1.000  H
  H49      1.0000 0.19010  0.56030  0.28570  Biso   1.000  H
  H50      1.0000 0.80990  0.43970  0.71430  Biso   1.000  H
  C35      1.0000 0.06370  0.14570  0.67760  Biso   1.000  C
  C36      1.0000 0.93630  0.85430  0.32240  Biso   1.000  C
  H51      1.0000 0.95740  0.19250  0.69210  Biso   1.000  H
  H52      1.0000 0.04260  0.80750  0.30790  Biso   1.000  H
  H53      1.0000 0.08720  0.04490  0.69260  Biso   1.000  H
  H54      1.0000 0.91280  0.95510  0.30740  Biso   1.000  H
  H55      1.0000 0.12190  0.18030  0.70410  Biso   1.000  H
  H56      1.0000 0.87810  0.81970  0.29590  Biso   1.000  H
  C37      1.0000 0.27170  0.44210  0.43600  Biso   1.000  C
  C38      1.0000 0.72830  0.55790  0.56400  Biso   1.000  C
  H57      1.0000 0.33690  0.38230  0.47410  Biso   1.000  H
  H58      1.0000 0.66310  0.61770  0.52590  Biso   1.000  H
  H59      1.0000 0.30350  0.52310  0.41460  Biso   1.000  H
  H60      1.0000 0.69650  0.47690  0.58540  Biso   1.000  H
  H61      1.0000 0.16910  0.47360  0.46100  Biso   1.000  H
  H62      1.0000 0.83090  0.52640  0.53900  Biso   1.000  H
  H63      1.0000 0.99300  0.79400  0.79600  Biso   1.000  H
  H64      1.0000 0.00700  0.20600  0.20400  Biso   1.000  H
  H65      1.0000 0.86500  0.99600  0.06800  Biso   1.000  H
  H66      1.0000 0.13500  0.00400  0.93200  Biso   1.000  H
  S13      1.0000 0.73900  0.25110  0.34950  Biso   1.000  S
  S14      1.0000 0.26100  0.74890  0.65050  Biso   1.000  S
