data_image0
_cell_length_a       9.056
_cell_length_b       14.1567
_cell_length_c       10.2238
_cell_angle_alpha    90
_cell_angle_beta     107.808
_cell_angle_gamma    90

_symmetry_space_group_name_H-M    "P 1"
_symmetry_int_tables_number       1

loop_
  _symmetry_equiv_pos_as_xyz
  'x, y, z'

loop_
  _atom_site_label
  _atom_site_occupancy
  _atom_site_fract_x
  _atom_site_fract_y
  _atom_site_fract_z
  _atom_site_thermal_displace_type
  _atom_site_B_iso_or_equiv
  _atom_site_type_symbol
  C1       1.0000 0.99100  0.33680  0.01100  Biso   1.000  C
  C2       1.0000 0.00900  0.83680  0.98900  Biso   1.000  C
  H1       1.0000 0.92050  0.28720  0.98880  Biso   1.000  H
  H2       1.0000 0.07950  0.78720  0.01120  Biso   1.000  H
  C3       1.0000 0.10620  0.33580  0.13400  Biso   1.000  C
  C4       1.0000 0.89380  0.83580  0.86600  Biso   1.000  C
  H3       1.0000 0.11210  0.28660  0.19550  Biso   1.000  H
  H4       1.0000 0.88790  0.78660  0.80450  Biso   1.000  H
  C5       1.0000 0.21380  0.40800  0.16670  Biso   1.000  C
  C6       1.0000 0.78620  0.90800  0.83330  Biso   1.000  C
  H5       1.0000 0.29330  0.40710  0.24970  Biso   1.000  H
  H6       1.0000 0.70670  0.90710  0.75030  Biso   1.000  H
  C7       1.0000 0.20260  0.48110  0.07580  Biso   1.000  C
  C8       1.0000 0.79740  0.98110  0.92420  Biso   1.000  C
  H7       1.0000 0.27320  0.53070  0.09650  Biso   1.000  H
  H8       1.0000 0.72680  0.03070  0.90350  Biso   1.000  H
  C9       1.0000 0.08400  0.47910  0.95290  Biso   1.000  C
  C10      1.0000 0.91600  0.97910  0.04710  Biso   1.000  C
  C11      1.0000 0.06100  0.55190  0.84310  Biso   1.000  C
  C12      1.0000 0.93900  0.05190  0.15690  Biso   1.000  C
  C13      1.0000 0.16540  0.62250  0.84470  Biso   1.000  C
  C14      1.0000 0.83460  0.12250  0.15530  Biso   1.000  C
  H9       1.0000 0.25580  0.62800  0.91820  Biso   1.000  H
  H10      1.0000 0.74420  0.12800  0.08180  Biso   1.000  H
  C15      1.0000 0.13500  0.68580  0.73580  Biso   1.000  C
  C16      1.0000 0.86500  0.18580  0.26420  Biso   1.000  C
  H11      1.0000 0.20250  0.73550  0.73700  Biso   1.000  H
  H12      1.0000 0.79750  0.23550  0.26300  Biso   1.000  H
  C17      1.0000 0.00070  0.67330  0.62390  Biso   1.000  C
  C18      1.0000 0.99930  0.17330  0.37610  Biso   1.000  C
  H13      1.0000 0.97850  0.71310  0.54810  Biso   1.000  H
  H14      1.0000 0.02150  0.21310  0.45190  Biso   1.000  H
  C19      1.0000 0.90250  0.59980  0.63000  Biso   1.000  C
  C20      1.0000 0.09750  0.09980  0.37000  Biso   1.000  C
  H15      1.0000 0.81230  0.59130  0.55700  Biso   1.000  H
  H16      1.0000 0.18770  0.09130  0.44300  Biso   1.000  H
  C21      1.0000 0.79260  0.26290  0.63800  Biso   1.000  C
  C22      1.0000 0.20740  0.76290  0.36200  Biso   1.000  C
  C23      1.0000 0.77430  0.16230  0.58790  Biso   1.000  C
  C24      1.0000 0.22570  0.66230  0.41210  Biso   1.000  C
  C25      1.0000 0.89410  0.09870  0.63040  Biso   1.000  C
  C26      1.0000 0.10590  0.59870  0.36960  Biso   1.000  C
  C27      1.0000 0.89150  0.01180  0.56310  Biso   1.000  C
  C28      1.0000 0.10850  0.51180  0.43690  Biso   1.000  C
  C29      1.0000 0.75310  0.98740  0.45810  Biso   1.000  C
  C30      1.0000 0.24690  0.48740  0.54190  Biso   1.000  C
  C31      1.0000 0.62220  0.04620  0.42300  Biso   1.000  C
  C32      1.0000 0.37780  0.54620  0.57700  Biso   1.000  C
  C33      1.0000 0.63850  0.13430  0.48830  Biso   1.000  C
  C34      1.0000 0.36150  0.63430  0.51170  Biso   1.000  C
  C35      1.0000 0.47280  0.01630  0.32700  Biso   1.000  C
  C36      1.0000 0.52720  0.51630  0.67300  Biso   1.000  C
  Cu1      1.0000 0.80748  0.42527  0.74686  Biso   1.000  Cu
  Cu2      1.0000 0.19252  0.92527  0.25314  Biso   1.000  Cu
  I1       1.0000 0.74580  0.86526  0.34041  Biso   1.000  I
  I2       1.0000 0.25420  0.36526  0.65959  Biso   1.000  I
  I3       1.0000 0.09330  0.13481  0.79244  Biso   1.000  I
  I4       1.0000 0.90670  0.63481  0.20756  Biso   1.000  I
  I5       1.0000 0.45697  0.23372  0.42074  Biso   1.000  I
  I6       1.0000 0.54303  0.73372  0.57926  Biso   1.000  I
  N1       1.0000 0.97760  0.40930  0.92010  Biso   1.000  N
  N2       1.0000 0.02240  0.90930  0.07990  Biso   1.000  N
  N3       1.0000 0.93200  0.54000  0.73720  Biso   1.000  N
  N4       1.0000 0.06800  0.04000  0.26280  Biso   1.000  N
  N5       1.0000 0.01640  0.95110  0.59630  Biso   1.000  N
  N6       1.0000 0.98360  0.45110  0.40370  Biso   1.000  N
  H17      1.0000 0.09980  0.96590  0.66020  Biso   1.000  H
  H18      1.0000 0.90020  0.46590  0.33980  Biso   1.000  H
  H19      1.0000 0.01090  0.89840  0.55310  Biso   1.000  H
  H20      1.0000 0.98910  0.39840  0.44690  Biso   1.000  H
  O1       1.0000 0.74150  0.28900  0.73880  Biso   1.000  O
  O2       1.0000 0.25850  0.78900  0.26120  Biso   1.000  O
  O3       1.0000 0.85540  0.31970  0.57970  Biso   1.000  O
  O4       1.0000 0.14460  0.81970  0.42030  Biso   1.000  O
  O5       1.0000 0.38610  0.96870  0.38480  Biso   1.000  O
  O6       1.0000 0.61390  0.46870  0.61520  Biso   1.000  O
  O7       1.0000 0.43240  0.03400  0.20400  Biso   1.000  O
  O8       1.0000 0.56760  0.53400  0.79600  Biso   1.000  O
  C37      1.0000 0.59600  0.40310  0.03670  Biso   1.000  C
  C38      1.0000 0.40400  0.90310  0.96330  Biso   1.000  C
  H21      1.0000 0.51430  0.44900  0.01250  Biso   1.000  H
  H22      1.0000 0.48570  0.94900  0.98750  Biso   1.000  H
  H23      1.0000 0.59110  0.36460  0.95810  Biso   1.000  H
  H24      1.0000 0.40890  0.86460  0.04190  Biso   1.000  H
  H25      1.0000 0.69450  0.43490  0.06640  Biso   1.000  H
  H26      1.0000 0.30550  0.93490  0.93360  Biso   1.000  H
  O9       1.0000 0.58000  0.34640  0.14240  Biso   1.000  O
  O10      1.0000 0.42000  0.84640  0.85760  Biso   1.000  O
  H27      1.0000 0.57090  0.37980  0.20500  Biso   1.000  H
  H28      1.0000 0.42910  0.87980  0.79500  Biso   1.000  H
  O11      1.0000 0.60840  0.48550  0.33560  Biso   1.000  O
  O12      1.0000 0.39160  0.98550  0.66440  Biso   1.000  O
  H29      1.0000 0.62630  0.49490  0.42180  Biso   1.000  H
  H30      1.0000 0.37370  0.99490  0.57820  Biso   1.000  H
  H31      1.0000 0.52440  0.51560  0.29170  Biso   1.000  H
  H32      1.0000 0.47560  0.01560  0.70830  Biso   1.000  H
  O13      1.0000 0.46690  0.64980  0.19400  Biso   1.000  O
  O14      1.0000 0.53310  0.14980  0.80600  Biso   1.000  O
  H33      1.0000 0.41460  0.69730  0.20440  Biso   1.000  H
  H34      1.0000 0.58540  0.19730  0.79560  Biso   1.000  H
  H35      1.0000 0.49560  0.65670  0.12270  Biso   1.000  H
  H36      1.0000 0.50440  0.15670  0.87730  Biso   1.000  H
  O15      1.0000 0.41220  0.18870  0.01970  Biso   1.000  O
  O16      1.0000 0.58780  0.68870  0.98030  Biso   1.000  O
  H37      1.0000 0.37130  0.15950  0.07350  Biso   1.000  H
  H38      1.0000 0.62870  0.65950  0.92650  Biso   1.000  H
  H39      1.0000 0.44490  0.24210  0.05340  Biso   1.000  H
  H40      1.0000 0.55510  0.74210  0.94660  Biso   1.000  H
