data_image0
_cell_length_a       10.385
_cell_length_b       11.555
_cell_length_c       11.79
_cell_angle_alpha    73.91
_cell_angle_beta     84.09
_cell_angle_gamma    70.54

_symmetry_space_group_name_H-M    "P 1"
_symmetry_int_tables_number       1

loop_
  _symmetry_equiv_pos_as_xyz
  'x, y, z'

loop_
  _atom_site_label
  _atom_site_occupancy
  _atom_site_fract_x
  _atom_site_fract_y
  _atom_site_fract_z
  _atom_site_thermal_displace_type
  _atom_site_B_iso_or_equiv
  _atom_site_type_symbol
  Cu1      1.0000 0.62650  0.31508  0.74744  Biso   1.000  Cu
  Cu2      1.0000 0.37350  0.68492  0.25256  Biso   1.000  Cu
  Cu3      1.0000 0.00000  0.00000  0.00000  Biso   1.000  Cu
  O1       1.0000 0.55670  0.26200  0.91340  Biso   1.000  O
  O2       1.0000 0.44330  0.73800  0.08660  Biso   1.000  O
  O3       1.0000 0.77420  0.15920  0.93180  Biso   1.000  O
  O4       1.0000 0.22580  0.84080  0.06820  Biso   1.000  O
  O5       1.0000 0.04930  0.04820  0.83380  Biso   1.000  O
  O6       1.0000 0.95070  0.95180  0.16620  Biso   1.000  O
  O7       1.0000 0.20800  0.41510  0.79530  Biso   1.000  O
  O8       1.0000 0.79200  0.58490  0.20470  Biso   1.000  O
  N1       1.0000 0.65870  0.18700  0.97960  Biso   1.000  N
  N2       1.0000 0.34130  0.81300  0.02040  Biso   1.000  N
  O9       1.0000 0.63790  0.14510  0.08440  Biso   1.000  O
  O10      1.0000 0.36210  0.85490  0.91560  Biso   1.000  O
  C1       1.0000 0.58420  0.94710  0.65970  Biso   1.000  C
  C2       1.0000 0.41580  0.05290  0.34030  Biso   1.000  C
  C3       1.0000 0.70970  0.96920  0.65070  Biso   1.000  C
  C4       1.0000 0.29030  0.03080  0.34930  Biso   1.000  C
  C5       1.0000 0.61350  0.52000  0.85480  Biso   1.000  C
  C6       1.0000 0.38650  0.48000  0.14520  Biso   1.000  C
  C7       1.0000 0.80900  0.86690  0.98880  Biso   1.000  C
  C8       1.0000 0.19100  0.13310  0.01120  Biso   1.000  C
  C9       1.0000 0.79520  0.59880  0.87260  Biso   1.000  C
  C10      1.0000 0.20480  0.40120  0.12740  Biso   1.000  C
  C11      1.0000 0.84570  0.68830  0.90940  Biso   1.000  C
  C12      1.0000 0.15430  0.31170  0.09060  Biso   1.000  C
  C13      1.0000 0.56720  0.84050  0.62260  Biso   1.000  C
  C14      1.0000 0.43280  0.15950  0.37740  Biso   1.000  C
  C15      1.0000 0.44330  0.81570  0.63750  Biso   1.000  C
  C16      1.0000 0.55670  0.18430  0.36250  Biso   1.000  C
  C17      1.0000 0.49260  0.13380  0.73150  Biso   1.000  C
  C18      1.0000 0.50740  0.86620  0.26850  Biso   1.000  C
  N3       1.0000 0.69340  0.43620  0.79740  Biso   1.000  N
  N4       1.0000 0.30660  0.56380  0.20260  Biso   1.000  N
  N5       1.0000 0.94070  0.86320  0.97090  Biso   1.000  N
  N6       1.0000 0.05930  0.13680  0.02910  Biso   1.000  N
  N7       1.0000 0.53140  0.64360  0.54750  Biso   1.000  N
  N8       1.0000 0.46860  0.35640  0.45250  Biso   1.000  N
  C19      1.0000 0.98290  0.68220  0.89530  Biso   1.000  C
  C20      1.0000 0.01710  0.31780  0.10470  Biso   1.000  C
  N9       1.0000 0.61190  0.15680  0.71850  Biso   1.000  N
  N10      1.0000 0.38810  0.84320  0.28150  Biso   1.000  N
  C21      1.0000 0.47480  0.03170  0.70320  Biso   1.000  C
  C22      1.0000 0.52520  0.96830  0.29680  Biso   1.000  C
  C23      1.0000 0.66030  0.60060  0.89310  Biso   1.000  C
  C24      1.0000 0.33970  0.39940  0.10690  Biso   1.000  C
  C25      1.0000 0.67220  0.76280  0.56760  Biso   1.000  C
  C26      1.0000 0.32780  0.23720  0.43240  Biso   1.000  C
  C27      1.0000 0.02540  0.76970  0.92530  Biso   1.000  C
  C28      1.0000 0.97460  0.23030  0.07470  Biso   1.000  C
  C29      1.0000 0.87690  0.51310  0.81300  Biso   1.000  C
  C30      1.0000 0.12310  0.48690  0.18700  Biso   1.000  C
  C31      1.0000 0.75890  0.78280  0.95940  Biso   1.000  C
  C32      1.0000 0.24110  0.21720  0.04060  Biso   1.000  C
  C33      1.0000 0.71860  0.07440  0.67930  Biso   1.000  C
  C34      1.0000 0.28140  0.92560  0.32070  Biso   1.000  C
  C35      1.0000 0.42930  0.71860  0.59950  Biso   1.000  C
  C36      1.0000 0.57070  0.28140  0.40050  Biso   1.000  C
  C37      1.0000 0.65110  0.66610  0.53290  Biso   1.000  C
  C38      1.0000 0.34890  0.33390  0.46710  Biso   1.000  C
  C39      1.0000 0.82380  0.43400  0.77780  Biso   1.000  C
  C40      1.0000 0.17620  0.56600  0.22220  Biso   1.000  C
  Cu4      1.0000 0.50000  0.50000  0.50000  Biso   1.000  Cu
  O11      1.0000 0.66260  0.37790  0.58310  Biso   1.000  O
  O12      1.0000 0.33740  0.62210  0.41690  Biso   1.000  O
  O13      1.0000 0.39700  0.42800  0.70130  Biso   1.000  O
  O14      1.0000 0.60300  0.57200  0.29870  Biso   1.000  O
  O15      1.0000 0.30060  0.54450  0.82260  Biso   1.000  O
  O16      1.0000 0.69940  0.45550  0.17740  Biso   1.000  O
  N11      1.0000 0.30040  0.46430  0.77250  Biso   1.000  N
  N12      1.0000 0.69960  0.53570  0.22750  Biso   1.000  N
  H1       1.0000 0.04600  0.62500  0.86100  Biso   1.000  H
  H2       1.0000 0.95400  0.37500  0.13900  Biso   1.000  H
  H3       1.0000 0.42100  0.18200  0.77000  Biso   1.000  H
  H4       1.0000 0.57900  0.81800  0.23000  Biso   1.000  H
  H5       1.0000 0.11600  0.77000  0.91800  Biso   1.000  H
  H6       1.0000 0.88400  0.23000  0.08200  Biso   1.000  H
  H7       1.0000 0.76400  0.92500  0.03800  Biso   1.000  H
  H8       1.0000 0.23600  0.07500  0.96200  Biso   1.000  H
  H9       1.0000 0.66600  0.78800  0.97600  Biso   1.000  H
  H10      1.0000 0.33400  0.21200  0.02400  Biso   1.000  H
  H11      1.0000 0.75300  0.77900  0.55300  Biso   1.000  H
  H12      1.0000 0.24700  0.22100  0.44700  Biso   1.000  H
  H13      1.0000 0.37100  0.02900  0.71500  Biso   1.000  H
  H14      1.0000 0.62900  0.97100  0.28500  Biso   1.000  H
  H15      1.0000 0.79800  0.10600  0.66900  Biso   1.000  H
  H16      1.0000 0.20200  0.89400  0.33100  Biso   1.000  H
  H17      1.0000 0.60900  0.64300  0.93400  Biso   1.000  H
  H18      1.0000 0.39100  0.35700  0.06600  Biso   1.000  H
  H19      1.0000 0.38000  0.85300  0.67900  Biso   1.000  H
  H20      1.0000 0.62000  0.14700  0.32100  Biso   1.000  H
  H21      1.0000 0.70700  0.63200  0.48900  Biso   1.000  H
  H22      1.0000 0.29300  0.36800  0.51100  Biso   1.000  H
  H23      1.0000 0.33700  0.70200  0.60800  Biso   1.000  H
  H24      1.0000 0.66300  0.29800  0.39200  Biso   1.000  H
  H25      1.0000 0.78000  0.92000  0.62300  Biso   1.000  H
  H26      1.0000 0.22000  0.08000  0.37700  Biso   1.000  H
  H27      1.0000 0.95800  0.51300  0.79200  Biso   1.000  H
  H28      1.0000 0.04200  0.48700  0.20800  Biso   1.000  H
  H29      1.0000 0.51600  0.52000  0.86700  Biso   1.000  H
  H30      1.0000 0.48400  0.48000  0.13300  Biso   1.000  H
  H31      1.0000 0.89200  0.36200  0.72400  Biso   1.000  H
  H32      1.0000 0.10800  0.63800  0.27600  Biso   1.000  H
  H33      1.0000 0.11300  0.00440  0.78090  Biso   1.000  H
  H34      1.0000 0.88700  0.99560  0.21910  Biso   1.000  H
  H35      1.0000 0.07980  0.12130  0.78410  Biso   1.000  H
  H36      1.0000 0.92020  0.87870  0.21590  Biso   1.000  H
  O17      1.0000 0.95130  0.36840  0.51450  Biso   1.000  O
  O18      1.0000 0.04870  0.63160  0.48550  Biso   1.000  O
  N13      1.0000 0.95790  0.28200  0.46900  Biso   1.000  N
  N14      1.0000 0.04210  0.71800  0.53100  Biso   1.000  N
  O19      1.0000 0.89830  0.30400  0.37580  Biso   1.000  O
  O20      1.0000 0.10170  0.69600  0.62420  Biso   1.000  O
  O21      1.0000 0.02820  0.16950  0.51760  Biso   1.000  O
  O22      1.0000 0.97180  0.83050  0.48240  Biso   1.000  O
  O23      1.0000 0.09620  0.92450  0.66720  Biso   1.000  O
  O24      1.0000 0.90380  0.07550  0.33280  Biso   1.000  O
  H37      1.0000 0.06450  0.99470  0.59890  Biso   1.000  H
  H38      1.0000 0.93550  0.00530  0.40110  Biso   1.000  H
  H39      1.0000 0.10120  0.84720  0.64530  Biso   1.000  H
  H40      1.0000 0.89880  0.15280  0.35470  Biso   1.000  H
