data_image0
_cell_length_a       12.7518
_cell_length_b       16.9282
_cell_length_c       17.7198
_cell_angle_alpha    90
_cell_angle_beta     90
_cell_angle_gamma    90

_symmetry_space_group_name_H-M    "P 1"
_symmetry_int_tables_number       1

loop_
  _symmetry_equiv_pos_as_xyz
  'x, y, z'

loop_
  _atom_site_label
  _atom_site_occupancy
  _atom_site_fract_x
  _atom_site_fract_y
  _atom_site_fract_z
  _atom_site_thermal_displace_type
  _atom_site_B_iso_or_equiv
  _atom_site_type_symbol
  C1       1.0000 0.33950  0.06760  0.09920  Biso   1.000  C
  C2       1.0000 0.66050  0.93240  0.09920  Biso   1.000  C
  C3       1.0000 0.33950  0.93240  0.90080  Biso   1.000  C
  C4       1.0000 0.66050  0.06760  0.90080  Biso   1.000  C
  C5       1.0000 0.33950  0.56760  0.59920  Biso   1.000  C
  C6       1.0000 0.66050  0.43240  0.59920  Biso   1.000  C
  C7       1.0000 0.33950  0.43240  0.40080  Biso   1.000  C
  C8       1.0000 0.66050  0.56760  0.40080  Biso   1.000  C
  C9       1.0000 0.83950  0.06760  0.59920  Biso   1.000  C
  C10      1.0000 0.16050  0.93240  0.59920  Biso   1.000  C
  C11      1.0000 0.83950  0.93240  0.40080  Biso   1.000  C
  C12      1.0000 0.16050  0.06760  0.40080  Biso   1.000  C
  C13      1.0000 0.83950  0.56760  0.09920  Biso   1.000  C
  C14      1.0000 0.16050  0.43240  0.09920  Biso   1.000  C
  C15      1.0000 0.83950  0.43240  0.90080  Biso   1.000  C
  C16      1.0000 0.16050  0.56760  0.90080  Biso   1.000  C
  C17      1.0000 0.66050  0.93240  0.90080  Biso   1.000  C
  C18      1.0000 0.33950  0.06760  0.90080  Biso   1.000  C
  C19      1.0000 0.66050  0.06760  0.09920  Biso   1.000  C
  C20      1.0000 0.33950  0.93240  0.09920  Biso   1.000  C
  C21      1.0000 0.66050  0.43240  0.40080  Biso   1.000  C
  C22      1.0000 0.33950  0.56760  0.40080  Biso   1.000  C
  C23      1.0000 0.66050  0.56760  0.59920  Biso   1.000  C
  C24      1.0000 0.33950  0.43240  0.59920  Biso   1.000  C
  C25      1.0000 0.16050  0.93240  0.40080  Biso   1.000  C
  C26      1.0000 0.83950  0.06760  0.40080  Biso   1.000  C
  C27      1.0000 0.16050  0.06760  0.59920  Biso   1.000  C
  C28      1.0000 0.83950  0.93240  0.59920  Biso   1.000  C
  C29      1.0000 0.16050  0.43240  0.90080  Biso   1.000  C
  C30      1.0000 0.83950  0.56760  0.90080  Biso   1.000  C
  C31      1.0000 0.16050  0.56760  0.09920  Biso   1.000  C
  C32      1.0000 0.83950  0.43240  0.09920  Biso   1.000  C
  H1       1.0000 0.37180  0.11610  0.08570  Biso   1.000  H
  H2       1.0000 0.62820  0.88390  0.08570  Biso   1.000  H
  H3       1.0000 0.37180  0.88390  0.91430  Biso   1.000  H
  H4       1.0000 0.62820  0.11610  0.91430  Biso   1.000  H
  H5       1.0000 0.37180  0.61610  0.58570  Biso   1.000  H
  H6       1.0000 0.62820  0.38390  0.58570  Biso   1.000  H
  H7       1.0000 0.37180  0.38390  0.41430  Biso   1.000  H
  H8       1.0000 0.62820  0.61610  0.41430  Biso   1.000  H
  H9       1.0000 0.87180  0.11610  0.58570  Biso   1.000  H
  H10      1.0000 0.12820  0.88390  0.58570  Biso   1.000  H
  H11      1.0000 0.87180  0.88390  0.41430  Biso   1.000  H
  H12      1.0000 0.12820  0.11610  0.41430  Biso   1.000  H
  H13      1.0000 0.87180  0.61610  0.08570  Biso   1.000  H
  H14      1.0000 0.12820  0.38390  0.08570  Biso   1.000  H
  H15      1.0000 0.87180  0.38390  0.91430  Biso   1.000  H
  H16      1.0000 0.12820  0.61610  0.91430  Biso   1.000  H
  H17      1.0000 0.62820  0.88390  0.91430  Biso   1.000  H
  H18      1.0000 0.37180  0.11610  0.91430  Biso   1.000  H
  H19      1.0000 0.62820  0.11610  0.08570  Biso   1.000  H
  H20      1.0000 0.37180  0.88390  0.08570  Biso   1.000  H
  H21      1.0000 0.62820  0.38390  0.41430  Biso   1.000  H
  H22      1.0000 0.37180  0.61610  0.41430  Biso   1.000  H
  H23      1.0000 0.62820  0.61610  0.58570  Biso   1.000  H
  H24      1.0000 0.37180  0.38390  0.58570  Biso   1.000  H
  H25      1.0000 0.12820  0.88390  0.41430  Biso   1.000  H
  H26      1.0000 0.87180  0.11610  0.41430  Biso   1.000  H
  H27      1.0000 0.12820  0.11610  0.58570  Biso   1.000  H
  H28      1.0000 0.87180  0.88390  0.58570  Biso   1.000  H
  H29      1.0000 0.12820  0.38390  0.91430  Biso   1.000  H
  H30      1.0000 0.87180  0.61610  0.91430  Biso   1.000  H
  H31      1.0000 0.12820  0.61610  0.08570  Biso   1.000  H
  H32      1.0000 0.87180  0.38390  0.08570  Biso   1.000  H
  C33      1.0000 0.24760  0.06930  0.14080  Biso   1.000  C
  C34      1.0000 0.75240  0.93070  0.14080  Biso   1.000  C
  C35      1.0000 0.24760  0.93070  0.85920  Biso   1.000  C
  C36      1.0000 0.75240  0.06930  0.85920  Biso   1.000  C
  C37      1.0000 0.24760  0.56930  0.64080  Biso   1.000  C
  C38      1.0000 0.75240  0.43070  0.64080  Biso   1.000  C
  C39      1.0000 0.24760  0.43070  0.35920  Biso   1.000  C
  C40      1.0000 0.75240  0.56930  0.35920  Biso   1.000  C
  C41      1.0000 0.74760  0.06930  0.64080  Biso   1.000  C
  C42      1.0000 0.25240  0.93070  0.64080  Biso   1.000  C
  C43      1.0000 0.74760  0.93070  0.35920  Biso   1.000  C
  C44      1.0000 0.25240  0.06930  0.35920  Biso   1.000  C
  C45      1.0000 0.74760  0.56930  0.14080  Biso   1.000  C
  C46      1.0000 0.25240  0.43070  0.14080  Biso   1.000  C
  C47      1.0000 0.74760  0.43070  0.85920  Biso   1.000  C
  C48      1.0000 0.25240  0.56930  0.85920  Biso   1.000  C
  C49      1.0000 0.75240  0.93070  0.85920  Biso   1.000  C
  C50      1.0000 0.24760  0.06930  0.85920  Biso   1.000  C
  C51      1.0000 0.75240  0.06930  0.14080  Biso   1.000  C
  C52      1.0000 0.24760  0.93070  0.14080  Biso   1.000  C
  C53      1.0000 0.75240  0.43070  0.35920  Biso   1.000  C
  C54      1.0000 0.24760  0.56930  0.35920  Biso   1.000  C
  C55      1.0000 0.75240  0.56930  0.64080  Biso   1.000  C
  C56      1.0000 0.24760  0.43070  0.64080  Biso   1.000  C
  C57      1.0000 0.25240  0.93070  0.35920  Biso   1.000  C
  C58      1.0000 0.74760  0.06930  0.35920  Biso   1.000  C
  C59      1.0000 0.25240  0.06930  0.64080  Biso   1.000  C
  C60      1.0000 0.74760  0.93070  0.64080  Biso   1.000  C
  C61      1.0000 0.25240  0.43070  0.85920  Biso   1.000  C
  C62      1.0000 0.74760  0.56930  0.85920  Biso   1.000  C
  C63      1.0000 0.25240  0.56930  0.14080  Biso   1.000  C
  C64      1.0000 0.74760  0.43070  0.14080  Biso   1.000  C
  H33      1.0000 0.21800  0.11860  0.15520  Biso   1.000  H
  H34      1.0000 0.78200  0.88140  0.15520  Biso   1.000  H
  H35      1.0000 0.21800  0.88140  0.84480  Biso   1.000  H
  H36      1.0000 0.78200  0.11860  0.84480  Biso   1.000  H
  H37      1.0000 0.21800  0.61860  0.65520  Biso   1.000  H
  H38      1.0000 0.78200  0.38140  0.65520  Biso   1.000  H
  H39      1.0000 0.21800  0.38140  0.34480  Biso   1.000  H
  H40      1.0000 0.78200  0.61860  0.34480  Biso   1.000  H
  H41      1.0000 0.71800  0.11860  0.65520  Biso   1.000  H
  H42      1.0000 0.28200  0.88140  0.65520  Biso   1.000  H
  H43      1.0000 0.71800  0.88140  0.34480  Biso   1.000  H
  H44      1.0000 0.28200  0.11860  0.34480  Biso   1.000  H
  H45      1.0000 0.71800  0.61860  0.15520  Biso   1.000  H
  H46      1.0000 0.28200  0.38140  0.15520  Biso   1.000  H
  H47      1.0000 0.71800  0.38140  0.84480  Biso   1.000  H
  H48      1.0000 0.28200  0.61860  0.84480  Biso   1.000  H
  H49      1.0000 0.78200  0.88140  0.84480  Biso   1.000  H
  H50      1.0000 0.21800  0.11860  0.84480  Biso   1.000  H
  H51      1.0000 0.78200  0.11860  0.15520  Biso   1.000  H
  H52      1.0000 0.21800  0.88140  0.15520  Biso   1.000  H
  H53      1.0000 0.78200  0.38140  0.34480  Biso   1.000  H
  H54      1.0000 0.21800  0.61860  0.34480  Biso   1.000  H
  H55      1.0000 0.78200  0.61860  0.65520  Biso   1.000  H
  H56      1.0000 0.21800  0.38140  0.65520  Biso   1.000  H
  H57      1.0000 0.28200  0.88140  0.34480  Biso   1.000  H
  H58      1.0000 0.71800  0.11860  0.34480  Biso   1.000  H
  H59      1.0000 0.28200  0.11860  0.65520  Biso   1.000  H
  H60      1.0000 0.71800  0.88140  0.65520  Biso   1.000  H
  H61      1.0000 0.28200  0.38140  0.84480  Biso   1.000  H
  H62      1.0000 0.71800  0.61860  0.84480  Biso   1.000  H
  H63      1.0000 0.28200  0.61860  0.15520  Biso   1.000  H
  H64      1.0000 0.71800  0.38140  0.15520  Biso   1.000  H
  C65      1.0000 0.19900  0.00000  0.16140  Biso   1.000  C
  C66      1.0000 0.80100  0.00000  0.16140  Biso   1.000  C
  C67      1.0000 0.19900  0.00000  0.83860  Biso   1.000  C
  C68      1.0000 0.80100  0.00000  0.83860  Biso   1.000  C
  C69      1.0000 0.19900  0.50000  0.66140  Biso   1.000  C
  C70      1.0000 0.80100  0.50000  0.66140  Biso   1.000  C
  C71      1.0000 0.19900  0.50000  0.33860  Biso   1.000  C
  C72      1.0000 0.80100  0.50000  0.33860  Biso   1.000  C
  C73      1.0000 0.69900  0.00000  0.66140  Biso   1.000  C
  C74      1.0000 0.30100  0.00000  0.66140  Biso   1.000  C
  C75      1.0000 0.69900  0.00000  0.33860  Biso   1.000  C
  C76      1.0000 0.30100  0.00000  0.33860  Biso   1.000  C
  C77      1.0000 0.69900  0.50000  0.16140  Biso   1.000  C
  C78      1.0000 0.30100  0.50000  0.16140  Biso   1.000  C
  C79      1.0000 0.69900  0.50000  0.83860  Biso   1.000  C
  C80      1.0000 0.30100  0.50000  0.83860  Biso   1.000  C
  C81      1.0000 0.09760  0.00000  0.20570  Biso   1.000  C
  C82      1.0000 0.90240  0.00000  0.20570  Biso   1.000  C
  C83      1.0000 0.09760  0.00000  0.79430  Biso   1.000  C
  C84      1.0000 0.90240  0.00000  0.79430  Biso   1.000  C
  C85      1.0000 0.09760  0.50000  0.70570  Biso   1.000  C
  C86      1.0000 0.90240  0.50000  0.70570  Biso   1.000  C
  C87      1.0000 0.09760  0.50000  0.29430  Biso   1.000  C
  C88      1.0000 0.90240  0.50000  0.29430  Biso   1.000  C
  C89      1.0000 0.59760  0.00000  0.70570  Biso   1.000  C
  C90      1.0000 0.40240  0.00000  0.70570  Biso   1.000  C
  C91      1.0000 0.59760  0.00000  0.29430  Biso   1.000  C
  C92      1.0000 0.40240  0.00000  0.29430  Biso   1.000  C
  C93      1.0000 0.59760  0.50000  0.20570  Biso   1.000  C
  C94      1.0000 0.40240  0.50000  0.20570  Biso   1.000  C
  C95      1.0000 0.59760  0.50000  0.79430  Biso   1.000  C
  C96      1.0000 0.40240  0.50000  0.79430  Biso   1.000  C
  H65      1.0000 0.09570  0.04720  0.23860  Biso   1.000  H
  H66      1.0000 0.90430  0.95280  0.23860  Biso   1.000  H
  H67      1.0000 0.09570  0.95280  0.76140  Biso   1.000  H
  H68      1.0000 0.90430  0.04720  0.76140  Biso   1.000  H
  H69      1.0000 0.09570  0.54720  0.73860  Biso   1.000  H
  H70      1.0000 0.90430  0.45280  0.73860  Biso   1.000  H
  H71      1.0000 0.09570  0.45280  0.26140  Biso   1.000  H
  H72      1.0000 0.90430  0.54720  0.26140  Biso   1.000  H
  H73      1.0000 0.59570  0.04720  0.73860  Biso   1.000  H
  H74      1.0000 0.40430  0.95280  0.73860  Biso   1.000  H
  H75      1.0000 0.59570  0.95280  0.26140  Biso   1.000  H
  H76      1.0000 0.40430  0.04720  0.26140  Biso   1.000  H
  H77      1.0000 0.59570  0.54720  0.23860  Biso   1.000  H
  H78      1.0000 0.40430  0.45280  0.23860  Biso   1.000  H
  H79      1.0000 0.59570  0.45280  0.76140  Biso   1.000  H
  H80      1.0000 0.40430  0.54720  0.76140  Biso   1.000  H
  H81      1.0000 0.90430  0.95280  0.76140  Biso   1.000  H
  H82      1.0000 0.09570  0.04720  0.76140  Biso   1.000  H
  H83      1.0000 0.90430  0.04720  0.23860  Biso   1.000  H
  H84      1.0000 0.09570  0.95280  0.23860  Biso   1.000  H
  H85      1.0000 0.90430  0.45280  0.26140  Biso   1.000  H
  H86      1.0000 0.09570  0.54720  0.26140  Biso   1.000  H
  H87      1.0000 0.90430  0.54720  0.73860  Biso   1.000  H
  H88      1.0000 0.09570  0.45280  0.73860  Biso   1.000  H
  H89      1.0000 0.40430  0.95280  0.26140  Biso   1.000  H
  H90      1.0000 0.59570  0.04720  0.26140  Biso   1.000  H
  H91      1.0000 0.40430  0.04720  0.73860  Biso   1.000  H
  H92      1.0000 0.59570  0.95280  0.73860  Biso   1.000  H
  H93      1.0000 0.40430  0.45280  0.76140  Biso   1.000  H
  H94      1.0000 0.59570  0.54720  0.76140  Biso   1.000  H
  H95      1.0000 0.40430  0.54720  0.23860  Biso   1.000  H
  H96      1.0000 0.59570  0.45280  0.23860  Biso   1.000  H
  C97      1.0000 0.00000  0.00000  0.15510  Biso   1.000  C
  C98      1.0000 0.00000  0.00000  0.84490  Biso   1.000  C
  C99      1.0000 0.00000  0.50000  0.65510  Biso   1.000  C
  C100     1.0000 0.00000  0.50000  0.34490  Biso   1.000  C
  C101     1.0000 0.50000  0.00000  0.65510  Biso   1.000  C
  C102     1.0000 0.50000  0.00000  0.34490  Biso   1.000  C
  C103     1.0000 0.50000  0.50000  0.15510  Biso   1.000  C
  C104     1.0000 0.50000  0.50000  0.84490  Biso   1.000  C
  H97      1.0000 0.00000  0.04740  0.12240  Biso   1.000  H
  H98      1.0000 0.00000  0.95260  0.12240  Biso   1.000  H
  H99      1.0000 0.00000  0.95260  0.87760  Biso   1.000  H
  H100     1.0000 0.00000  0.04740  0.87760  Biso   1.000  H
  H101     1.0000 0.00000  0.54740  0.62240  Biso   1.000  H
  H102     1.0000 0.00000  0.45260  0.62240  Biso   1.000  H
  H103     1.0000 0.00000  0.45260  0.37760  Biso   1.000  H
  H104     1.0000 0.00000  0.54740  0.37760  Biso   1.000  H
  H105     1.0000 0.50000  0.04740  0.62240  Biso   1.000  H
  H106     1.0000 0.50000  0.95260  0.62240  Biso   1.000  H
  H107     1.0000 0.50000  0.95260  0.37760  Biso   1.000  H
  H108     1.0000 0.50000  0.04740  0.37760  Biso   1.000  H
  H109     1.0000 0.50000  0.54740  0.12240  Biso   1.000  H
  H110     1.0000 0.50000  0.45260  0.12240  Biso   1.000  H
  H111     1.0000 0.50000  0.45260  0.87760  Biso   1.000  H
  H112     1.0000 0.50000  0.54740  0.87760  Biso   1.000  H
  Cu1      1.0000 0.50000  0.00000  0.00000  Biso   1.000  Cu
  Cu2      1.0000 0.50000  0.50000  0.50000  Biso   1.000  Cu
  Cu3      1.0000 0.00000  0.00000  0.50000  Biso   1.000  Cu
  Cu4      1.0000 0.00000  0.50000  0.00000  Biso   1.000  Cu
  N1       1.0000 0.38430  0.00000  0.07750  Biso   1.000  N
  N2       1.0000 0.61570  0.00000  0.07750  Biso   1.000  N
  N3       1.0000 0.38430  0.00000  0.92250  Biso   1.000  N
  N4       1.0000 0.61570  0.00000  0.92250  Biso   1.000  N
  N5       1.0000 0.38430  0.50000  0.57750  Biso   1.000  N
  N6       1.0000 0.61570  0.50000  0.57750  Biso   1.000  N
  N7       1.0000 0.38430  0.50000  0.42250  Biso   1.000  N
  N8       1.0000 0.61570  0.50000  0.42250  Biso   1.000  N
  N9       1.0000 0.88430  0.00000  0.57750  Biso   1.000  N
  N10      1.0000 0.11570  0.00000  0.57750  Biso   1.000  N
  N11      1.0000 0.88430  0.00000  0.42250  Biso   1.000  N
  N12      1.0000 0.11570  0.00000  0.42250  Biso   1.000  N
  N13      1.0000 0.88430  0.50000  0.07750  Biso   1.000  N
  N14      1.0000 0.11570  0.50000  0.07750  Biso   1.000  N
  N15      1.0000 0.88430  0.50000  0.92250  Biso   1.000  N
  N16      1.0000 0.11570  0.50000  0.92250  Biso   1.000  N
  C105     1.0000 0.00000  0.25480  0.00000  Biso   1.000  C
  C106     1.0000 0.00000  0.74520  0.00000  Biso   1.000  C
  C107     1.0000 0.00000  0.75480  0.50000  Biso   1.000  C
  C108     1.0000 0.00000  0.24520  0.50000  Biso   1.000  C
  C109     1.0000 0.50000  0.25480  0.50000  Biso   1.000  C
  C110     1.0000 0.50000  0.74520  0.50000  Biso   1.000  C
  C111     1.0000 0.50000  0.75480  0.00000  Biso   1.000  C
  C112     1.0000 0.50000  0.24520  0.00000  Biso   1.000  C
  C113     1.0000 0.09870  0.20920  0.00000  Biso   1.000  C
  C114     1.0000 0.90130  0.79080  0.00000  Biso   1.000  C
  C115     1.0000 0.09870  0.79080  0.00000  Biso   1.000  C
  C116     1.0000 0.90130  0.20920  0.00000  Biso   1.000  C
  C117     1.0000 0.09870  0.70920  0.50000  Biso   1.000  C
  C118     1.0000 0.90130  0.29080  0.50000  Biso   1.000  C
  C119     1.0000 0.09870  0.29080  0.50000  Biso   1.000  C
  C120     1.0000 0.90130  0.70920  0.50000  Biso   1.000  C
  C121     1.0000 0.59870  0.20920  0.50000  Biso   1.000  C
  C122     1.0000 0.40130  0.79080  0.50000  Biso   1.000  C
  C123     1.0000 0.59870  0.79080  0.50000  Biso   1.000  C
  C124     1.0000 0.40130  0.20920  0.50000  Biso   1.000  C
  C125     1.0000 0.59870  0.70920  0.00000  Biso   1.000  C
  C126     1.0000 0.40130  0.29080  0.00000  Biso   1.000  C
  C127     1.0000 0.59870  0.29080  0.00000  Biso   1.000  C
  C128     1.0000 0.40130  0.70920  0.00000  Biso   1.000  C
  O1       1.0000 0.00000  0.32630  0.00000  Biso   1.000  O
  O2       1.0000 0.00000  0.67370  0.00000  Biso   1.000  O
  O3       1.0000 0.00000  0.82630  0.50000  Biso   1.000  O
  O4       1.0000 0.00000  0.17370  0.50000  Biso   1.000  O
  O5       1.0000 0.50000  0.32630  0.50000  Biso   1.000  O
  O6       1.0000 0.50000  0.67370  0.50000  Biso   1.000  O
  O7       1.0000 0.50000  0.82630  0.00000  Biso   1.000  O
  O8       1.0000 0.50000  0.17370  0.00000  Biso   1.000  O
  P1       1.0000 0.00000  0.25000  0.25000  Biso   1.000  P
  P2       1.0000 0.00000  0.75000  0.25000  Biso   1.000  P
  P3       1.0000 0.00000  0.75000  0.75000  Biso   1.000  P
  P4       1.0000 0.00000  0.25000  0.75000  Biso   1.000  P
  P5       1.0000 0.50000  0.25000  0.75000  Biso   1.000  P
  P6       1.0000 0.50000  0.75000  0.75000  Biso   1.000  P
  P7       1.0000 0.50000  0.75000  0.25000  Biso   1.000  P
  P8       1.0000 0.50000  0.25000  0.25000  Biso   1.000  P
  F1       1.0000 0.00000  0.17630  0.29980  Biso   1.000  F
  F2       1.0000 0.00000  0.82370  0.29980  Biso   1.000  F
  F3       1.0000 0.00000  0.82370  0.70020  Biso   1.000  F
  F4       1.0000 0.00000  0.17630  0.70020  Biso   1.000  F
  F5       1.0000 0.00000  0.67630  0.79980  Biso   1.000  F
  F6       1.0000 0.00000  0.32370  0.79980  Biso   1.000  F
  F7       1.0000 0.00000  0.32370  0.20020  Biso   1.000  F
  F8       1.0000 0.00000  0.67630  0.20020  Biso   1.000  F
  F9       1.0000 0.50000  0.17630  0.79980  Biso   1.000  F
  F10      1.0000 0.50000  0.82370  0.79980  Biso   1.000  F
  F11      1.0000 0.50000  0.82370  0.20020  Biso   1.000  F
  F12      1.0000 0.50000  0.17630  0.20020  Biso   1.000  F
  F13      1.0000 0.50000  0.67630  0.29980  Biso   1.000  F
  F14      1.0000 0.50000  0.32370  0.29980  Biso   1.000  F
  F15      1.0000 0.50000  0.32370  0.70020  Biso   1.000  F
  F16      1.0000 0.50000  0.67630  0.70020  Biso   1.000  F
  F17      1.0000 0.00000  0.30340  0.31930  Biso   1.000  F
  F18      1.0000 0.00000  0.69660  0.31930  Biso   1.000  F
  F19      1.0000 0.00000  0.69660  0.68070  Biso   1.000  F
  F20      1.0000 0.00000  0.30340  0.68070  Biso   1.000  F
  F21      1.0000 0.00000  0.80340  0.81930  Biso   1.000  F
  F22      1.0000 0.00000  0.19660  0.81930  Biso   1.000  F
  F23      1.0000 0.00000  0.19660  0.18070  Biso   1.000  F
  F24      1.0000 0.00000  0.80340  0.18070  Biso   1.000  F
  F25      1.0000 0.50000  0.30340  0.81930  Biso   1.000  F
  F26      1.0000 0.50000  0.69660  0.81930  Biso   1.000  F
  F27      1.0000 0.50000  0.69660  0.18070  Biso   1.000  F
  F28      1.0000 0.50000  0.30340  0.18070  Biso   1.000  F
  F29      1.0000 0.50000  0.80340  0.31930  Biso   1.000  F
  F30      1.0000 0.50000  0.19660  0.31930  Biso   1.000  F
  F31      1.0000 0.50000  0.19660  0.68070  Biso   1.000  F
  F32      1.0000 0.50000  0.80340  0.68070  Biso   1.000  F
  F33      1.0000 0.11010  0.26790  0.27460  Biso   1.000  F
  F34      1.0000 0.88990  0.73210  0.27460  Biso   1.000  F
  F35      1.0000 0.11010  0.73210  0.72540  Biso   1.000  F
  F36      1.0000 0.88990  0.26790  0.72540  Biso   1.000  F
  F37      1.0000 0.11010  0.76790  0.77460  Biso   1.000  F
  F38      1.0000 0.88990  0.23210  0.77460  Biso   1.000  F
  F39      1.0000 0.11010  0.23210  0.22540  Biso   1.000  F
  F40      1.0000 0.88990  0.76790  0.22540  Biso   1.000  F
  F41      1.0000 0.61010  0.26790  0.77460  Biso   1.000  F
  F42      1.0000 0.38990  0.73210  0.77460  Biso   1.000  F
  F43      1.0000 0.61010  0.73210  0.22540  Biso   1.000  F
  F44      1.0000 0.38990  0.26790  0.22540  Biso   1.000  F
  F45      1.0000 0.61010  0.76790  0.27460  Biso   1.000  F
  F46      1.0000 0.38990  0.23210  0.27460  Biso   1.000  F
  F47      1.0000 0.61010  0.23210  0.72540  Biso   1.000  F
  F48      1.0000 0.38990  0.76790  0.72540  Biso   1.000  F
  F49      1.0000 0.88990  0.73210  0.72540  Biso   1.000  F
  F50      1.0000 0.11010  0.26790  0.72540  Biso   1.000  F
  F51      1.0000 0.88990  0.26790  0.27460  Biso   1.000  F
  F52      1.0000 0.11010  0.73210  0.27460  Biso   1.000  F
  F53      1.0000 0.88990  0.23210  0.22540  Biso   1.000  F
  F54      1.0000 0.11010  0.76790  0.22540  Biso   1.000  F
  F55      1.0000 0.88990  0.76790  0.77460  Biso   1.000  F
  F56      1.0000 0.11010  0.23210  0.77460  Biso   1.000  F
  F57      1.0000 0.38990  0.73210  0.22540  Biso   1.000  F
  F58      1.0000 0.61010  0.26790  0.22540  Biso   1.000  F
  F59      1.0000 0.38990  0.26790  0.77460  Biso   1.000  F
  F60      1.0000 0.61010  0.73210  0.77460  Biso   1.000  F
  F61      1.0000 0.38990  0.23210  0.72540  Biso   1.000  F
  F62      1.0000 0.61010  0.76790  0.72540  Biso   1.000  F
  F63      1.0000 0.38990  0.76790  0.27460  Biso   1.000  F
  F64      1.0000 0.61010  0.23210  0.27460  Biso   1.000  F
  H113     1.0000 0.09040  0.16200  0.03160  Biso   1.000  H
  H114     1.0000 0.90960  0.83800  0.03160  Biso   1.000  H
  H115     1.0000 0.09040  0.83800  0.96840  Biso   1.000  H
  H116     1.0000 0.90960  0.16200  0.96840  Biso   1.000  H
  H117     1.0000 0.09040  0.66200  0.53160  Biso   1.000  H
  H118     1.0000 0.90960  0.33800  0.53160  Biso   1.000  H
  H119     1.0000 0.09040  0.33800  0.46840  Biso   1.000  H
  H120     1.0000 0.90960  0.66200  0.46840  Biso   1.000  H
  H121     1.0000 0.59040  0.16200  0.53160  Biso   1.000  H
  H122     1.0000 0.40960  0.83800  0.53160  Biso   1.000  H
  H123     1.0000 0.59040  0.83800  0.46840  Biso   1.000  H
  H124     1.0000 0.40960  0.16200  0.46840  Biso   1.000  H
  H125     1.0000 0.59040  0.66200  0.03160  Biso   1.000  H
  H126     1.0000 0.40960  0.33800  0.03160  Biso   1.000  H
  H127     1.0000 0.59040  0.33800  0.96840  Biso   1.000  H
  H128     1.0000 0.40960  0.66200  0.96840  Biso   1.000  H
  H129     1.0000 0.90960  0.83800  0.96840  Biso   1.000  H
  H130     1.0000 0.09040  0.16200  0.96840  Biso   1.000  H
  H131     1.0000 0.90960  0.16200  0.03160  Biso   1.000  H
  H132     1.0000 0.09040  0.83800  0.03160  Biso   1.000  H
  H133     1.0000 0.90960  0.33800  0.46840  Biso   1.000  H
  H134     1.0000 0.09040  0.66200  0.46840  Biso   1.000  H
  H135     1.0000 0.90960  0.66200  0.53160  Biso   1.000  H
  H136     1.0000 0.09040  0.33800  0.53160  Biso   1.000  H
  H137     1.0000 0.40960  0.83800  0.46840  Biso   1.000  H
  H138     1.0000 0.59040  0.16200  0.46840  Biso   1.000  H
  H139     1.0000 0.40960  0.16200  0.53160  Biso   1.000  H
  H140     1.0000 0.59040  0.83800  0.53160  Biso   1.000  H
  H141     1.0000 0.40960  0.33800  0.96840  Biso   1.000  H
  H142     1.0000 0.59040  0.66200  0.96840  Biso   1.000  H
  H143     1.0000 0.40960  0.66200  0.03160  Biso   1.000  H
  H144     1.0000 0.59040  0.33800  0.03160  Biso   1.000  H
  H145     1.0000 0.15550  0.24200  0.02020  Biso   1.000  H
  H146     1.0000 0.84450  0.75800  0.02020  Biso   1.000  H
  H147     1.0000 0.15550  0.75800  0.97980  Biso   1.000  H
  H148     1.0000 0.84450  0.24200  0.97980  Biso   1.000  H
  H149     1.0000 0.15550  0.74200  0.52020  Biso   1.000  H
  H150     1.0000 0.84450  0.25800  0.52020  Biso   1.000  H
  H151     1.0000 0.15550  0.25800  0.47980  Biso   1.000  H
  H152     1.0000 0.84450  0.74200  0.47980  Biso   1.000  H
  H153     1.0000 0.65550  0.24200  0.52020  Biso   1.000  H
  H154     1.0000 0.34450  0.75800  0.52020  Biso   1.000  H
  H155     1.0000 0.65550  0.75800  0.47980  Biso   1.000  H
  H156     1.0000 0.34450  0.24200  0.47980  Biso   1.000  H
  H157     1.0000 0.65550  0.74200  0.02020  Biso   1.000  H
  H158     1.0000 0.34450  0.25800  0.02020  Biso   1.000  H
  H159     1.0000 0.65550  0.25800  0.97980  Biso   1.000  H
  H160     1.0000 0.34450  0.74200  0.97980  Biso   1.000  H
  H161     1.0000 0.84450  0.75800  0.97980  Biso   1.000  H
  H162     1.0000 0.15550  0.24200  0.97980  Biso   1.000  H
  H163     1.0000 0.84450  0.24200  0.02020  Biso   1.000  H
  H164     1.0000 0.15550  0.75800  0.02020  Biso   1.000  H
  H165     1.0000 0.84450  0.25800  0.47980  Biso   1.000  H
  H166     1.0000 0.15550  0.74200  0.47980  Biso   1.000  H
  H167     1.0000 0.84450  0.74200  0.52020  Biso   1.000  H
  H168     1.0000 0.15550  0.25800  0.52020  Biso   1.000  H
  H169     1.0000 0.34450  0.75800  0.47980  Biso   1.000  H
  H170     1.0000 0.65550  0.24200  0.47980  Biso   1.000  H
  H171     1.0000 0.34450  0.24200  0.52020  Biso   1.000  H
  H172     1.0000 0.65550  0.75800  0.52020  Biso   1.000  H
  H173     1.0000 0.34450  0.25800  0.97980  Biso   1.000  H
  H174     1.0000 0.65550  0.74200  0.97980  Biso   1.000  H
  H175     1.0000 0.34450  0.74200  0.02020  Biso   1.000  H
  H176     1.0000 0.65550  0.25800  0.02020  Biso   1.000  H
  H177     1.0000 0.11580  0.19320  0.94830  Biso   1.000  H
  H178     1.0000 0.88420  0.80680  0.94830  Biso   1.000  H
  H179     1.0000 0.11580  0.80680  0.05170  Biso   1.000  H
  H180     1.0000 0.88420  0.19320  0.05170  Biso   1.000  H
  H181     1.0000 0.11580  0.69320  0.44830  Biso   1.000  H
  H182     1.0000 0.88420  0.30680  0.44830  Biso   1.000  H
  H183     1.0000 0.11580  0.30680  0.55170  Biso   1.000  H
  H184     1.0000 0.88420  0.69320  0.55170  Biso   1.000  H
  H185     1.0000 0.61580  0.19320  0.44830  Biso   1.000  H
  H186     1.0000 0.38420  0.80680  0.44830  Biso   1.000  H
  H187     1.0000 0.61580  0.80680  0.55170  Biso   1.000  H
  H188     1.0000 0.38420  0.19320  0.55170  Biso   1.000  H
  H189     1.0000 0.61580  0.69320  0.94830  Biso   1.000  H
  H190     1.0000 0.38420  0.30680  0.94830  Biso   1.000  H
  H191     1.0000 0.61580  0.30680  0.05170  Biso   1.000  H
  H192     1.0000 0.38420  0.69320  0.05170  Biso   1.000  H
  H193     1.0000 0.88420  0.80680  0.05170  Biso   1.000  H
  H194     1.0000 0.11580  0.19320  0.05170  Biso   1.000  H
  H195     1.0000 0.88420  0.19320  0.94830  Biso   1.000  H
  H196     1.0000 0.11580  0.80680  0.94830  Biso   1.000  H
  H197     1.0000 0.88420  0.30680  0.55170  Biso   1.000  H
  H198     1.0000 0.11580  0.69320  0.55170  Biso   1.000  H
  H199     1.0000 0.88420  0.69320  0.44830  Biso   1.000  H
  H200     1.0000 0.11580  0.30680  0.44830  Biso   1.000  H
  H201     1.0000 0.38420  0.80680  0.55170  Biso   1.000  H
  H202     1.0000 0.61580  0.19320  0.55170  Biso   1.000  H
  H203     1.0000 0.38420  0.19320  0.44830  Biso   1.000  H
  H204     1.0000 0.61580  0.80680  0.44830  Biso   1.000  H
  H205     1.0000 0.38420  0.30680  0.05170  Biso   1.000  H
  H206     1.0000 0.61580  0.69320  0.05170  Biso   1.000  H
  H207     1.0000 0.38420  0.69320  0.94830  Biso   1.000  H
  H208     1.0000 0.61580  0.30680  0.94830  Biso   1.000  H
