data_image0
_cell_length_a       10.4143
_cell_length_b       11.0346
_cell_length_c       14.7206
_cell_angle_alpha    90
_cell_angle_beta     105.881
_cell_angle_gamma    90

_symmetry_space_group_name_H-M    "P 1"
_symmetry_int_tables_number       1

loop_
  _symmetry_equiv_pos_as_xyz
  'x, y, z'

loop_
  _atom_site_label
  _atom_site_occupancy
  _atom_site_fract_x
  _atom_site_fract_y
  _atom_site_fract_z
  _atom_site_thermal_displace_type
  _atom_site_B_iso_or_equiv
  _atom_site_type_symbol
  Cu1      1.0000 0.78646  0.65015  0.47883  Biso   1.000  Cu
  Cu2      1.0000 0.21354  0.15015  0.52117  Biso   1.000  Cu
  Cu3      1.0000 0.50749  0.75319  0.42083  Biso   1.000  Cu
  Cu4      1.0000 0.49251  0.25319  0.57917  Biso   1.000  Cu
  O1       1.0000 0.66060  0.73840  0.52981  Biso   1.000  O
  O2       1.0000 0.33940  0.23840  0.47019  Biso   1.000  O
  O3       1.0000 0.92560  0.59490  0.42359  Biso   1.000  O
  O4       1.0000 0.07440  0.09490  0.57641  Biso   1.000  O
  O5       1.0000 0.14420  0.59090  0.44664  Biso   1.000  O
  O6       1.0000 0.85580  0.09090  0.55336  Biso   1.000  O
  O7       1.0000 0.18910  0.27000  0.86950  Biso   1.000  O
  O8       1.0000 0.81090  0.77000  0.13050  Biso   1.000  O
  H1       1.0000 0.17700  0.22700  0.84700  Biso   1.000  H
  H2       1.0000 0.82300  0.72700  0.15300  Biso   1.000  H
  O9       1.0000 0.63165  0.66430  0.36900  Biso   1.000  O
  O10      1.0000 0.36835  0.16430  0.63100  Biso   1.000  O
  O11      1.0000 0.41160  0.87150  0.47261  Biso   1.000  O
  O12      1.0000 0.58840  0.37150  0.52739  Biso   1.000  O
  O13      1.0000 0.22270  0.97590  0.43676  Biso   1.000  O
  O14      1.0000 0.77730  0.47590  0.56324  Biso   1.000  O
  O15      1.0000 0.12210  0.86200  0.86052  Biso   1.000  O
  O16      1.0000 0.87790  0.36200  0.13948  Biso   1.000  O
  H3       1.0000 0.11300  0.92300  0.83800  Biso   1.000  H
  H4       1.0000 0.88700  0.42300  0.16200  Biso   1.000  H
  O17      1.0000 0.40280  0.56530  0.44079  Biso   1.000  O
  O18      1.0000 0.59720  0.06530  0.55921  Biso   1.000  O
  H5       1.0000 0.33400  0.56000  0.45700  Biso   1.000  H
  H6       1.0000 0.66600  0.06000  0.54300  Biso   1.000  H
  H7       1.0000 0.45200  0.51000  0.46500  Biso   1.000  H
  H8       1.0000 0.54800  0.01000  0.53500  Biso   1.000  H
  O19      1.0000 0.04580  0.06980  0.76151  Biso   1.000  O
  O20      1.0000 0.95420  0.56980  0.23849  Biso   1.000  O
  H9       1.0000 0.06900  0.06600  0.71600  Biso   1.000  H
  H10      1.0000 0.93100  0.56600  0.28400  Biso   1.000  H
  H11      1.0000 0.96700  0.06400  0.75500  Biso   1.000  H
  H12      1.0000 0.03300  0.56400  0.24500  Biso   1.000  H
  O21      1.0000 0.23660  0.55000  0.25570  Biso   1.000  O
  O22      1.0000 0.76340  0.05000  0.74430  Biso   1.000  O
  H13      1.0000 0.28400  0.52900  0.30670  Biso   1.000  H
  H14      1.0000 0.71600  0.02900  0.69330  Biso   1.000  H
  H15      1.0000 0.25800  0.51400  0.21400  Biso   1.000  H
  H16      1.0000 0.74200  0.01400  0.78600  Biso   1.000  H
  N1       1.0000 0.93740  0.68640  0.59082  Biso   1.000  N
  N2       1.0000 0.06260  0.18640  0.40918  Biso   1.000  N
  H17      1.0000 0.95020  0.61790  0.62780  Biso   1.000  H
  H18      1.0000 0.04980  0.11790  0.37220  Biso   1.000  H
  N3       1.0000 0.38190  0.79130  0.29734  Biso   1.000  N
  N4       1.0000 0.61810  0.29130  0.70266  Biso   1.000  N
  H19      1.0000 0.32850  0.72450  0.27780  Biso   1.000  H
  H20      1.0000 0.67150  0.22450  0.72220  Biso   1.000  H
  C1       1.0000 0.67020  0.74060  0.62370  Biso   1.000  C
  C2       1.0000 0.32980  0.24060  0.37630  Biso   1.000  C
  C3       1.0000 0.55910  0.72210  0.65630  Biso   1.000  C
  C4       1.0000 0.44090  0.22210  0.34370  Biso   1.000  C
  H21      1.0000 0.47590  0.70600  0.61320  Biso   1.000  H
  H22      1.0000 0.52410  0.20600  0.38680  Biso   1.000  H
  C5       1.0000 0.57030  0.72710  0.75260  Biso   1.000  C
  C6       1.0000 0.42970  0.22710  0.24740  Biso   1.000  C
  H23      1.0000 0.49460  0.71480  0.77460  Biso   1.000  H
  H24      1.0000 0.50540  0.21480  0.22540  Biso   1.000  H
  C7       1.0000 0.69250  0.75020  0.81590  Biso   1.000  C
  C8       1.0000 0.30750  0.25020  0.18410  Biso   1.000  C
  H25      1.0000 0.70010  0.75510  0.88090  Biso   1.000  H
  H26      1.0000 0.29990  0.25510  0.11910  Biso   1.000  H
  C9       1.0000 0.80290  0.76610  0.78330  Biso   1.000  C
  C10      1.0000 0.19710  0.26610  0.21670  Biso   1.000  C
  H27      1.0000 0.88630  0.77970  0.82680  Biso   1.000  H
  H28      1.0000 0.11370  0.27970  0.17320  Biso   1.000  H
  C11      1.0000 0.79400  0.76240  0.68700  Biso   1.000  C
  C12      1.0000 0.20600  0.26240  0.31300  Biso   1.000  C
  C13      1.0000 0.91380  0.78640  0.65100  Biso   1.000  C
  C14      1.0000 0.08620  0.28640  0.34900  Biso   1.000  C
  H29      1.0000 0.90000  0.86190  0.61450  Biso   1.000  H
  H30      1.0000 0.10000  0.36190  0.38550  Biso   1.000  H
  H31      1.0000 0.99290  0.79680  0.70470  Biso   1.000  H
  H32      1.0000 0.00710  0.29680  0.29530  Biso   1.000  H
  C15      1.0000 0.06000  0.70110  0.55850  Biso   1.000  C
  C16      1.0000 0.94000  0.20110  0.44150  Biso   1.000  C
  H33      1.0000 0.06150  0.78620  0.53760  Biso   1.000  H
  H34      1.0000 0.93850  0.28620  0.46240  Biso   1.000  H
  C17      1.0000 0.04450  0.62100  0.47060  Biso   1.000  C
  C18      1.0000 0.95550  0.12100  0.52940  Biso   1.000  C
  C19      1.0000 0.19000  0.68030  0.63740  Biso   1.000  C
  C20      1.0000 0.81000  0.18030  0.36260  Biso   1.000  C
  H35      1.0000 0.26400  0.67440  0.60840  Biso   1.000  H
  H36      1.0000 0.73600  0.17440  0.39160  Biso   1.000  H
  H37      1.0000 0.20630  0.75150  0.67870  Biso   1.000  H
  H38      1.0000 0.79370  0.25150  0.32130  Biso   1.000  H
  C21      1.0000 0.19140  0.56990  0.69690  Biso   1.000  C
  C22      1.0000 0.80860  0.06990  0.30310  Biso   1.000  C
  C23      1.0000 0.20930  0.58010  0.79350  Biso   1.000  C
  C24      1.0000 0.79070  0.08010  0.20650  Biso   1.000  C
  H39      1.0000 0.22230  0.65740  0.82130  Biso   1.000  H
  H40      1.0000 0.77770  0.15740  0.17870  Biso   1.000  H
  C25      1.0000 0.20880  0.48060  0.85010  Biso   1.000  C
  C26      1.0000 0.79120  0.98060  0.14990  Biso   1.000  C
  H41      1.0000 0.22110  0.49120  0.91530  Biso   1.000  H
  H42      1.0000 0.77890  0.99120  0.08470  Biso   1.000  H
  C27      1.0000 0.19020  0.36580  0.81170  Biso   1.000  C
  C28      1.0000 0.80980  0.86580  0.18830  Biso   1.000  C
  C29      1.0000 0.17400  0.35300  0.71500  Biso   1.000  C
  C30      1.0000 0.82600  0.85300  0.28500  Biso   1.000  C
  H43      1.0000 0.16220  0.27540  0.68770  Biso   1.000  H
  H44      1.0000 0.83780  0.77540  0.31230  Biso   1.000  H
  C31      1.0000 0.17490  0.45270  0.65910  Biso   1.000  C
  C32      1.0000 0.82510  0.95270  0.34090  Biso   1.000  C
  H45      1.0000 0.16430  0.44180  0.59410  Biso   1.000  H
  H46      1.0000 0.83570  0.94180  0.40590  Biso   1.000  H
  C33      1.0000 0.59880  0.62290  0.27860  Biso   1.000  C
  C34      1.0000 0.40120  0.12290  0.72140  Biso   1.000  C
  C35      1.0000 0.64110  0.51050  0.25740  Biso   1.000  C
  C36      1.0000 0.35890  0.01050  0.74260  Biso   1.000  C
  H47      1.0000 0.69450  0.46250  0.30590  Biso   1.000  H
  H48      1.0000 0.30550  0.96250  0.69410  Biso   1.000  H
  C37      1.0000 0.60590  0.46780  0.16590  Biso   1.000  C
  C38      1.0000 0.39410  0.96780  0.83410  Biso   1.000  C
  H49      1.0000 0.63650  0.39150  0.15250  Biso   1.000  H
  H50      1.0000 0.36350  0.89150  0.84750  Biso   1.000  H
  C39      1.0000 0.52660  0.53600  0.09430  Biso   1.000  C
  C40      1.0000 0.47340  0.03600  0.90570  Biso   1.000  C
  H51      1.0000 0.50320  0.50680  0.03190  Biso   1.000  H
  H52      1.0000 0.49680  0.00680  0.96810  Biso   1.000  H
  C41      1.0000 0.48140  0.64800  0.11430  Biso   1.000  C
  C42      1.0000 0.51860  0.14800  0.88570  Biso   1.000  C
  H53      1.0000 0.42670  0.69480  0.06540  Biso   1.000  H
  H54      1.0000 0.57330  0.19480  0.93460  Biso   1.000  H
  C43      1.0000 0.51650  0.69230  0.20720  Biso   1.000  C
  C44      1.0000 0.48350  0.19230  0.79280  Biso   1.000  C
  C45      1.0000 0.46160  0.81210  0.22790  Biso   1.000  C
  C46      1.0000 0.53840  0.31210  0.77210  Biso   1.000  C
  H55      1.0000 0.53480  0.86870  0.25440  Biso   1.000  H
  H56      1.0000 0.46520  0.36870  0.74560  Biso   1.000  H
  H57      1.0000 0.40460  0.84720  0.16960  Biso   1.000  H
  H58      1.0000 0.59540  0.34720  0.83040  Biso   1.000  H
  C47      1.0000 0.29430  0.89440  0.30810  Biso   1.000  C
  C48      1.0000 0.70570  0.39440  0.69190  Biso   1.000  C
  H59      1.0000 0.32800  0.96800  0.28390  Biso   1.000  H
  H60      1.0000 0.67200  0.46800  0.71610  Biso   1.000  H
  C49      1.0000 0.30780  0.91520  0.41380  Biso   1.000  C
  C50      1.0000 0.69220  0.41520  0.58620  Biso   1.000  C
  C51      1.0000 0.14950  0.87620  0.25000  Biso   1.000  C
  C52      1.0000 0.85050  0.37620  0.75000  Biso   1.000  C
  H61      1.0000 0.11580  0.80040  0.26950  Biso   1.000  H
  H62      1.0000 0.88420  0.30040  0.73050  Biso   1.000  H
  H63      1.0000 0.09500  0.94260  0.26340  Biso   1.000  H
  H64      1.0000 0.90500  0.44260  0.73660  Biso   1.000  H
  C53      1.0000 0.13410  0.87170  0.14480  Biso   1.000  C
  C54      1.0000 0.86590  0.37170  0.85520  Biso   1.000  C
  C55      1.0000 0.13600  0.97800  0.09580  Biso   1.000  C
  C56      1.0000 0.86400  0.47800  0.90420  Biso   1.000  C
  H65      1.0000 0.14020  0.05240  0.12760  Biso   1.000  H
  H66      1.0000 0.85980  0.55240  0.87240  Biso   1.000  H
  C57      1.0000 0.13170  0.97780  0.00090  Biso   1.000  C
  C58      1.0000 0.86830  0.47780  0.99910  Biso   1.000  C
  H67      1.0000 0.13350  0.05110  0.96880  Biso   1.000  H
  H68      1.0000 0.86650  0.55110  0.03120  Biso   1.000  H
  C59      1.0000 0.12480  0.86920  0.95450  Biso   1.000  C
  C60      1.0000 0.87520  0.36920  0.04550  Biso   1.000  C
  C61      1.0000 0.11840  0.76190  0.00090  Biso   1.000  C
  C62      1.0000 0.88160  0.26190  0.99910  Biso   1.000  C
  H69      1.0000 0.11100  0.68770  0.96850  Biso   1.000  H
  H70      1.0000 0.88900  0.18770  0.03150  Biso   1.000  H
  C63      1.0000 0.12300  0.76460  0.09610  Biso   1.000  C
  C64      1.0000 0.87700  0.26460  0.90390  Biso   1.000  C
  H71      1.0000 0.11830  0.69150  0.12770  Biso   1.000  H
  H72      1.0000 0.88170  0.19150  0.87230  Biso   1.000  H
