data_image0
_cell_length_a       10.3549
_cell_length_b       10.5453
_cell_length_c       15.9521
_cell_angle_alpha    90
_cell_angle_beta     104.367
_cell_angle_gamma    90

_symmetry_space_group_name_H-M    "P 1"
_symmetry_int_tables_number       1

loop_
  _symmetry_equiv_pos_as_xyz
  'x, y, z'

loop_
  _atom_site_label
  _atom_site_occupancy
  _atom_site_fract_x
  _atom_site_fract_y
  _atom_site_fract_z
  _atom_site_thermal_displace_type
  _atom_site_B_iso_or_equiv
  _atom_site_type_symbol
  Cu1      1.0000 0.52069  0.23744  0.44644  Biso   1.000  Cu
  Cu2      1.0000 0.47931  0.73744  0.55356  Biso   1.000  Cu
  Cu3      1.0000 0.80799  0.15097  0.49226  Biso   1.000  Cu
  Cu4      1.0000 0.19201  0.65097  0.50774  Biso   1.000  Cu
  O1       1.0000 0.65170  0.15500  0.39567  Biso   1.000  O
  O2       1.0000 0.34830  0.65500  0.60433  Biso   1.000  O
  O3       1.0000 0.40460  0.35040  0.49090  Biso   1.000  O
  O4       1.0000 0.59540  0.85040  0.50910  Biso   1.000  O
  O5       1.0000 0.21450  0.45720  0.45190  Biso   1.000  O
  O6       1.0000 0.78550  0.95720  0.54810  Biso   1.000  O
  O7       1.0000 0.68190  0.24180  0.54297  Biso   1.000  O
  O8       1.0000 0.31810  0.74180  0.45703  Biso   1.000  O
  O9       1.0000 0.94060  0.10440  0.43103  Biso   1.000  O
  O10      1.0000 0.05940  0.60440  0.56897  Biso   1.000  O
  O11      1.0000 0.15750  0.08420  0.44510  Biso   1.000  O
  O12      1.0000 0.84250  0.58420  0.55490  Biso   1.000  O
  O13      1.0000 0.42470  0.06110  0.47400  Biso   1.000  O
  O14      1.0000 0.57530  0.56110  0.52600  Biso   1.000  O
  H1       1.0000 0.35100  0.05500  0.47200  Biso   1.000  H
  H2       1.0000 0.64900  0.55500  0.52800  Biso   1.000  H
  H3       1.0000 0.44900  0.99500  0.46900  Biso   1.000  H
  H4       1.0000 0.55100  0.49500  0.53100  Biso   1.000  H
  N1       1.0000 0.39260  0.26330  0.33260  Biso   1.000  N
  N2       1.0000 0.60740  0.76330  0.66740  Biso   1.000  N
  H5       1.0000 0.34630  0.18970  0.31890  Biso   1.000  H
  H6       1.0000 0.65370  0.68970  0.68110  Biso   1.000  H
  N3       1.0000 0.96290  0.18540  0.59120  Biso   1.000  N
  N4       1.0000 0.03710  0.68540  0.40880  Biso   1.000  N
  H7       1.0000 0.97220  0.11630  0.62630  Biso   1.000  H
  H8       1.0000 0.02780  0.61630  0.37370  Biso   1.000  H
  C1       1.0000 0.62750  0.10760  0.31510  Biso   1.000  C
  C2       1.0000 0.37250  0.60760  0.68490  Biso   1.000  C
  C3       1.0000 0.69480  0.00080  0.29700  Biso   1.000  C
  C4       1.0000 0.30520  0.50080  0.70300  Biso   1.000  C
  H9       1.0000 0.75610  0.96020  0.34140  Biso   1.000  H
  H10      1.0000 0.24390  0.46020  0.65860  Biso   1.000  H
  C5       1.0000 0.67120  0.95450  0.21300  Biso   1.000  C
  C6       1.0000 0.32880  0.45450  0.78700  Biso   1.000  C
  H11      1.0000 0.71810  0.88420  0.20140  Biso   1.000  H
  H12      1.0000 0.28190  0.38420  0.79860  Biso   1.000  H
  C7       1.0000 0.57940  0.01160  0.14750  Biso   1.000  C
  C8       1.0000 0.42060  0.51160  0.85250  Biso   1.000  C
  H13      1.0000 0.56350  0.97970  0.09150  Biso   1.000  H
  H14      1.0000 0.43650  0.47970  0.90850  Biso   1.000  H
  C9       1.0000 0.51040  0.11620  0.16430  Biso   1.000  C
  C10      1.0000 0.48960  0.61620  0.83570  Biso   1.000  C
  H15      1.0000 0.44670  0.15340  0.11950  Biso   1.000  H
  H16      1.0000 0.55330  0.65340  0.88050  Biso   1.000  H
  C11      1.0000 0.53450  0.16750  0.24760  Biso   1.000  C
  C12      1.0000 0.46550  0.66750  0.75240  Biso   1.000  C
  C13      1.0000 0.46600  0.28630  0.26440  Biso   1.000  C
  C14      1.0000 0.53400  0.78630  0.73560  Biso   1.000  C
  H17      1.0000 0.53140  0.35290  0.28310  Biso   1.000  H
  H18      1.0000 0.46860  0.85290  0.71690  Biso   1.000  H
  H19      1.0000 0.40400  0.31390  0.21150  Biso   1.000  H
  H20      1.0000 0.59600  0.81390  0.78850  Biso   1.000  H
  C15      1.0000 0.29470  0.36380  0.33870  Biso   1.000  C
  C16      1.0000 0.70530  0.86380  0.66130  Biso   1.000  C
  H21      1.0000 0.31690  0.44070  0.31080  Biso   1.000  H
  H22      1.0000 0.68310  0.94070  0.68920  Biso   1.000  H
  C17      1.0000 0.30360  0.39380  0.43490  Biso   1.000  C
  C18      1.0000 0.69640  0.89380  0.56510  Biso   1.000  C
  C19      1.0000 0.15160  0.32350  0.29300  Biso   1.000  C
  C20      1.0000 0.84840  0.82350  0.70700  Biso   1.000  C
  H23      1.0000 0.12240  0.25980  0.32810  Biso   1.000  H
  H24      1.0000 0.87760  0.75980  0.67190  Biso   1.000  H
  H25      1.0000 0.09340  0.39640  0.28970  Biso   1.000  H
  H26      1.0000 0.90660  0.89640  0.71030  Biso   1.000  H
  C21      1.0000 0.13560  0.27180  0.20430  Biso   1.000  C
  C22      1.0000 0.86440  0.77180  0.79570  Biso   1.000  C
  C23      1.0000 0.12120  0.14870  0.18010  Biso   1.000  C
  C24      1.0000 0.87880  0.64870  0.81990  Biso   1.000  C
  H27      1.0000 0.11500  0.08150  0.21660  Biso   1.000  H
  H28      1.0000 0.88500  0.58150  0.78340  Biso   1.000  H
  N5       1.0000 0.11710  0.13740  0.09370  Biso   1.000  N
  N6       1.0000 0.88290  0.63740  0.90630  Biso   1.000  N
  H29      1.0000 0.10960  0.06740  0.06530  Biso   1.000  H
  H30      1.0000 0.89040  0.56740  0.93470  Biso   1.000  H
  C25      1.0000 0.12680  0.25450  0.06040  Biso   1.000  C
  C26      1.0000 0.87320  0.75450  0.93960  Biso   1.000  C
  C27      1.0000 0.13910  0.34120  0.12830  Biso   1.000  C
  C28      1.0000 0.86090  0.84120  0.87170  Biso   1.000  C
  C29      1.0000 0.15560  0.46860  0.11200  Biso   1.000  C
  C30      1.0000 0.84440  0.96860  0.88800  Biso   1.000  C
  H31      1.0000 0.16540  0.52780  0.15630  Biso   1.000  H
  H32      1.0000 0.83460  0.02780  0.84370  Biso   1.000  H
  C31      1.0000 0.15720  0.50700  0.02910  Biso   1.000  C
  C32      1.0000 0.84280  0.00700  0.97090  Biso   1.000  C
  H33      1.0000 0.16780  0.59230  0.01780  Biso   1.000  H
  H34      1.0000 0.83220  0.09230  0.98220  Biso   1.000  H
  C33      1.0000 0.14320  0.41960  0.96380  Biso   1.000  C
  C34      1.0000 0.85680  0.91960  0.03620  Biso   1.000  C
  H35      1.0000 0.14360  0.44820  0.90870  Biso   1.000  H
  H36      1.0000 0.85640  0.94820  0.09130  Biso   1.000  H
  C35      1.0000 0.12870  0.29310  0.97560  Biso   1.000  C
  C36      1.0000 0.87130  0.79310  0.02440  Biso   1.000  C
  H37      1.0000 0.12050  0.23520  0.93060  Biso   1.000  H
  H38      1.0000 0.87950  0.73520  0.06940  Biso   1.000  H
  C37      1.0000 0.69880  0.25460  0.62990  Biso   1.000  C
  C38      1.0000 0.30120  0.75460  0.37010  Biso   1.000  C
  C39      1.0000 0.59280  0.24330  0.66760  Biso   1.000  C
  C40      1.0000 0.40720  0.74330  0.33240  Biso   1.000  C
  H39      1.0000 0.50830  0.22400  0.63360  Biso   1.000  H
  H40      1.0000 0.49170  0.72400  0.36640  Biso   1.000  H
  C41      1.0000 0.61230  0.26060  0.75570  Biso   1.000  C
  C42      1.0000 0.38770  0.76060  0.24430  Biso   1.000  C
  H41      1.0000 0.53990  0.25560  0.78030  Biso   1.000  H
  H42      1.0000 0.46010  0.75560  0.21970  Biso   1.000  H
  C43      1.0000 0.73540  0.28460  0.80680  Biso   1.000  C
  C44      1.0000 0.26460  0.78460  0.19320  Biso   1.000  C
  H43      1.0000 0.74780  0.29490  0.86610  Biso   1.000  H
  H44      1.0000 0.25220  0.79490  0.13390  Biso   1.000  H
  C45      1.0000 0.84110  0.29360  0.77020  Biso   1.000  C
  C46      1.0000 0.15890  0.79360  0.22980  Biso   1.000  C
  H45      1.0000 0.92530  0.30990  0.80560  Biso   1.000  H
  H46      1.0000 0.07470  0.80990  0.19440  Biso   1.000  H
  C47      1.0000 0.82710  0.27920  0.68240  Biso   1.000  C
  C48      1.0000 0.17290  0.77920  0.31760  Biso   1.000  C
  C49      1.0000 0.94420  0.29520  0.64430  Biso   1.000  C
  C50      1.0000 0.05580  0.79520  0.35570  Biso   1.000  C
  H47      1.0000 0.93170  0.37100  0.60870  Biso   1.000  H
  H48      1.0000 0.06830  0.87100  0.39130  Biso   1.000  H
  H49      1.0000 0.02400  0.30680  0.69060  Biso   1.000  H
  H50      1.0000 0.97600  0.80680  0.30940  Biso   1.000  H
  C51      1.0000 0.08600  0.19170  0.55820  Biso   1.000  C
  C52      1.0000 0.91400  0.69170  0.44180  Biso   1.000  C
  H51      1.0000 0.09800  0.28090  0.54480  Biso   1.000  H
  H52      1.0000 0.90200  0.78090  0.45520  Biso   1.000  H
  C53      1.0000 0.06300  0.12010  0.47360  Biso   1.000  C
  C54      1.0000 0.93700  0.62010  0.52640  Biso   1.000  C
  C55      1.0000 0.21240  0.15210  0.62700  Biso   1.000  C
  C56      1.0000 0.78760  0.65210  0.37300  Biso   1.000  C
  H53      1.0000 0.28640  0.14750  0.59990  Biso   1.000  H
  H54      1.0000 0.71360  0.64750  0.40010  Biso   1.000  H
  H55      1.0000 0.23310  0.21730  0.67120  Biso   1.000  H
  H56      1.0000 0.76690  0.71730  0.32880  Biso   1.000  H
  C57      1.0000 0.20040  0.02780  0.66940  Biso   1.000  C
  C58      1.0000 0.79960  0.52780  0.33060  Biso   1.000  C
  C59      1.0000 0.15760  0.91500  0.63190  Biso   1.000  C
  C60      1.0000 0.84240  0.41500  0.36810  Biso   1.000  C
  H57      1.0000 0.13030  0.90230  0.57250  Biso   1.000  H
  H58      1.0000 0.86970  0.40230  0.42750  Biso   1.000  H
  N7       1.0000 0.15960  0.82250  0.69190  Biso   1.000  N
  N8       1.0000 0.84040  0.32250  0.30810  Biso   1.000  N
  H59      1.0000 0.13540  0.74500  0.68110  Biso   1.000  H
  H60      1.0000 0.86460  0.24500  0.31890  Biso   1.000  H
  C61      1.0000 0.20710  0.87470  0.77280  Biso   1.000  C
  C62      1.0000 0.79290  0.37470  0.22720  Biso   1.000  C
  C63      1.0000 0.23320  0.00190  0.76110  Biso   1.000  C
  C64      1.0000 0.76680  0.50190  0.23890  Biso   1.000  C
  C65      1.0000 0.28630  0.07630  0.83420  Biso   1.000  C
  C66      1.0000 0.71370  0.57630  0.16580  Biso   1.000  C
  H61      1.0000 0.30590  0.16150  0.82880  Biso   1.000  H
  H62      1.0000 0.69410  0.66150  0.17120  Biso   1.000  H
  C67      1.0000 0.30890  0.01920  0.91490  Biso   1.000  C
  C68      1.0000 0.69110  0.51920  0.08510  Biso   1.000  C
  H63      1.0000 0.34550  0.06670  0.96420  Biso   1.000  H
  H64      1.0000 0.65450  0.56670  0.03580  Biso   1.000  H
  C69      1.0000 0.27810  0.89360  0.92340  Biso   1.000  C
  C70      1.0000 0.72190  0.39360  0.07660  Biso   1.000  C
  H65      1.0000 0.29170  0.85910  0.97850  Biso   1.000  H
  H66      1.0000 0.70830  0.35910  0.02150  Biso   1.000  H
  C71      1.0000 0.22820  0.81850  0.85330  Biso   1.000  C
  C72      1.0000 0.77180  0.31850  0.14670  Biso   1.000  C
  H67      1.0000 0.20920  0.73330  0.85940  Biso   1.000  H
  H68      1.0000 0.79080  0.23330  0.14060  Biso   1.000  H
