data_image0
_cell_length_a       13.7657
_cell_length_b       11.5787
_cell_length_c       9.45569
_cell_angle_alpha    90
_cell_angle_beta     63.1802
_cell_angle_gamma    90

_symmetry_space_group_name_H-M    "P 1"
_symmetry_int_tables_number       1

loop_
  _symmetry_equiv_pos_as_xyz
  'x, y, z'

loop_
  _atom_site_label
  _atom_site_occupancy
  _atom_site_fract_x
  _atom_site_fract_y
  _atom_site_fract_z
  _atom_site_thermal_displace_type
  _atom_site_B_iso_or_equiv
  _atom_site_type_symbol
  Cu1      1.0000 0.75000  0.25000  0.00000  Biso   1.000  Cu
  Cu2      1.0000 0.25000  0.75000  0.00000  Biso   1.000  Cu
  Cu3      1.0000 0.25000  0.25000  0.50000  Biso   1.000  Cu
  Cu4      1.0000 0.75000  0.75000  0.50000  Biso   1.000  Cu
  C1       1.0000 0.50000  0.45651  0.75000  Biso   1.000  C
  C2       1.0000 0.00000  0.95651  0.75000  Biso   1.000  C
  C3       1.0000 0.50000  0.54349  0.25000  Biso   1.000  C
  C4       1.0000 0.00000  0.04349  0.25000  Biso   1.000  C
  N1       1.0000 0.52974  0.37957  0.84611  Biso   1.000  N
  N2       1.0000 0.02974  0.87957  0.84611  Biso   1.000  N
  N3       1.0000 0.47026  0.37957  0.65389  Biso   1.000  N
  N4       1.0000 0.97026  0.87957  0.65389  Biso   1.000  N
  N5       1.0000 0.47026  0.62043  0.15389  Biso   1.000  N
  N6       1.0000 0.97026  0.12043  0.15389  Biso   1.000  N
  N7       1.0000 0.52974  0.62043  0.34611  Biso   1.000  N
  N8       1.0000 0.02974  0.12043  0.34611  Biso   1.000  N
  C5       1.0000 0.63148  0.36479  0.83302  Biso   1.000  C
  C6       1.0000 0.13148  0.86479  0.83302  Biso   1.000  C
  C7       1.0000 0.36852  0.36479  0.66698  Biso   1.000  C
  C8       1.0000 0.86852  0.86479  0.66698  Biso   1.000  C
  C9       1.0000 0.36852  0.63521  0.16698  Biso   1.000  C
  C10      1.0000 0.86852  0.13521  0.16698  Biso   1.000  C
  C11      1.0000 0.63148  0.63521  0.33302  Biso   1.000  C
  C12      1.0000 0.13148  0.13521  0.33302  Biso   1.000  C
  N9       1.0000 0.62525  0.28601  0.94348  Biso   1.000  N
  N10      1.0000 0.12525  0.78601  0.94348  Biso   1.000  N
  N11      1.0000 0.37475  0.28601  0.55652  Biso   1.000  N
  N12      1.0000 0.87475  0.78601  0.55652  Biso   1.000  N
  N13      1.0000 0.37475  0.71399  0.05652  Biso   1.000  N
  N14      1.0000 0.87475  0.21399  0.05652  Biso   1.000  N
  N15      1.0000 0.62525  0.71399  0.44348  Biso   1.000  N
  N16      1.0000 0.12525  0.21399  0.44348  Biso   1.000  N
  C13      1.0000 0.51967  0.25209  0.02483  Biso   1.000  C
  C14      1.0000 0.01967  0.75209  0.02483  Biso   1.000  C
  C15      1.0000 0.48033  0.25209  0.47517  Biso   1.000  C
  C16      1.0000 0.98033  0.75209  0.47517  Biso   1.000  C
  C17      1.0000 0.48033  0.74791  0.97517  Biso   1.000  C
  C18      1.0000 0.98033  0.24791  0.97517  Biso   1.000  C
  C19      1.0000 0.51967  0.74791  0.52483  Biso   1.000  C
  C20      1.0000 0.01967  0.24791  0.52483  Biso   1.000  C
  N17      1.0000 0.46064  0.30992  0.96465  Biso   1.000  N
  N18      1.0000 0.96064  0.80992  0.96465  Biso   1.000  N
  N19      1.0000 0.53936  0.30992  0.53535  Biso   1.000  N
  N20      1.0000 0.03936  0.80992  0.53535  Biso   1.000  N
  N21      1.0000 0.53936  0.69008  0.03535  Biso   1.000  N
  N22      1.0000 0.03936  0.19008  0.03535  Biso   1.000  N
  N23      1.0000 0.46064  0.69008  0.46465  Biso   1.000  N
  N24      1.0000 0.96064  0.19008  0.46465  Biso   1.000  N
  H1       1.0000 0.69563  0.40283  0.75961  Biso   1.000  H
  H2       1.0000 0.19563  0.90283  0.75961  Biso   1.000  H
  H3       1.0000 0.30437  0.40283  0.74039  Biso   1.000  H
  H4       1.0000 0.80437  0.90283  0.74039  Biso   1.000  H
  H5       1.0000 0.30437  0.59717  0.24039  Biso   1.000  H
  H6       1.0000 0.80437  0.09717  0.24039  Biso   1.000  H
  H7       1.0000 0.69563  0.59717  0.25961  Biso   1.000  H
  H8       1.0000 0.19563  0.09717  0.25961  Biso   1.000  H
  H9       1.0000 0.49200  0.19758  0.10893  Biso   1.000  H
  H10      1.0000 0.99200  0.69758  0.10893  Biso   1.000  H
  H11      1.0000 0.50800  0.19758  0.39107  Biso   1.000  H
  H12      1.0000 0.00800  0.69758  0.39107  Biso   1.000  H
  H13      1.0000 0.50800  0.80242  0.89107  Biso   1.000  H
  H14      1.0000 0.00800  0.30242  0.89107  Biso   1.000  H
  H15      1.0000 0.49200  0.80242  0.60893  Biso   1.000  H
  H16      1.0000 0.99200  0.30242  0.60893  Biso   1.000  H
  H17      1.0000 0.56164  0.50076  0.68222  Biso   1.000  H
  H18      1.0000 0.06164  0.00076  0.68222  Biso   1.000  H
  H19      1.0000 0.43836  0.50076  0.81778  Biso   1.000  H
  H20      1.0000 0.93836  0.00076  0.81778  Biso   1.000  H
  H21      1.0000 0.43836  0.49924  0.31778  Biso   1.000  H
  H22      1.0000 0.93836  0.99924  0.31778  Biso   1.000  H
  H23      1.0000 0.56164  0.49924  0.18222  Biso   1.000  H
  H24      1.0000 0.06164  0.99924  0.18222  Biso   1.000  H
  O1       1.0000 0.82966  0.37177  0.85372  Biso   1.000  O
  O2       1.0000 0.32966  0.87177  0.85372  Biso   1.000  O
  O3       1.0000 0.17034  0.37177  0.64628  Biso   1.000  O
  O4       1.0000 0.67034  0.87177  0.64628  Biso   1.000  O
  O5       1.0000 0.17034  0.62823  0.14628  Biso   1.000  O
  O6       1.0000 0.67034  0.12823  0.14628  Biso   1.000  O
  O7       1.0000 0.82966  0.62823  0.35372  Biso   1.000  O
  O8       1.0000 0.32966  0.12823  0.35372  Biso   1.000  O
  O9       1.0000 0.75005  0.46729  0.07826  Biso   1.000  O
  O10      1.0000 0.25005  0.96729  0.07826  Biso   1.000  O
  O11      1.0000 0.24995  0.46729  0.42174  Biso   1.000  O
  O12      1.0000 0.74995  0.96729  0.42174  Biso   1.000  O
  O13      1.0000 0.24995  0.53271  0.92174  Biso   1.000  O
  O14      1.0000 0.74995  0.03271  0.92174  Biso   1.000  O
  O15      1.0000 0.75005  0.53271  0.57826  Biso   1.000  O
  O16      1.0000 0.25005  0.03271  0.57826  Biso   1.000  O
  C21      1.0000 0.80514  0.46289  0.93448  Biso   1.000  C
  C22      1.0000 0.30514  0.96289  0.93448  Biso   1.000  C
  C23      1.0000 0.19486  0.46289  0.56552  Biso   1.000  C
  C24      1.0000 0.69486  0.96289  0.56552  Biso   1.000  C
  C25      1.0000 0.19486  0.53711  0.06552  Biso   1.000  C
  C26      1.0000 0.69486  0.03711  0.06552  Biso   1.000  C
  C27      1.0000 0.80514  0.53711  0.43448  Biso   1.000  C
  C28      1.0000 0.30514  0.03711  0.43448  Biso   1.000  C
  C29      1.0000 0.84544  0.57708  0.85136  Biso   1.000  C
  C30      1.0000 0.34544  0.07708  0.85136  Biso   1.000  C
  C31      1.0000 0.15456  0.57708  0.64864  Biso   1.000  C
  C32      1.0000 0.65456  0.07708  0.64864  Biso   1.000  C
  C33      1.0000 0.15456  0.42292  0.14864  Biso   1.000  C
  C34      1.0000 0.65456  0.92292  0.14864  Biso   1.000  C
  C35      1.0000 0.84544  0.42292  0.35136  Biso   1.000  C
  C36      1.0000 0.34544  0.92292  0.35136  Biso   1.000  C
  H25      1.0000 0.79530  0.60495  0.81128  Biso   1.000  H
  H26      1.0000 0.29530  0.10495  0.81128  Biso   1.000  H
  H27      1.0000 0.20470  0.60495  0.68872  Biso   1.000  H
  H28      1.0000 0.70470  0.10495  0.68872  Biso   1.000  H
  H29      1.0000 0.20470  0.39505  0.18872  Biso   1.000  H
  H30      1.0000 0.70470  0.89505  0.18872  Biso   1.000  H
  H31      1.0000 0.79530  0.39505  0.31128  Biso   1.000  H
  H32      1.0000 0.29530  0.89505  0.31128  Biso   1.000  H
  H33      1.0000 0.84901  0.63334  0.92631  Biso   1.000  H
  H34      1.0000 0.34901  0.13334  0.92631  Biso   1.000  H
  H35      1.0000 0.15099  0.63334  0.57369  Biso   1.000  H
  H36      1.0000 0.65099  0.13334  0.57369  Biso   1.000  H
  H37      1.0000 0.15099  0.36666  0.07369  Biso   1.000  H
  H38      1.0000 0.65099  0.86666  0.07369  Biso   1.000  H
  H39      1.0000 0.84901  0.36666  0.42631  Biso   1.000  H
  H40      1.0000 0.34901  0.86666  0.42631  Biso   1.000  H
  H41      1.0000 0.91810  0.56678  0.76273  Biso   1.000  H
  H42      1.0000 0.41810  0.06678  0.76273  Biso   1.000  H
  H43      1.0000 0.08190  0.56678  0.73727  Biso   1.000  H
  H44      1.0000 0.58190  0.06678  0.73727  Biso   1.000  H
  H45      1.0000 0.08190  0.43322  0.23727  Biso   1.000  H
  H46      1.0000 0.58190  0.93322  0.23727  Biso   1.000  H
  H47      1.0000 0.91810  0.43322  0.26273  Biso   1.000  H
  H48      1.0000 0.41810  0.93322  0.26273  Biso   1.000  H
