data_image0
_cell_length_a       7.6915
_cell_length_b       15.285
_cell_length_c       14.286
_cell_angle_alpha    90
_cell_angle_beta     98.64
_cell_angle_gamma    90

_symmetry_space_group_name_H-M    "P 1"
_symmetry_int_tables_number       1

loop_
  _symmetry_equiv_pos_as_xyz
  'x, y, z'

loop_
  _atom_site_label
  _atom_site_occupancy
  _atom_site_fract_x
  _atom_site_fract_y
  _atom_site_fract_z
  _atom_site_thermal_displace_type
  _atom_site_B_iso_or_equiv
  _atom_site_type_symbol
  Cu1      1.0000 0.03815  0.23273  0.56988  Biso   1.000  Cu
  Cu2      1.0000 0.96185  0.73273  0.93012  Biso   1.000  Cu
  Cu3      1.0000 0.96185  0.76727  0.43012  Biso   1.000  Cu
  Cu4      1.0000 0.03815  0.26727  0.06988  Biso   1.000  Cu
  O1       1.0000 0.07130  0.34170  0.63900  Biso   1.000  O
  O2       1.0000 0.92870  0.84170  0.86100  Biso   1.000  O
  O3       1.0000 0.92870  0.65830  0.36100  Biso   1.000  O
  O4       1.0000 0.07130  0.15830  0.13900  Biso   1.000  O
  N1       1.0000 0.88610  0.28740  0.46490  Biso   1.000  N
  N2       1.0000 0.11390  0.78740  0.03510  Biso   1.000  N
  N3       1.0000 0.11390  0.71260  0.53510  Biso   1.000  N
  N4       1.0000 0.88610  0.21260  0.96490  Biso   1.000  N
  N5       1.0000 0.01380  0.12400  0.48310  Biso   1.000  N
  N6       1.0000 0.98620  0.62400  0.01690  Biso   1.000  N
  N7       1.0000 0.98620  0.87600  0.51690  Biso   1.000  N
  N8       1.0000 0.01380  0.37600  0.98310  Biso   1.000  N
  N9       1.0000 0.25400  0.18460  0.64510  Biso   1.000  N
  N10      1.0000 0.74600  0.68460  0.85490  Biso   1.000  N
  N11      1.0000 0.74600  0.81540  0.35490  Biso   1.000  N
  N12      1.0000 0.25400  0.31540  0.14510  Biso   1.000  N
  N13      1.0000 0.82340  0.18240  0.64840  Biso   1.000  N
  N14      1.0000 0.17660  0.68240  0.85160  Biso   1.000  N
  N15      1.0000 0.17660  0.81760  0.35160  Biso   1.000  N
  N16      1.0000 0.82340  0.31760  0.14840  Biso   1.000  N
  C1       1.0000 0.97690  0.41270  0.62350  Biso   1.000  C
  C2       1.0000 0.02310  0.91270  0.87650  Biso   1.000  C
  C3       1.0000 0.02310  0.58730  0.37650  Biso   1.000  C
  C4       1.0000 0.97690  0.08730  0.12350  Biso   1.000  C
  C5       1.0000 0.00190  0.48230  0.68940  Biso   1.000  C
  C6       1.0000 0.99810  0.98230  0.81060  Biso   1.000  C
  C7       1.0000 0.99810  0.51770  0.31060  Biso   1.000  C
  C8       1.0000 0.00190  0.01770  0.18940  Biso   1.000  C
  H1       1.0000 0.08570  0.47630  0.74310  Biso   1.000  H
  H2       1.0000 0.91430  0.97630  0.75690  Biso   1.000  H
  H3       1.0000 0.91430  0.52370  0.25690  Biso   1.000  H
  H4       1.0000 0.08570  0.02370  0.24310  Biso   1.000  H
  C9       1.0000 0.90600  0.55900  0.67670  Biso   1.000  C
  C10      1.0000 0.09400  0.05900  0.82330  Biso   1.000  C
  C11      1.0000 0.09400  0.44100  0.32330  Biso   1.000  C
  C12      1.0000 0.90600  0.94100  0.17670  Biso   1.000  C
  H5       1.0000 0.92270  0.60280  0.72240  Biso   1.000  H
  H6       1.0000 0.07730  0.10280  0.77760  Biso   1.000  H
  H7       1.0000 0.07730  0.39720  0.27760  Biso   1.000  H
  H8       1.0000 0.92270  0.89720  0.22240  Biso   1.000  H
  C13      1.0000 0.78480  0.57040  0.59540  Biso   1.000  C
  C14      1.0000 0.21520  0.07040  0.90460  Biso   1.000  C
  C15      1.0000 0.21520  0.42960  0.40460  Biso   1.000  C
  C16      1.0000 0.78480  0.92960  0.09540  Biso   1.000  C
  Br1      1.0000 0.66231  0.67881  0.57682  Biso   1.000  Br
  Br2      1.0000 0.33769  0.17881  0.92318  Biso   1.000  Br
  Br3      1.0000 0.33769  0.32119  0.42318  Biso   1.000  Br
  Br4      1.0000 0.66231  0.82119  0.07682  Biso   1.000  Br
  C17      1.0000 0.75470  0.50630  0.52910  Biso   1.000  C
  C18      1.0000 0.24530  0.00630  0.97090  Biso   1.000  C
  C19      1.0000 0.24530  0.49370  0.47090  Biso   1.000  C
  C20      1.0000 0.75470  0.99370  0.02910  Biso   1.000  C
  H9       1.0000 0.67200  0.51510  0.47540  Biso   1.000  H
  H10      1.0000 0.32800  0.01510  0.02460  Biso   1.000  H
  H11      1.0000 0.32800  0.48490  0.52460  Biso   1.000  H
  H12      1.0000 0.67200  0.98490  0.97540  Biso   1.000  H
  C21      1.0000 0.84740  0.42640  0.54080  Biso   1.000  C
  C22      1.0000 0.15260  0.92640  0.95920  Biso   1.000  C
  C23      1.0000 0.15260  0.57360  0.45920  Biso   1.000  C
  C24      1.0000 0.84740  0.07360  0.04080  Biso   1.000  C
  C25      1.0000 0.81560  0.36370  0.46460  Biso   1.000  C
  C26      1.0000 0.18440  0.86370  0.03540  Biso   1.000  C
  C27      1.0000 0.18440  0.63630  0.53540  Biso   1.000  C
  C28      1.0000 0.81560  0.13630  0.96460  Biso   1.000  C
  H13      1.0000 0.73790  0.37970  0.41110  Biso   1.000  H
  H14      1.0000 0.26210  0.87970  0.08890  Biso   1.000  H
  H15      1.0000 0.26210  0.62030  0.58890  Biso   1.000  H
  H16      1.0000 0.73790  0.12030  0.91110  Biso   1.000  H
  C29      1.0000 0.85070  0.23200  0.37990  Biso   1.000  C
  C30      1.0000 0.14930  0.73200  0.12010  Biso   1.000  C
  C31      1.0000 0.14930  0.76800  0.62010  Biso   1.000  C
  C32      1.0000 0.85070  0.26800  0.87990  Biso   1.000  C
  H17      1.0000 0.94020  0.24120  0.33980  Biso   1.000  H
  H18      1.0000 0.05980  0.74120  0.16020  Biso   1.000  H
  H19      1.0000 0.05980  0.75880  0.66020  Biso   1.000  H
  H20      1.0000 0.94020  0.25880  0.83980  Biso   1.000  H
  H21      1.0000 0.73710  0.24640  0.34400  Biso   1.000  H
  H22      1.0000 0.26290  0.74640  0.15600  Biso   1.000  H
  H23      1.0000 0.26290  0.75360  0.65600  Biso   1.000  H
  H24      1.0000 0.73710  0.25360  0.84400  Biso   1.000  H
  C33      1.0000 0.85240  0.13930  0.41190  Biso   1.000  C
  C34      1.0000 0.14760  0.63930  0.08810  Biso   1.000  C
  C35      1.0000 0.14760  0.86070  0.58810  Biso   1.000  C
  C36      1.0000 0.85240  0.36070  0.91190  Biso   1.000  C
  H25      1.0000 0.85280  0.10050  0.35820  Biso   1.000  H
  H26      1.0000 0.14720  0.60050  0.14180  Biso   1.000  H
  H27      1.0000 0.14720  0.89950  0.64180  Biso   1.000  H
  H28      1.0000 0.85280  0.39950  0.85820  Biso   1.000  H
  H29      1.0000 0.74790  0.12720  0.44020  Biso   1.000  H
  H30      1.0000 0.25210  0.62720  0.05980  Biso   1.000  H
  H31      1.0000 0.25210  0.87280  0.55980  Biso   1.000  H
  H32      1.0000 0.74790  0.37280  0.94020  Biso   1.000  H
  C37      1.0000 0.00570  0.04020  0.53330  Biso   1.000  C
  C38      1.0000 0.99430  0.54020  0.96670  Biso   1.000  C
  C39      1.0000 0.99430  0.95980  0.46670  Biso   1.000  C
  C40      1.0000 0.00570  0.45980  0.03330  Biso   1.000  C
  H33      1.0000 0.90380  0.04050  0.56590  Biso   1.000  H
  H34      1.0000 0.09620  0.54050  0.93410  Biso   1.000  H
  H35      1.0000 0.09620  0.95950  0.43410  Biso   1.000  H
  H36      1.0000 0.90380  0.45950  0.06590  Biso   1.000  H
  H37      1.0000 0.10960  0.03460  0.58070  Biso   1.000  H
  H38      1.0000 0.89040  0.53460  0.91930  Biso   1.000  H
  H39      1.0000 0.89040  0.96540  0.41930  Biso   1.000  H
  H40      1.0000 0.10960  0.46540  0.08070  Biso   1.000  H
  N17      1.0000 0.55440  0.13620  0.70740  Biso   1.000  N
  N18      1.0000 0.44560  0.63620  0.79260  Biso   1.000  N
  N19      1.0000 0.44560  0.86380  0.29260  Biso   1.000  N
  N20      1.0000 0.55440  0.36380  0.20740  Biso   1.000  N
  C41      1.0000 0.39680  0.16510  0.67050  Biso   1.000  C
  C42      1.0000 0.60320  0.66510  0.82950  Biso   1.000  C
  C43      1.0000 0.60320  0.83490  0.32950  Biso   1.000  C
  C44      1.0000 0.39680  0.33490  0.17050  Biso   1.000  C
  C45      1.0000 0.69360  0.16360  0.67130  Biso   1.000  C
  C46      1.0000 0.30640  0.66360  0.82870  Biso   1.000  C
  C47      1.0000 0.30640  0.83640  0.32870  Biso   1.000  C
  C48      1.0000 0.69360  0.33640  0.17130  Biso   1.000  C
  H41      1.0000 0.08900  0.12400  0.45800  Biso   1.000  H
  H42      1.0000 0.91100  0.62400  0.04200  Biso   1.000  H
  H43      1.0000 0.91100  0.87600  0.54200  Biso   1.000  H
  H44      1.0000 0.08900  0.37600  0.95800  Biso   1.000  H
  O5       1.0000 0.40560  0.35770  0.75640  Biso   1.000  O
  O6       1.0000 0.59440  0.85770  0.74360  Biso   1.000  O
  O7       1.0000 0.59440  0.64230  0.24360  Biso   1.000  O
  O8       1.0000 0.40560  0.14230  0.25640  Biso   1.000  O
  H45      1.0000 0.30290  0.36190  0.73280  Biso   1.000  H
  H46      1.0000 0.69710  0.86190  0.76720  Biso   1.000  H
  H47      1.0000 0.69710  0.63810  0.26720  Biso   1.000  H
  H48      1.0000 0.30290  0.13810  0.23280  Biso   1.000  H
  C49      1.0000 0.51010  0.40010  0.69690  Biso   1.000  C
  C50      1.0000 0.48990  0.90010  0.80310  Biso   1.000  C
  C51      1.0000 0.48990  0.59990  0.30310  Biso   1.000  C
  C52      1.0000 0.51010  0.09990  0.19690  Biso   1.000  C
  H49      1.0000 0.47080  0.45940  0.68640  Biso   1.000  H
  H50      1.0000 0.52920  0.95940  0.81360  Biso   1.000  H
  H51      1.0000 0.52920  0.54060  0.31360  Biso   1.000  H
  H52      1.0000 0.47080  0.04060  0.18640  Biso   1.000  H
  H53      1.0000 0.49960  0.36990  0.63740  Biso   1.000  H
  H54      1.0000 0.50040  0.86990  0.86260  Biso   1.000  H
  H55      1.0000 0.50040  0.63010  0.36260  Biso   1.000  H
  H56      1.0000 0.49960  0.13010  0.13740  Biso   1.000  H
  H57      1.0000 0.63070  0.39980  0.72640  Biso   1.000  H
  H58      1.0000 0.36930  0.89980  0.77360  Biso   1.000  H
  H59      1.0000 0.36930  0.60020  0.27360  Biso   1.000  H
  H60      1.0000 0.63070  0.10020  0.22640  Biso   1.000  H
  O9       1.0000 0.35900  0.41280  0.92490  Biso   1.000  O
  O10      1.0000 0.64100  0.91280  0.57510  Biso   1.000  O
  O11      1.0000 0.64100  0.58720  0.07510  Biso   1.000  O
  O12      1.0000 0.35900  0.08720  0.42490  Biso   1.000  O
  H61      1.0000 0.35800  0.40960  0.85840  Biso   1.000  H
  H62      1.0000 0.64200  0.90960  0.64160  Biso   1.000  H
  H63      1.0000 0.64200  0.59040  0.14160  Biso   1.000  H
  H64      1.0000 0.35800  0.09040  0.35840  Biso   1.000  H
  H65      1.0000 0.35580  0.35560  0.92450  Biso   1.000  H
  H66      1.0000 0.64420  0.85560  0.57550  Biso   1.000  H
  H67      1.0000 0.64420  0.64440  0.07550  Biso   1.000  H
  H68      1.0000 0.35580  0.14440  0.42450  Biso   1.000  H
  O13      1.0000 0.23000  0.36840  0.81810  Biso   1.000  O
  O14      1.0000 0.77000  0.86840  0.68190  Biso   1.000  O
  O15      1.0000 0.77000  0.63160  0.18190  Biso   1.000  O
  O16      1.0000 0.23000  0.13160  0.31810  Biso   1.000  O
  H69      1.0000 0.18030  0.35560  0.75370  Biso   1.000  H
  H70      1.0000 0.81970  0.85560  0.74630  Biso   1.000  H
  H71      1.0000 0.81970  0.64440  0.24630  Biso   1.000  H
  H72      1.0000 0.18030  0.14440  0.25370  Biso   1.000  H
  H73      1.0000 0.27210  0.31900  0.83980  Biso   1.000  H
  H74      1.0000 0.72790  0.81900  0.66020  Biso   1.000  H
  H75      1.0000 0.72790  0.68100  0.16020  Biso   1.000  H
  H76      1.0000 0.27210  0.18100  0.33980  Biso   1.000  H
