data_image0
_cell_length_a       13.5377
_cell_length_b       13.5377
_cell_length_c       18.3726
_cell_angle_alpha    90
_cell_angle_beta     90
_cell_angle_gamma    90

_symmetry_space_group_name_H-M    "P 1"
_symmetry_int_tables_number       1

loop_
  _symmetry_equiv_pos_as_xyz
  'x, y, z'

loop_
  _atom_site_label
  _atom_site_occupancy
  _atom_site_fract_x
  _atom_site_fract_y
  _atom_site_fract_z
  _atom_site_thermal_displace_type
  _atom_site_B_iso_or_equiv
  _atom_site_type_symbol
  Cu1      1.0000 0.25000  0.75000  0.25000  Biso   1.000  Cu
  Cu2      1.0000 0.75000  0.25000  0.25000  Biso   1.000  Cu
  Cu3      1.0000 0.75000  0.25000  0.75000  Biso   1.000  Cu
  Cu4      1.0000 0.25000  0.75000  0.75000  Biso   1.000  Cu
  Si1      1.0000 0.75000  0.75000  0.54391  Biso   1.000  Si
  Si2      1.0000 0.25000  0.25000  0.95609  Biso   1.000  Si
  Si3      1.0000 0.25000  0.25000  0.45609  Biso   1.000  Si
  Si4      1.0000 0.75000  0.75000  0.04391  Biso   1.000  Si
  C1       1.0000 0.22480  0.62580  0.12030  Biso   1.000  C
  C2       1.0000 0.27520  0.87420  0.12030  Biso   1.000  C
  C3       1.0000 0.87420  0.22480  0.12030  Biso   1.000  C
  C4       1.0000 0.62580  0.27520  0.12030  Biso   1.000  C
  C5       1.0000 0.77520  0.12580  0.37970  Biso   1.000  C
  C6       1.0000 0.72480  0.37420  0.37970  Biso   1.000  C
  C7       1.0000 0.12580  0.72480  0.37970  Biso   1.000  C
  C8       1.0000 0.37420  0.77520  0.37970  Biso   1.000  C
  C9       1.0000 0.77520  0.37420  0.87970  Biso   1.000  C
  C10      1.0000 0.72480  0.12580  0.87970  Biso   1.000  C
  C11      1.0000 0.12580  0.77520  0.87970  Biso   1.000  C
  C12      1.0000 0.37420  0.72480  0.87970  Biso   1.000  C
  C13      1.0000 0.22480  0.87420  0.62030  Biso   1.000  C
  C14      1.0000 0.27520  0.62580  0.62030  Biso   1.000  C
  C15      1.0000 0.87420  0.27520  0.62030  Biso   1.000  C
  C16      1.0000 0.62580  0.22480  0.62030  Biso   1.000  C
  H1       1.0000 0.29490  0.62400  0.12230  Biso   1.000  H
  H2       1.0000 0.20510  0.87600  0.12230  Biso   1.000  H
  H3       1.0000 0.87600  0.29490  0.12230  Biso   1.000  H
  H4       1.0000 0.62400  0.20510  0.12230  Biso   1.000  H
  H5       1.0000 0.70510  0.12400  0.37770  Biso   1.000  H
  H6       1.0000 0.79490  0.37600  0.37770  Biso   1.000  H
  H7       1.0000 0.12400  0.79490  0.37770  Biso   1.000  H
  H8       1.0000 0.37600  0.70510  0.37770  Biso   1.000  H
  H9       1.0000 0.70510  0.37600  0.87770  Biso   1.000  H
  H10      1.0000 0.79490  0.12400  0.87770  Biso   1.000  H
  H11      1.0000 0.12400  0.70510  0.87770  Biso   1.000  H
  H12      1.0000 0.37600  0.79490  0.87770  Biso   1.000  H
  H13      1.0000 0.29490  0.87600  0.62230  Biso   1.000  H
  H14      1.0000 0.20510  0.62400  0.62230  Biso   1.000  H
  H15      1.0000 0.87600  0.20510  0.62230  Biso   1.000  H
  H16      1.0000 0.62400  0.29490  0.62230  Biso   1.000  H
  C17      1.0000 0.07770  0.67870  0.16990  Biso   1.000  C
  C18      1.0000 0.42230  0.82130  0.16990  Biso   1.000  C
  C19      1.0000 0.82130  0.07770  0.16990  Biso   1.000  C
  C20      1.0000 0.67870  0.42230  0.16990  Biso   1.000  C
  C21      1.0000 0.92230  0.17870  0.33010  Biso   1.000  C
  C22      1.0000 0.57770  0.32130  0.33010  Biso   1.000  C
  C23      1.0000 0.17870  0.57770  0.33010  Biso   1.000  C
  C24      1.0000 0.32130  0.92230  0.33010  Biso   1.000  C
  C25      1.0000 0.92230  0.32130  0.83010  Biso   1.000  C
  C26      1.0000 0.57770  0.17870  0.83010  Biso   1.000  C
  C27      1.0000 0.17870  0.92230  0.83010  Biso   1.000  C
  C28      1.0000 0.32130  0.57770  0.83010  Biso   1.000  C
  C29      1.0000 0.07770  0.82130  0.66990  Biso   1.000  C
  C30      1.0000 0.42230  0.67870  0.66990  Biso   1.000  C
  C31      1.0000 0.82130  0.42230  0.66990  Biso   1.000  C
  C32      1.0000 0.67870  0.07770  0.66990  Biso   1.000  C
  H17      1.0000 0.04300  0.71420  0.20650  Biso   1.000  H
  H18      1.0000 0.45700  0.78580  0.20650  Biso   1.000  H
  H19      1.0000 0.78580  0.04300  0.20650  Biso   1.000  H
  H20      1.0000 0.71420  0.45700  0.20650  Biso   1.000  H
  H21      1.0000 0.95700  0.21420  0.29350  Biso   1.000  H
  H22      1.0000 0.54300  0.28580  0.29350  Biso   1.000  H
  H23      1.0000 0.21420  0.54300  0.29350  Biso   1.000  H
  H24      1.0000 0.28580  0.95700  0.29350  Biso   1.000  H
  H25      1.0000 0.95700  0.28580  0.79350  Biso   1.000  H
  H26      1.0000 0.54300  0.21420  0.79350  Biso   1.000  H
  H27      1.0000 0.21420  0.95700  0.79350  Biso   1.000  H
  H28      1.0000 0.28580  0.54300  0.79350  Biso   1.000  H
  H29      1.0000 0.04300  0.78580  0.70650  Biso   1.000  H
  H30      1.0000 0.45700  0.71420  0.70650  Biso   1.000  H
  H31      1.0000 0.78580  0.45700  0.70650  Biso   1.000  H
  H32      1.0000 0.71420  0.04300  0.70650  Biso   1.000  H
  C33      1.0000 0.02480  0.63150  0.11600  Biso   1.000  C
  C34      1.0000 0.47520  0.86850  0.11600  Biso   1.000  C
  C35      1.0000 0.86850  0.02480  0.11600  Biso   1.000  C
  C36      1.0000 0.63150  0.47520  0.11600  Biso   1.000  C
  C37      1.0000 0.97520  0.13150  0.38400  Biso   1.000  C
  C38      1.0000 0.52480  0.36850  0.38400  Biso   1.000  C
  C39      1.0000 0.13150  0.52480  0.38400  Biso   1.000  C
  C40      1.0000 0.36850  0.97520  0.38400  Biso   1.000  C
  C41      1.0000 0.97520  0.36850  0.88400  Biso   1.000  C
  C42      1.0000 0.52480  0.13150  0.88400  Biso   1.000  C
  C43      1.0000 0.13150  0.97520  0.88400  Biso   1.000  C
  C44      1.0000 0.36850  0.52480  0.88400  Biso   1.000  C
  C45      1.0000 0.02480  0.86850  0.61600  Biso   1.000  C
  C46      1.0000 0.47520  0.63150  0.61600  Biso   1.000  C
  C47      1.0000 0.86850  0.47520  0.61600  Biso   1.000  C
  C48      1.0000 0.63150  0.02480  0.61600  Biso   1.000  C
  H33      1.0000 0.95470  0.63240  0.11680  Biso   1.000  H
  H34      1.0000 0.54530  0.86760  0.11680  Biso   1.000  H
  H35      1.0000 0.86760  0.95470  0.11680  Biso   1.000  H
  H36      1.0000 0.63240  0.54530  0.11680  Biso   1.000  H
  H37      1.0000 0.04530  0.13240  0.38320  Biso   1.000  H
  H38      1.0000 0.45470  0.36760  0.38320  Biso   1.000  H
  H39      1.0000 0.13240  0.45470  0.38320  Biso   1.000  H
  H40      1.0000 0.36760  0.04530  0.38320  Biso   1.000  H
  H41      1.0000 0.04530  0.36760  0.88320  Biso   1.000  H
  H42      1.0000 0.45470  0.13240  0.88320  Biso   1.000  H
  H43      1.0000 0.13240  0.04530  0.88320  Biso   1.000  H
  H44      1.0000 0.36760  0.45470  0.88320  Biso   1.000  H
  H45      1.0000 0.95470  0.86760  0.61680  Biso   1.000  H
  H46      1.0000 0.54530  0.63240  0.61680  Biso   1.000  H
  H47      1.0000 0.86760  0.54530  0.61680  Biso   1.000  H
  H48      1.0000 0.63240  0.95470  0.61680  Biso   1.000  H
  C49      1.0000 0.17970  0.57800  0.06550  Biso   1.000  C
  C50      1.0000 0.32030  0.92200  0.06550  Biso   1.000  C
  C51      1.0000 0.92200  0.17970  0.06550  Biso   1.000  C
  C52      1.0000 0.57800  0.32030  0.06550  Biso   1.000  C
  C53      1.0000 0.82030  0.07800  0.43450  Biso   1.000  C
  C54      1.0000 0.67970  0.42200  0.43450  Biso   1.000  C
  C55      1.0000 0.07800  0.67970  0.43450  Biso   1.000  C
  C56      1.0000 0.42200  0.82030  0.43450  Biso   1.000  C
  C57      1.0000 0.82030  0.42200  0.93450  Biso   1.000  C
  C58      1.0000 0.67970  0.07800  0.93450  Biso   1.000  C
  C59      1.0000 0.07800  0.82030  0.93450  Biso   1.000  C
  C60      1.0000 0.42200  0.67970  0.93450  Biso   1.000  C
  C61      1.0000 0.17970  0.92200  0.56550  Biso   1.000  C
  C62      1.0000 0.32030  0.57800  0.56550  Biso   1.000  C
  C63      1.0000 0.92200  0.32030  0.56550  Biso   1.000  C
  C64      1.0000 0.57800  0.17970  0.56550  Biso   1.000  C
  H49      1.0000 0.21770  0.54190  0.03120  Biso   1.000  H
  H50      1.0000 0.28230  0.95810  0.03120  Biso   1.000  H
  H51      1.0000 0.95810  0.21770  0.03120  Biso   1.000  H
  H52      1.0000 0.54190  0.28230  0.03120  Biso   1.000  H
  H53      1.0000 0.78230  0.04190  0.46880  Biso   1.000  H
  H54      1.0000 0.71770  0.45810  0.46880  Biso   1.000  H
  H55      1.0000 0.04190  0.71770  0.46880  Biso   1.000  H
  H56      1.0000 0.45810  0.78230  0.46880  Biso   1.000  H
  H57      1.0000 0.78230  0.45810  0.96880  Biso   1.000  H
  H58      1.0000 0.71770  0.04190  0.96880  Biso   1.000  H
  H59      1.0000 0.04190  0.78230  0.96880  Biso   1.000  H
  H60      1.0000 0.45810  0.71770  0.96880  Biso   1.000  H
  H61      1.0000 0.21770  0.95810  0.53120  Biso   1.000  H
  H62      1.0000 0.28230  0.54190  0.53120  Biso   1.000  H
  H63      1.0000 0.95810  0.28230  0.53120  Biso   1.000  H
  H64      1.0000 0.54190  0.21770  0.53120  Biso   1.000  H
  C65      1.0000 0.07550  0.58150  0.05900  Biso   1.000  C
  C66      1.0000 0.42450  0.91850  0.05900  Biso   1.000  C
  C67      1.0000 0.91850  0.07550  0.05900  Biso   1.000  C
  C68      1.0000 0.58150  0.42450  0.05900  Biso   1.000  C
  C69      1.0000 0.92450  0.08150  0.44100  Biso   1.000  C
  C70      1.0000 0.57550  0.41850  0.44100  Biso   1.000  C
  C71      1.0000 0.08150  0.57550  0.44100  Biso   1.000  C
  C72      1.0000 0.41850  0.92450  0.44100  Biso   1.000  C
  C73      1.0000 0.92450  0.41850  0.94100  Biso   1.000  C
  C74      1.0000 0.57550  0.08150  0.94100  Biso   1.000  C
  C75      1.0000 0.08150  0.92450  0.94100  Biso   1.000  C
  C76      1.0000 0.41850  0.57550  0.94100  Biso   1.000  C
  C77      1.0000 0.07550  0.91850  0.55900  Biso   1.000  C
  C78      1.0000 0.42450  0.58150  0.55900  Biso   1.000  C
  C79      1.0000 0.91850  0.42450  0.55900  Biso   1.000  C
  C80      1.0000 0.58150  0.07550  0.55900  Biso   1.000  C
  N1       1.0000 0.17690  0.67580  0.17213  Biso   1.000  N
  N2       1.0000 0.32310  0.82420  0.17213  Biso   1.000  N
  N3       1.0000 0.82420  0.17690  0.17213  Biso   1.000  N
  N4       1.0000 0.67580  0.32310  0.17213  Biso   1.000  N
  N5       1.0000 0.82310  0.17580  0.32787  Biso   1.000  N
  N6       1.0000 0.67690  0.32420  0.32787  Biso   1.000  N
  N7       1.0000 0.17580  0.67690  0.32787  Biso   1.000  N
  N8       1.0000 0.32420  0.82310  0.32787  Biso   1.000  N
  N9       1.0000 0.82310  0.32420  0.82787  Biso   1.000  N
  N10      1.0000 0.67690  0.17580  0.82787  Biso   1.000  N
  N11      1.0000 0.17580  0.82310  0.82787  Biso   1.000  N
  N12      1.0000 0.32420  0.67690  0.82787  Biso   1.000  N
  N13      1.0000 0.17690  0.82420  0.67213  Biso   1.000  N
  N14      1.0000 0.32310  0.67580  0.67213  Biso   1.000  N
  N15      1.0000 0.82420  0.32310  0.67213  Biso   1.000  N
  N16      1.0000 0.67580  0.17690  0.67213  Biso   1.000  N
  C81      1.0000 0.02100  0.54080  0.98530  Biso   1.000  C
  C82      1.0000 0.47900  0.95920  0.98530  Biso   1.000  C
  C83      1.0000 0.95920  0.02100  0.98530  Biso   1.000  C
  C84      1.0000 0.54080  0.47900  0.98530  Biso   1.000  C
  C85      1.0000 0.97900  0.04080  0.51470  Biso   1.000  C
  C86      1.0000 0.52100  0.45920  0.51470  Biso   1.000  C
  C87      1.0000 0.04080  0.52100  0.51470  Biso   1.000  C
  C88      1.0000 0.45920  0.97900  0.51470  Biso   1.000  C
  C89      1.0000 0.97900  0.45920  0.01470  Biso   1.000  C
  C90      1.0000 0.52100  0.04080  0.01470  Biso   1.000  C
  C91      1.0000 0.04080  0.97900  0.01470  Biso   1.000  C
  C92      1.0000 0.45920  0.52100  0.01470  Biso   1.000  C
  C93      1.0000 0.02100  0.95920  0.48530  Biso   1.000  C
  C94      1.0000 0.47900  0.54080  0.48530  Biso   1.000  C
  C95      1.0000 0.95920  0.47900  0.48530  Biso   1.000  C
  C96      1.0000 0.54080  0.02100  0.48530  Biso   1.000  C
  O1       1.0000 0.96210  0.61400  0.95472  Biso   1.000  O
  O2       1.0000 0.53790  0.88600  0.95472  Biso   1.000  O
  O3       1.0000 0.88600  0.96210  0.95472  Biso   1.000  O
  O4       1.0000 0.61400  0.53790  0.95472  Biso   1.000  O
  O5       1.0000 0.03790  0.11400  0.54528  Biso   1.000  O
  O6       1.0000 0.46210  0.38600  0.54528  Biso   1.000  O
  O7       1.0000 0.11400  0.46210  0.54528  Biso   1.000  O
  O8       1.0000 0.38600  0.03790  0.54528  Biso   1.000  O
  O9       1.0000 0.03790  0.38600  0.04528  Biso   1.000  O
  O10      1.0000 0.46210  0.11400  0.04528  Biso   1.000  O
  O11      1.0000 0.11400  0.03790  0.04528  Biso   1.000  O
  O12      1.0000 0.38600  0.46210  0.04528  Biso   1.000  O
  O13      1.0000 0.96210  0.88600  0.45472  Biso   1.000  O
  O14      1.0000 0.53790  0.61400  0.45472  Biso   1.000  O
  O15      1.0000 0.88600  0.53790  0.45472  Biso   1.000  O
  O16      1.0000 0.61400  0.96210  0.45472  Biso   1.000  O
  H65      1.0000 0.91920  0.63180  0.98500  Biso   1.000  H
  H66      1.0000 0.58080  0.86820  0.98500  Biso   1.000  H
  H67      1.0000 0.86820  0.91920  0.98500  Biso   1.000  H
  H68      1.0000 0.63180  0.58080  0.98500  Biso   1.000  H
  H69      1.0000 0.08080  0.13180  0.51500  Biso   1.000  H
  H70      1.0000 0.41920  0.36820  0.51500  Biso   1.000  H
  H71      1.0000 0.13180  0.41920  0.51500  Biso   1.000  H
  H72      1.0000 0.36820  0.08080  0.51500  Biso   1.000  H
  H73      1.0000 0.08080  0.36820  0.01500  Biso   1.000  H
  H74      1.0000 0.41920  0.13180  0.01500  Biso   1.000  H
  H75      1.0000 0.13180  0.08080  0.01500  Biso   1.000  H
  H76      1.0000 0.36820  0.41920  0.01500  Biso   1.000  H
  H77      1.0000 0.91920  0.86820  0.48500  Biso   1.000  H
  H78      1.0000 0.58080  0.63180  0.48500  Biso   1.000  H
  H79      1.0000 0.86820  0.58080  0.48500  Biso   1.000  H
  H80      1.0000 0.63180  0.91920  0.48500  Biso   1.000  H
  O17      1.0000 0.08780  0.53300  0.93390  Biso   1.000  O
  O18      1.0000 0.41220  0.96700  0.93390  Biso   1.000  O
  O19      1.0000 0.96700  0.08780  0.93390  Biso   1.000  O
  O20      1.0000 0.53300  0.41220  0.93390  Biso   1.000  O
  O21      1.0000 0.91220  0.03300  0.56610  Biso   1.000  O
  O22      1.0000 0.58780  0.46700  0.56610  Biso   1.000  O
  O23      1.0000 0.03300  0.58780  0.56610  Biso   1.000  O
  O24      1.0000 0.46700  0.91220  0.56610  Biso   1.000  O
  O25      1.0000 0.91220  0.46700  0.06610  Biso   1.000  O
  O26      1.0000 0.58780  0.03300  0.06610  Biso   1.000  O
  O27      1.0000 0.03300  0.91220  0.06610  Biso   1.000  O
  O28      1.0000 0.46700  0.58780  0.06610  Biso   1.000  O
  O29      1.0000 0.08780  0.96700  0.43390  Biso   1.000  O
  O30      1.0000 0.41220  0.53300  0.43390  Biso   1.000  O
  O31      1.0000 0.96700  0.41220  0.43390  Biso   1.000  O
  O32      1.0000 0.53300  0.08780  0.43390  Biso   1.000  O
  H81      1.0000 0.13800  0.50670  0.95080  Biso   1.000  H
  H82      1.0000 0.36200  0.99330  0.95080  Biso   1.000  H
  H83      1.0000 0.99330  0.13800  0.95080  Biso   1.000  H
  H84      1.0000 0.50670  0.36200  0.95080  Biso   1.000  H
  H85      1.0000 0.86200  0.00670  0.54920  Biso   1.000  H
  H86      1.0000 0.63800  0.49330  0.54920  Biso   1.000  H
  H87      1.0000 0.00670  0.63800  0.54920  Biso   1.000  H
  H88      1.0000 0.49330  0.86200  0.54920  Biso   1.000  H
  H89      1.0000 0.86200  0.49330  0.04920  Biso   1.000  H
  H90      1.0000 0.63800  0.00670  0.04920  Biso   1.000  H
  H91      1.0000 0.00670  0.86200  0.04920  Biso   1.000  H
  H92      1.0000 0.49330  0.63800  0.04920  Biso   1.000  H
  H93      1.0000 0.13800  0.99330  0.45080  Biso   1.000  H
  H94      1.0000 0.36200  0.50670  0.45080  Biso   1.000  H
  H95      1.0000 0.99330  0.36200  0.45080  Biso   1.000  H
  H96      1.0000 0.50670  0.13800  0.45080  Biso   1.000  H
  F1       1.0000 0.86180  0.70330  0.54150  Biso   1.000  F
  F2       1.0000 0.63820  0.79670  0.54150  Biso   1.000  F
  F3       1.0000 0.79670  0.86180  0.54150  Biso   1.000  F
  F4       1.0000 0.70330  0.63820  0.54150  Biso   1.000  F
  F5       1.0000 0.13820  0.20330  0.95850  Biso   1.000  F
  F6       1.0000 0.36180  0.29670  0.95850  Biso   1.000  F
  F7       1.0000 0.20330  0.36180  0.95850  Biso   1.000  F
  F8       1.0000 0.29670  0.13820  0.95850  Biso   1.000  F
  F9       1.0000 0.13820  0.29670  0.45850  Biso   1.000  F
  F10      1.0000 0.36180  0.20330  0.45850  Biso   1.000  F
  F11      1.0000 0.20330  0.13820  0.45850  Biso   1.000  F
  F12      1.0000 0.29670  0.36180  0.45850  Biso   1.000  F
  F13      1.0000 0.86180  0.79670  0.04150  Biso   1.000  F
  F14      1.0000 0.63820  0.70330  0.04150  Biso   1.000  F
  F15      1.0000 0.79670  0.63820  0.04150  Biso   1.000  F
  F16      1.0000 0.70330  0.86180  0.04150  Biso   1.000  F
  F17      1.0000 0.75000  0.75000  0.62770  Biso   1.000  F
  F18      1.0000 0.25000  0.25000  0.87230  Biso   1.000  F
  F19      1.0000 0.25000  0.25000  0.37230  Biso   1.000  F
  F20      1.0000 0.75000  0.75000  0.12770  Biso   1.000  F
  F21      1.0000 0.75000  0.75000  0.45840  Biso   1.000  F
  F22      1.0000 0.25000  0.25000  0.04160  Biso   1.000  F
  F23      1.0000 0.25000  0.25000  0.54160  Biso   1.000  F
  F24      1.0000 0.75000  0.75000  0.95840  Biso   1.000  F
  O33      1.0000 0.11330  0.88670  0.25000  Biso   1.000  O
  O34      1.0000 0.38670  0.61330  0.25000  Biso   1.000  O
  O35      1.0000 0.61330  0.11330  0.25000  Biso   1.000  O
  O36      1.0000 0.88670  0.38670  0.25000  Biso   1.000  O
  O37      1.0000 0.88670  0.11330  0.75000  Biso   1.000  O
  O38      1.0000 0.61330  0.38670  0.75000  Biso   1.000  O
  O39      1.0000 0.38670  0.88670  0.75000  Biso   1.000  O
  O40      1.0000 0.11330  0.61330  0.75000  Biso   1.000  O
  O41      1.0000 0.09340  0.39310  0.19150  Biso   1.000  O
  O42      1.0000 0.40660  0.10690  0.19150  Biso   1.000  O
  O43      1.0000 0.10690  0.09340  0.19150  Biso   1.000  O
  O44      1.0000 0.39310  0.40660  0.19150  Biso   1.000  O
  O45      1.0000 0.90660  0.89310  0.30850  Biso   1.000  O
  O46      1.0000 0.59340  0.60690  0.30850  Biso   1.000  O
  O47      1.0000 0.89310  0.59340  0.30850  Biso   1.000  O
  O48      1.0000 0.60690  0.90660  0.30850  Biso   1.000  O
  O49      1.0000 0.90660  0.60690  0.80850  Biso   1.000  O
  O50      1.0000 0.59340  0.89310  0.80850  Biso   1.000  O
  O51      1.0000 0.89310  0.90660  0.80850  Biso   1.000  O
  O52      1.0000 0.60690  0.59340  0.80850  Biso   1.000  O
  O53      1.0000 0.09340  0.10690  0.69150  Biso   1.000  O
  O54      1.0000 0.40660  0.39310  0.69150  Biso   1.000  O
  O55      1.0000 0.10690  0.40660  0.69150  Biso   1.000  O
  O56      1.0000 0.39310  0.09340  0.69150  Biso   1.000  O
  O57      1.0000 0.11950  0.22190  0.25950  Biso   1.000  O
  O58      1.0000 0.38050  0.27810  0.25950  Biso   1.000  O
  O59      1.0000 0.27810  0.11950  0.25950  Biso   1.000  O
  O60      1.0000 0.22190  0.38050  0.25950  Biso   1.000  O
  O61      1.0000 0.88050  0.72190  0.24050  Biso   1.000  O
  O62      1.0000 0.61950  0.77810  0.24050  Biso   1.000  O
  O63      1.0000 0.72190  0.61950  0.24050  Biso   1.000  O
  O64      1.0000 0.77810  0.88050  0.24050  Biso   1.000  O
  O65      1.0000 0.88050  0.77810  0.74050  Biso   1.000  O
  O66      1.0000 0.61950  0.72190  0.74050  Biso   1.000  O
  O67      1.0000 0.72190  0.88050  0.74050  Biso   1.000  O
  O68      1.0000 0.77810  0.61950  0.74050  Biso   1.000  O
  O69      1.0000 0.11950  0.27810  0.75950  Biso   1.000  O
  O70      1.0000 0.38050  0.22190  0.75950  Biso   1.000  O
  O71      1.0000 0.27810  0.38050  0.75950  Biso   1.000  O
  O72      1.0000 0.22190  0.11950  0.75950  Biso   1.000  O
  O73      1.0000 0.06190  0.31910  0.19170  Biso   1.000  O
  O74      1.0000 0.43810  0.18090  0.19170  Biso   1.000  O
  O75      1.0000 0.18090  0.06190  0.19170  Biso   1.000  O
  O76      1.0000 0.31910  0.43810  0.19170  Biso   1.000  O
  O77      1.0000 0.93810  0.81910  0.30830  Biso   1.000  O
  O78      1.0000 0.56190  0.68090  0.30830  Biso   1.000  O
  O79      1.0000 0.81910  0.56190  0.30830  Biso   1.000  O
  O80      1.0000 0.68090  0.93810  0.30830  Biso   1.000  O
  O81      1.0000 0.93810  0.68090  0.80830  Biso   1.000  O
  O82      1.0000 0.56190  0.81910  0.80830  Biso   1.000  O
  O83      1.0000 0.81910  0.93810  0.80830  Biso   1.000  O
  O84      1.0000 0.68090  0.56190  0.80830  Biso   1.000  O
  O85      1.0000 0.06190  0.18090  0.69170  Biso   1.000  O
  O86      1.0000 0.43810  0.31910  0.69170  Biso   1.000  O
  O87      1.0000 0.18090  0.43810  0.69170  Biso   1.000  O
  O88      1.0000 0.31910  0.06190  0.69170  Biso   1.000  O
