data_image0
_cell_length_a       7.2127
_cell_length_b       21.4781
_cell_length_c       9.7942
_cell_angle_alpha    90
_cell_angle_beta     90
_cell_angle_gamma    90

_symmetry_space_group_name_H-M    "P 1"
_symmetry_int_tables_number       1

loop_
  _symmetry_equiv_pos_as_xyz
  'x, y, z'

loop_
  _atom_site_label
  _atom_site_occupancy
  _atom_site_fract_x
  _atom_site_fract_y
  _atom_site_fract_z
  _atom_site_thermal_displace_type
  _atom_site_B_iso_or_equiv
  _atom_site_type_symbol
  Cu1      1.0000 0.00000  0.50000  0.00000  Biso   1.000  Cu
  Cu2      1.0000 0.50000  0.50000  0.50000  Biso   1.000  Cu
  Cu3      1.0000 0.50000  0.00000  0.50000  Biso   1.000  Cu
  Cu4      1.0000 0.00000  0.00000  0.00000  Biso   1.000  Cu
  O1       1.0000 0.15072  0.52507  0.84541  Biso   1.000  O
  O2       1.0000 0.34928  0.47493  0.34541  Biso   1.000  O
  O3       1.0000 0.65072  0.97493  0.65459  Biso   1.000  O
  O4       1.0000 0.84928  0.02507  0.15459  Biso   1.000  O
  O5       1.0000 0.84928  0.47493  0.15459  Biso   1.000  O
  O6       1.0000 0.65072  0.52507  0.65459  Biso   1.000  O
  O7       1.0000 0.34928  0.02507  0.34541  Biso   1.000  O
  O8       1.0000 0.15072  0.97493  0.84541  Biso   1.000  O
  H1       1.0000 0.24400  0.54330  0.86000  Biso   1.000  H
  H2       1.0000 0.25600  0.45670  0.36000  Biso   1.000  H
  H3       1.0000 0.74400  0.95670  0.64000  Biso   1.000  H
  H4       1.0000 0.75600  0.04330  0.14000  Biso   1.000  H
  H5       1.0000 0.75600  0.45670  0.14000  Biso   1.000  H
  H6       1.0000 0.74400  0.54330  0.64000  Biso   1.000  H
  H7       1.0000 0.25600  0.04330  0.36000  Biso   1.000  H
  H8       1.0000 0.24400  0.95670  0.86000  Biso   1.000  H
  H9       1.0000 0.10000  0.54290  0.78900  Biso   1.000  H
  H10      1.0000 0.40000  0.45710  0.28900  Biso   1.000  H
  H11      1.0000 0.60000  0.95710  0.71100  Biso   1.000  H
  H12      1.0000 0.90000  0.04290  0.21100  Biso   1.000  H
  H13      1.0000 0.90000  0.45710  0.21100  Biso   1.000  H
  H14      1.0000 0.60000  0.54290  0.71100  Biso   1.000  H
  H15      1.0000 0.40000  0.04290  0.28900  Biso   1.000  H
  H16      1.0000 0.10000  0.95710  0.78900  Biso   1.000  H
  O9       1.0000 0.14377  0.55250  0.12455  Biso   1.000  O
  O10      1.0000 0.35623  0.44750  0.62455  Biso   1.000  O
  O11      1.0000 0.64377  0.94750  0.37545  Biso   1.000  O
  O12      1.0000 0.85623  0.05250  0.87545  Biso   1.000  O
  O13      1.0000 0.85623  0.44750  0.87545  Biso   1.000  O
  O14      1.0000 0.64377  0.55250  0.37545  Biso   1.000  O
  O15      1.0000 0.35623  0.05250  0.62455  Biso   1.000  O
  O16      1.0000 0.14377  0.94750  0.12455  Biso   1.000  O
  H17      1.0000 0.25100  0.55640  0.12000  Biso   1.000  H
  H18      1.0000 0.24900  0.44360  0.62000  Biso   1.000  H
  H19      1.0000 0.75100  0.94360  0.38000  Biso   1.000  H
  H20      1.0000 0.74900  0.05640  0.88000  Biso   1.000  H
  H21      1.0000 0.74900  0.44360  0.88000  Biso   1.000  H
  H22      1.0000 0.75100  0.55640  0.38000  Biso   1.000  H
  H23      1.0000 0.24900  0.05640  0.62000  Biso   1.000  H
  H24      1.0000 0.25100  0.94360  0.12000  Biso   1.000  H
  H25      1.0000 0.11000  0.55790  0.19700  Biso   1.000  H
  H26      1.0000 0.39000  0.44210  0.69700  Biso   1.000  H
  H27      1.0000 0.61000  0.94210  0.30300  Biso   1.000  H
  H28      1.0000 0.89000  0.05790  0.80300  Biso   1.000  H
  H29      1.0000 0.89000  0.44210  0.80300  Biso   1.000  H
  H30      1.0000 0.61000  0.55790  0.30300  Biso   1.000  H
  H31      1.0000 0.39000  0.05790  0.69700  Biso   1.000  H
  H32      1.0000 0.11000  0.94210  0.19700  Biso   1.000  H
  S1       1.0000 0.40486  0.39958  0.01581  Biso   1.000  S
  S2       1.0000 0.09514  0.60042  0.51581  Biso   1.000  S
  S3       1.0000 0.90486  0.10042  0.48419  Biso   1.000  S
  S4       1.0000 0.59514  0.89958  0.98419  Biso   1.000  S
  S5       1.0000 0.59514  0.60042  0.98419  Biso   1.000  S
  S6       1.0000 0.90486  0.39958  0.48419  Biso   1.000  S
  S7       1.0000 0.09514  0.89958  0.51581  Biso   1.000  S
  S8       1.0000 0.40486  0.10042  0.01581  Biso   1.000  S
  O17      1.0000 0.21023  0.41208  0.03611  Biso   1.000  O
  O18      1.0000 0.28977  0.58792  0.53611  Biso   1.000  O
  O19      1.0000 0.71023  0.08792  0.46389  Biso   1.000  O
  O20      1.0000 0.78977  0.91208  0.96389  Biso   1.000  O
  O21      1.0000 0.78977  0.58792  0.96389  Biso   1.000  O
  O22      1.0000 0.71023  0.41208  0.46389  Biso   1.000  O
  O23      1.0000 0.28977  0.91208  0.53611  Biso   1.000  O
  O24      1.0000 0.21023  0.08792  0.03611  Biso   1.000  O
  O25      1.0000 0.48219  0.42355  0.88815  Biso   1.000  O
  O26      1.0000 0.01781  0.57645  0.38815  Biso   1.000  O
  O27      1.0000 0.98219  0.07645  0.61185  Biso   1.000  O
  O28      1.0000 0.51781  0.92355  0.11185  Biso   1.000  O
  O29      1.0000 0.51781  0.57645  0.11185  Biso   1.000  O
  O30      1.0000 0.98219  0.42355  0.61185  Biso   1.000  O
  O31      1.0000 0.01781  0.92355  0.38815  Biso   1.000  O
  O32      1.0000 0.48219  0.07645  0.88815  Biso   1.000  O
  O33      1.0000 0.51610  0.41866  0.13342  Biso   1.000  O
  O34      1.0000 0.98390  0.58134  0.63342  Biso   1.000  O
  O35      1.0000 0.01610  0.08134  0.36658  Biso   1.000  O
  O36      1.0000 0.48390  0.91866  0.86658  Biso   1.000  O
  O37      1.0000 0.48390  0.58134  0.86658  Biso   1.000  O
  O38      1.0000 0.01610  0.41866  0.36658  Biso   1.000  O
  O39      1.0000 0.98390  0.91866  0.63342  Biso   1.000  O
  O40      1.0000 0.51610  0.08134  0.13342  Biso   1.000  O
  C1       1.0000 0.42734  0.31590  0.00337  Biso   1.000  C
  C2       1.0000 0.07266  0.68410  0.50337  Biso   1.000  C
  C3       1.0000 0.92734  0.18410  0.49663  Biso   1.000  C
  C4       1.0000 0.57266  0.81590  0.99663  Biso   1.000  C
  C5       1.0000 0.57266  0.68410  0.99663  Biso   1.000  C
  C6       1.0000 0.92734  0.31590  0.49663  Biso   1.000  C
  C7       1.0000 0.07266  0.81590  0.50337  Biso   1.000  C
  C8       1.0000 0.42734  0.18410  0.00337  Biso   1.000  C
  C9       1.0000 0.29518  0.28257  0.92717  Biso   1.000  C
  C10      1.0000 0.20482  0.71743  0.42717  Biso   1.000  C
  C11      1.0000 0.79518  0.21743  0.57283  Biso   1.000  C
  C12      1.0000 0.70482  0.78257  0.07283  Biso   1.000  C
  C13      1.0000 0.70482  0.71743  0.07283  Biso   1.000  C
  C14      1.0000 0.79518  0.28257  0.57283  Biso   1.000  C
  C15      1.0000 0.20482  0.78257  0.42717  Biso   1.000  C
  C16      1.0000 0.29518  0.21743  0.92717  Biso   1.000  C
  Cl1      1.0000 0.13952  0.32051  0.82391  Biso   1.000  Cl
  Cl2      1.0000 0.36048  0.67949  0.32391  Biso   1.000  Cl
  Cl3      1.0000 0.63952  0.17949  0.67609  Biso   1.000  Cl
  Cl4      1.0000 0.86048  0.82051  0.17609  Biso   1.000  Cl
  Cl5      1.0000 0.86048  0.67949  0.17609  Biso   1.000  Cl
  Cl6      1.0000 0.63952  0.32051  0.67609  Biso   1.000  Cl
  Cl7      1.0000 0.36048  0.82051  0.32391  Biso   1.000  Cl
  Cl8      1.0000 0.13952  0.17949  0.82391  Biso   1.000  Cl
  C17      1.0000 0.57550  0.28275  0.06127  Biso   1.000  C
  C18      1.0000 0.92450  0.71725  0.56127  Biso   1.000  C
  C19      1.0000 0.07550  0.21725  0.43873  Biso   1.000  C
  C20      1.0000 0.42450  0.78275  0.93873  Biso   1.000  C
  C21      1.0000 0.42450  0.71725  0.93873  Biso   1.000  C
  C22      1.0000 0.07550  0.28275  0.43873  Biso   1.000  C
  C23      1.0000 0.92450  0.78275  0.56127  Biso   1.000  C
  C24      1.0000 0.57550  0.21725  0.06127  Biso   1.000  C
  Cl9      1.0000 0.76971  0.31934  0.12444  Biso   1.000  Cl
  Cl10     1.0000 0.73029  0.68066  0.62444  Biso   1.000  Cl
  Cl11     1.0000 0.26971  0.18066  0.37556  Biso   1.000  Cl
  Cl12     1.0000 0.23029  0.81934  0.87556  Biso   1.000  Cl
  Cl13     1.0000 0.23029  0.68066  0.87556  Biso   1.000  Cl
  Cl14     1.0000 0.26971  0.31934  0.37556  Biso   1.000  Cl
  Cl15     1.0000 0.73029  0.81934  0.62444  Biso   1.000  Cl
  Cl16     1.0000 0.76971  0.18066  0.12444  Biso   1.000  Cl
