data_image0
_cell_length_a       10.674
_cell_length_b       4.9473
_cell_length_c       17.432
_cell_angle_alpha    90
_cell_angle_beta     99.81
_cell_angle_gamma    90

_symmetry_space_group_name_H-M    "P 1"
_symmetry_int_tables_number       1

loop_
  _symmetry_equiv_pos_as_xyz
  'x, y, z'

loop_
  _atom_site_label
  _atom_site_occupancy
  _atom_site_fract_x
  _atom_site_fract_y
  _atom_site_fract_z
  _atom_site_thermal_displace_type
  _atom_site_B_iso_or_equiv
  _atom_site_type_symbol
  Cu1      1.0000 0.99965  0.62699  0.00001  Biso   1.000  Cu
  Cu2      1.0000 0.49965  0.37301  0.50001  Biso   1.000  Cu
  O1       1.0000 0.91460  0.82680  0.90990  Biso   1.000  O
  O2       1.0000 0.41460  0.17320  0.40990  Biso   1.000  O
  O3       1.0000 0.84080  0.46370  0.84180  Biso   1.000  O
  O4       1.0000 0.34080  0.53630  0.34180  Biso   1.000  O
  O5       1.0000 0.72710  0.75390  0.72250  Biso   1.000  O
  O6       1.0000 0.22710  0.24610  0.22250  Biso   1.000  O
  O7       1.0000 0.59400  0.53670  0.59620  Biso   1.000  O
  O8       1.0000 0.09400  0.46330  0.09620  Biso   1.000  O
  O9       1.0000 0.53920  0.93800  0.54240  Biso   1.000  O
  O10      1.0000 0.03920  0.06200  0.04240  Biso   1.000  O
  C1       1.0000 0.85460  0.70290  0.85030  Biso   1.000  C
  C2       1.0000 0.35460  0.29710  0.35030  Biso   1.000  C
  C3       1.0000 0.79640  0.89810  0.78770  Biso   1.000  C
  C4       1.0000 0.29640  0.10190  0.28770  Biso   1.000  C
  H1       1.0000 0.86300  0.00470  0.77080  Biso   1.000  H
  H2       1.0000 0.36300  0.99530  0.27080  Biso   1.000  H
  H3       1.0000 0.73960  0.02040  0.80850  Biso   1.000  H
  H4       1.0000 0.23960  0.97960  0.30850  Biso   1.000  H
  C5       1.0000 0.66510  0.93990  0.66680  Biso   1.000  C
  C6       1.0000 0.16510  0.06010  0.16680  Biso   1.000  C
  H5       1.0000 0.60620  0.04880  0.69030  Biso   1.000  H
  H6       1.0000 0.10620  0.95120  0.19030  Biso   1.000  H
  H7       1.0000 0.72760  0.05990  0.65070  Biso   1.000  H
  H8       1.0000 0.22760  0.94010  0.15070  Biso   1.000  H
  C7       1.0000 0.59340  0.79450  0.59630  Biso   1.000  C
  C8       1.0000 0.09340  0.20550  0.09630  Biso   1.000  C
  N1       1.0000 0.83490  0.54400  0.03860  Biso   1.000  N
  N2       1.0000 0.33490  0.45600  0.53860  Biso   1.000  N
  N3       1.0000 0.43140  0.50750  0.15440  Biso   1.000  N
  N4       1.0000 0.93140  0.49250  0.65440  Biso   1.000  N
  H9       1.0000 0.36290  0.46400  0.17120  Biso   1.000  H
  H10      1.0000 0.86290  0.53600  0.67120  Biso   1.000  H
  H11      1.0000 0.45760  0.67220  0.15770  Biso   1.000  H
  H12      1.0000 0.95760  0.32780  0.65770  Biso   1.000  H
  O11      1.0000 0.46210  0.08050  0.11760  Biso   1.000  O
  O12      1.0000 0.96210  0.91950  0.61760  Biso   1.000  O
  C9       1.0000 0.80170  0.67200  0.09800  Biso   1.000  C
  C10      1.0000 0.30170  0.32800  0.59800  Biso   1.000  C
  H13      1.0000 0.85430  0.80930  0.12140  Biso   1.000  H
  H14      1.0000 0.35430  0.19070  0.62140  Biso   1.000  H
  C11      1.0000 0.69250  0.61320  0.12760  Biso   1.000  C
  C12      1.0000 0.19250  0.38680  0.62760  Biso   1.000  C
  H15      1.0000 0.67230  0.71090  0.16940  Biso   1.000  H
  H16      1.0000 0.17230  0.28910  0.66940  Biso   1.000  H
  C13      1.0000 0.61450  0.41050  0.09480  Biso   1.000  C
  C14      1.0000 0.11450  0.58950  0.59480  Biso   1.000  C
  C15      1.0000 0.64880  0.27740  0.03120  Biso   1.000  C
  C16      1.0000 0.14880  0.72260  0.53120  Biso   1.000  C
  H17      1.0000 0.59770  0.14020  0.00640  Biso   1.000  H
  H18      1.0000 0.09770  0.85980  0.50640  Biso   1.000  H
  C17      1.0000 0.75890  0.35020  0.00540  Biso   1.000  C
  C18      1.0000 0.25890  0.64980  0.50540  Biso   1.000  C
  H19      1.0000 0.78070  0.25950  0.96280  Biso   1.000  H
  H20      1.0000 0.28070  0.74050  0.46280  Biso   1.000  H
  C19      1.0000 0.49590  0.32280  0.12380  Biso   1.000  C
  C20      1.0000 0.99590  0.67720  0.62380  Biso   1.000  C
  N5       1.0000 0.15040  0.54600  0.94600  Biso   1.000  N
  N6       1.0000 0.65040  0.45400  0.44600  Biso   1.000  N
  N7       1.0000 0.52380  0.54770  0.80460  Biso   1.000  N
  N8       1.0000 0.02380  0.45230  0.30460  Biso   1.000  N
  H21      1.0000 0.58510  0.51500  0.77970  Biso   1.000  H
  H22      1.0000 0.08510  0.48500  0.27970  Biso   1.000  H
  H23      1.0000 0.50760  0.71130  0.81640  Biso   1.000  H
  H24      1.0000 0.00760  0.28870  0.31640  Biso   1.000  H
  O13      1.0000 0.47180  0.11130  0.81020  Biso   1.000  O
  O14      1.0000 0.97180  0.88870  0.31020  Biso   1.000  O
  C21      1.0000 0.25980  0.68420  0.95940  Biso   1.000  C
  C22      1.0000 0.75980  0.31580  0.45940  Biso   1.000  C
  H25      1.0000 0.26930  0.82130  0.99650  Biso   1.000  H
  H26      1.0000 0.76930  0.17870  0.49650  Biso   1.000  H
  C23      1.0000 0.35820  0.63070  0.92060  Biso   1.000  C
  C24      1.0000 0.85820  0.36930  0.42060  Biso   1.000  C
  H27      1.0000 0.43250  0.73220  0.93040  Biso   1.000  H
  H28      1.0000 0.93250  0.26780  0.43040  Biso   1.000  H
  C25      1.0000 0.34560  0.42550  0.86710  Biso   1.000  C
  C26      1.0000 0.84560  0.57450  0.36710  Biso   1.000  C
  C27      1.0000 0.23610  0.27720  0.85480  Biso   1.000  C
  C28      1.0000 0.73610  0.72280  0.35480  Biso   1.000  C
  H29      1.0000 0.22730  0.13230  0.82030  Biso   1.000  H
  H30      1.0000 0.72730  0.86770  0.32030  Biso   1.000  H
  C29      1.0000 0.13870  0.34440  0.89390  Biso   1.000  C
  C30      1.0000 0.63870  0.65560  0.39390  Biso   1.000  C
  H31      1.0000 0.06300  0.24750  0.88400  Biso   1.000  H
  H32      1.0000 0.56300  0.75250  0.38400  Biso   1.000  H
  C31      1.0000 0.45500  0.34780  0.82460  Biso   1.000  C
  C32      1.0000 0.95500  0.65220  0.32460  Biso   1.000  C
