data_image0
_cell_length_a       7.7133
_cell_length_b       9.8544
_cell_length_c       14.988
_cell_angle_alpha    90
_cell_angle_beta     100.434
_cell_angle_gamma    90

_symmetry_space_group_name_H-M    "P 1"
_symmetry_int_tables_number       1

loop_
  _symmetry_equiv_pos_as_xyz
  'x, y, z'

loop_
  _atom_site_label
  _atom_site_occupancy
  _atom_site_fract_x
  _atom_site_fract_y
  _atom_site_fract_z
  _atom_site_thermal_displace_type
  _atom_site_B_iso_or_equiv
  _atom_site_type_symbol
  Cu1      1.0000 0.43373  0.33827  0.19737  Biso   1.000  Cu
  Cu2      1.0000 0.56627  0.83827  0.30263  Biso   1.000  Cu
  Cu3      1.0000 0.56627  0.66173  0.80263  Biso   1.000  Cu
  Cu4      1.0000 0.43373  0.16173  0.69737  Biso   1.000  Cu
  N1       1.0000 0.65020  0.30802  0.14353  Biso   1.000  N
  N2       1.0000 0.34980  0.80802  0.35647  Biso   1.000  N
  N3       1.0000 0.34980  0.69198  0.85647  Biso   1.000  N
  N4       1.0000 0.65020  0.19198  0.64353  Biso   1.000  N
  N5       1.0000 0.91190  0.42238  0.88567  Biso   1.000  N
  N6       1.0000 0.08810  0.92238  0.61433  Biso   1.000  N
  N7       1.0000 0.08810  0.57762  0.11433  Biso   1.000  N
  N8       1.0000 0.91190  0.07762  0.38567  Biso   1.000  N
  H1       1.0000 0.91620  0.47460  0.84010  Biso   1.000  H
  H2       1.0000 0.08380  0.97460  0.65990  Biso   1.000  H
  H3       1.0000 0.08380  0.52540  0.15990  Biso   1.000  H
  H4       1.0000 0.91620  0.02540  0.34010  Biso   1.000  H
  H5       1.0000 0.97580  0.35040  0.89360  Biso   1.000  H
  H6       1.0000 0.02420  0.85040  0.60640  Biso   1.000  H
  H7       1.0000 0.02420  0.64960  0.10640  Biso   1.000  H
  H8       1.0000 0.97580  0.14960  0.39360  Biso   1.000  H
  C1       1.0000 0.76480  0.20690  0.16945  Biso   1.000  C
  C2       1.0000 0.23520  0.70690  0.33055  Biso   1.000  C
  C3       1.0000 0.23520  0.79310  0.83055  Biso   1.000  C
  C4       1.0000 0.76480  0.29310  0.66945  Biso   1.000  C
  H9       1.0000 0.75030  0.15330  0.21860  Biso   1.000  H
  H10      1.0000 0.24970  0.65330  0.28140  Biso   1.000  H
  H11      1.0000 0.24970  0.84670  0.78140  Biso   1.000  H
  H12      1.0000 0.75030  0.34670  0.71860  Biso   1.000  H
  C5       1.0000 0.90350  0.17990  0.12542  Biso   1.000  C
  C6       1.0000 0.09650  0.67990  0.37458  Biso   1.000  C
  C7       1.0000 0.09650  0.82010  0.87458  Biso   1.000  C
  C8       1.0000 0.90350  0.32010  0.62542  Biso   1.000  C
  H13      1.0000 0.98270  0.11070  0.14600  Biso   1.000  H
  H14      1.0000 0.01730  0.61070  0.35400  Biso   1.000  H
  H15      1.0000 0.01730  0.88930  0.85400  Biso   1.000  H
  H16      1.0000 0.98270  0.38930  0.64600  Biso   1.000  H
  C9       1.0000 0.92430  0.25610  0.05056  Biso   1.000  C
  C10      1.0000 0.07570  0.75610  0.44944  Biso   1.000  C
  C11      1.0000 0.07570  0.74390  0.94944  Biso   1.000  C
  C12      1.0000 0.92430  0.24390  0.55056  Biso   1.000  C
  H17      1.0000 0.01580  0.23840  0.01950  Biso   1.000  H
  H18      1.0000 0.98420  0.73840  0.48050  Biso   1.000  H
  H19      1.0000 0.98420  0.76160  0.98050  Biso   1.000  H
  H20      1.0000 0.01580  0.26160  0.51950  Biso   1.000  H
  C13      1.0000 0.80480  0.35979  0.02306  Biso   1.000  C
  C14      1.0000 0.19520  0.85979  0.47694  Biso   1.000  C
  C15      1.0000 0.19520  0.64021  0.97694  Biso   1.000  C
  C16      1.0000 0.80480  0.14021  0.52306  Biso   1.000  C
  C17      1.0000 0.67340  0.38320  0.07264  Biso   1.000  C
  C18      1.0000 0.32660  0.88320  0.42736  Biso   1.000  C
  C19      1.0000 0.32660  0.61680  0.92736  Biso   1.000  C
  C20      1.0000 0.67340  0.11680  0.57264  Biso   1.000  C
  H21      1.0000 0.59680  0.45530  0.05570  Biso   1.000  H
  H22      1.0000 0.40320  0.95530  0.44430  Biso   1.000  H
  H23      1.0000 0.40320  0.54470  0.94430  Biso   1.000  H
  H24      1.0000 0.59680  0.04470  0.55570  Biso   1.000  H
  C21      1.0000 0.80670  0.45290  0.94362  Biso   1.000  C
  C22      1.0000 0.19330  0.95290  0.55638  Biso   1.000  C
  C23      1.0000 0.19330  0.54710  0.05638  Biso   1.000  C
  C24      1.0000 0.80670  0.04710  0.44362  Biso   1.000  C
  O1       1.0000 0.71210  0.55516  0.93533  Biso   1.000  O
  O2       1.0000 0.28790  0.05516  0.56467  Biso   1.000  O
  O3       1.0000 0.28790  0.44484  0.06467  Biso   1.000  O
  O4       1.0000 0.71210  0.94484  0.43533  Biso   1.000  O
  C25      1.0000 0.60250  0.54390  0.31811  Biso   1.000  C
  C26      1.0000 0.39750  0.04390  0.18189  Biso   1.000  C
  C27      1.0000 0.39750  0.45610  0.68189  Biso   1.000  C
  C28      1.0000 0.60250  0.95610  0.81811  Biso   1.000  C
  C29      1.0000 0.65340  0.42410  0.38113  Biso   1.000  C
  C30      1.0000 0.34660  0.92410  0.11887  Biso   1.000  C
  C31      1.0000 0.34660  0.57590  0.61887  Biso   1.000  C
  C32      1.0000 0.65340  0.07590  0.88113  Biso   1.000  C
  H25      1.0000 0.77740  0.40440  0.38370  Biso   1.000  H
  H26      1.0000 0.22260  0.90440  0.11630  Biso   1.000  H
  H27      1.0000 0.22260  0.59560  0.61630  Biso   1.000  H
  H28      1.0000 0.77740  0.09560  0.88370  Biso   1.000  H
  H29      1.0000 0.63760  0.44920  0.44170  Biso   1.000  H
  H30      1.0000 0.36240  0.94920  0.05830  Biso   1.000  H
  H31      1.0000 0.36240  0.55080  0.55830  Biso   1.000  H
  H32      1.0000 0.63760  0.05080  0.94170  Biso   1.000  H
  C33      1.0000 0.40040  0.28610  0.39306  Biso   1.000  C
  C34      1.0000 0.59960  0.78610  0.10694  Biso   1.000  C
  C35      1.0000 0.59960  0.71390  0.60694  Biso   1.000  C
  C36      1.0000 0.40040  0.21390  0.89306  Biso   1.000  C
  H33      1.0000 0.41630  0.33450  0.45030  Biso   1.000  H
  H34      1.0000 0.58370  0.83450  0.04970  Biso   1.000  H
  H35      1.0000 0.58370  0.66550  0.54970  Biso   1.000  H
  H36      1.0000 0.41630  0.16550  0.95030  Biso   1.000  H
  H37      1.0000 0.39040  0.19040  0.40630  Biso   1.000  H
  H38      1.0000 0.60960  0.69040  0.09370  Biso   1.000  H
  H39      1.0000 0.60960  0.80960  0.59370  Biso   1.000  H
  H40      1.0000 0.39040  0.30960  0.90630  Biso   1.000  H
  C37      1.0000 0.22770  0.33240  0.33508  Biso   1.000  C
  C38      1.0000 0.77230  0.83240  0.16492  Biso   1.000  C
  C39      1.0000 0.77230  0.66760  0.66492  Biso   1.000  C
  C40      1.0000 0.22770  0.16760  0.83508  Biso   1.000  C
  O5       1.0000 0.52170  0.52420  0.23928  Biso   1.000  O
  O6       1.0000 0.47830  0.02420  0.26072  Biso   1.000  O
  O7       1.0000 0.47830  0.47580  0.76072  Biso   1.000  O
  O8       1.0000 0.52170  0.97580  0.73928  Biso   1.000  O
  O9       1.0000 0.65200  0.65812  0.35152  Biso   1.000  O
  O10      1.0000 0.34800  0.15812  0.14848  Biso   1.000  O
  O11      1.0000 0.34800  0.34188  0.64848  Biso   1.000  O
  O12      1.0000 0.65200  0.84188  0.85152  Biso   1.000  O
  O13      1.0000 0.55430  0.30494  0.35445  Biso   1.000  O
  O14      1.0000 0.44570  0.80494  0.14555  Biso   1.000  O
  O15      1.0000 0.44570  0.69506  0.64555  Biso   1.000  O
  O16      1.0000 0.55430  0.19506  0.85445  Biso   1.000  O
  O17      1.0000 0.09570  0.33017  0.37080  Biso   1.000  O
  O18      1.0000 0.90430  0.83017  0.12920  Biso   1.000  O
  O19      1.0000 0.90430  0.66983  0.62920  Biso   1.000  O
  O20      1.0000 0.09570  0.16983  0.87080  Biso   1.000  O
  O21      1.0000 0.22820  0.36771  0.25374  Biso   1.000  O
  O22      1.0000 0.77180  0.86771  0.24626  Biso   1.000  O
  O23      1.0000 0.77180  0.63229  0.74626  Biso   1.000  O
  O24      1.0000 0.22820  0.13229  0.75374  Biso   1.000  O
