data_image0
_cell_length_a       10.0949
_cell_length_b       24.2027
_cell_length_c       10.3445
_cell_angle_alpha    90
_cell_angle_beta     97.76
_cell_angle_gamma    90

_symmetry_space_group_name_H-M    "P 1"
_symmetry_int_tables_number       1

loop_
  _symmetry_equiv_pos_as_xyz
  'x, y, z'

loop_
  _atom_site_label
  _atom_site_occupancy
  _atom_site_fract_x
  _atom_site_fract_y
  _atom_site_fract_z
  _atom_site_thermal_displace_type
  _atom_site_B_iso_or_equiv
  _atom_site_type_symbol
  Cu1      1.0000 0.57109  0.26766  0.43011  Biso   1.000  Cu
  Cu2      1.0000 0.42891  0.76766  0.06989  Biso   1.000  Cu
  Cu3      1.0000 0.42891  0.73234  0.56989  Biso   1.000  Cu
  Cu4      1.0000 0.57109  0.23234  0.93011  Biso   1.000  Cu
  N1       1.0000 0.42970  0.29723  0.29800  Biso   1.000  N
  N2       1.0000 0.57030  0.79723  0.20200  Biso   1.000  N
  N3       1.0000 0.57030  0.70277  0.70200  Biso   1.000  N
  N4       1.0000 0.42970  0.20277  0.79800  Biso   1.000  N
  N5       1.0000 0.25710  0.30323  0.14540  Biso   1.000  N
  N6       1.0000 0.74290  0.80323  0.35460  Biso   1.000  N
  N7       1.0000 0.74290  0.69677  0.85460  Biso   1.000  N
  N8       1.0000 0.25710  0.19677  0.64540  Biso   1.000  N
  N9       1.0000 0.84660  0.23724  0.75470  Biso   1.000  N
  N10      1.0000 0.15340  0.73724  0.74530  Biso   1.000  N
  N11      1.0000 0.15340  0.76276  0.24530  Biso   1.000  N
  N12      1.0000 0.84660  0.26276  0.25470  Biso   1.000  N
  N13      1.0000 0.69210  0.23899  0.58280  Biso   1.000  N
  N14      1.0000 0.30790  0.73899  0.91720  Biso   1.000  N
  N15      1.0000 0.30790  0.76101  0.41720  Biso   1.000  N
  N16      1.0000 0.69210  0.26101  0.08280  Biso   1.000  N
  O1       1.0000 0.58890  0.19928  0.33410  Biso   1.000  O
  O2       1.0000 0.41110  0.69928  0.16590  Biso   1.000  O
  O3       1.0000 0.41110  0.80072  0.66590  Biso   1.000  O
  O4       1.0000 0.58890  0.30072  0.83410  Biso   1.000  O
  O5       1.0000 0.43250  0.15973  0.43540  Biso   1.000  O
  O6       1.0000 0.56750  0.65973  0.06460  Biso   1.000  O
  O7       1.0000 0.56750  0.84027  0.56460  Biso   1.000  O
  O8       1.0000 0.43250  0.34027  0.93540  Biso   1.000  O
  O9       1.0000 0.41020  0.15985  0.08450  Biso   1.000  O
  O10      1.0000 0.58980  0.65985  0.41550  Biso   1.000  O
  O11      1.0000 0.58980  0.84015  0.91550  Biso   1.000  O
  O12      1.0000 0.41020  0.34015  0.58450  Biso   1.000  O
  O13      1.0000 0.60850  0.15926  0.00950  Biso   1.000  O
  O14      1.0000 0.39150  0.65926  0.49050  Biso   1.000  O
  O15      1.0000 0.39150  0.84074  0.99050  Biso   1.000  O
  O16      1.0000 0.60850  0.34074  0.50950  Biso   1.000  O
  O17      1.0000 0.62050  0.03823  0.00150  Biso   1.000  O
  O18      1.0000 0.37950  0.53823  0.49850  Biso   1.000  O
  O19      1.0000 0.37950  0.96177  0.99850  Biso   1.000  O
  O20      1.0000 0.62050  0.46177  0.50150  Biso   1.000  O
  O21      1.0000 0.08380  0.11744  0.15720  Biso   1.000  O
  O22      1.0000 0.91620  0.61744  0.34280  Biso   1.000  O
  O23      1.0000 0.91620  0.88256  0.84280  Biso   1.000  O
  O24      1.0000 0.08380  0.38256  0.65720  Biso   1.000  O
  O25      1.0000 0.19880  0.09607  0.99380  Biso   1.000  O
  O26      1.0000 0.80120  0.59607  0.50620  Biso   1.000  O
  O27      1.0000 0.80120  0.90393  0.00620  Biso   1.000  O
  O28      1.0000 0.19880  0.40393  0.49380  Biso   1.000  O
  H1       1.0000 0.26240  0.11020  0.04370  Biso   1.000  H
  H2       1.0000 0.73760  0.61020  0.45630  Biso   1.000  H
  H3       1.0000 0.73760  0.88980  0.95630  Biso   1.000  H
  H4       1.0000 0.26240  0.38980  0.54370  Biso   1.000  H
  C1       1.0000 0.39750  0.35270  0.27610  Biso   1.000  C
  C2       1.0000 0.60250  0.85270  0.22390  Biso   1.000  C
  C3       1.0000 0.60250  0.64730  0.72390  Biso   1.000  C
  C4       1.0000 0.39750  0.14730  0.77610  Biso   1.000  C
  H5       1.0000 0.44290  0.38300  0.32050  Biso   1.000  H
  H6       1.0000 0.55710  0.88300  0.17950  Biso   1.000  H
  H7       1.0000 0.55710  0.61700  0.67950  Biso   1.000  H
  H8       1.0000 0.44290  0.11700  0.82050  Biso   1.000  H
  C5       1.0000 0.34360  0.26927  0.21810  Biso   1.000  C
  C6       1.0000 0.65640  0.76927  0.28190  Biso   1.000  C
  C7       1.0000 0.65640  0.73073  0.78190  Biso   1.000  C
  C8       1.0000 0.34360  0.23073  0.71810  Biso   1.000  C
  H9       1.0000 0.34200  0.23010  0.21180  Biso   1.000  H
  H10      1.0000 0.65800  0.73010  0.28820  Biso   1.000  H
  H11      1.0000 0.65800  0.76990  0.78820  Biso   1.000  H
  H12      1.0000 0.34200  0.26990  0.71180  Biso   1.000  H
  C9       1.0000 0.29190  0.35655  0.18260  Biso   1.000  C
  C10      1.0000 0.70810  0.85655  0.31740  Biso   1.000  C
  C11      1.0000 0.70810  0.64345  0.81740  Biso   1.000  C
  C12      1.0000 0.29190  0.14345  0.68260  Biso   1.000  C
  H13      1.0000 0.24960  0.38950  0.14870  Biso   1.000  H
  H14      1.0000 0.75040  0.88950  0.35130  Biso   1.000  H
  H15      1.0000 0.75040  0.61050  0.85130  Biso   1.000  H
  H16      1.0000 0.24960  0.11050  0.64870  Biso   1.000  H
  C13      1.0000 0.15230  0.28711  0.04480  Biso   1.000  C
  C14      1.0000 0.84770  0.78711  0.45520  Biso   1.000  C
  C15      1.0000 0.84770  0.71289  0.95520  Biso   1.000  C
  C16      1.0000 0.15230  0.21289  0.54480  Biso   1.000  C
  C17      1.0000 0.16340  0.23783  0.97960  Biso   1.000  C
  C18      1.0000 0.83660  0.73783  0.52040  Biso   1.000  C
  C19      1.0000 0.83660  0.76217  0.02040  Biso   1.000  C
  C20      1.0000 0.16340  0.26217  0.47960  Biso   1.000  C
  H17      1.0000 0.24040  0.21530  0.00020  Biso   1.000  H
  H18      1.0000 0.75960  0.71530  0.49980  Biso   1.000  H
  H19      1.0000 0.75960  0.78470  0.99980  Biso   1.000  H
  H20      1.0000 0.24040  0.28470  0.50020  Biso   1.000  H
  C21      1.0000 0.06210  0.22178  0.88500  Biso   1.000  C
  C22      1.0000 0.93790  0.72178  0.61500  Biso   1.000  C
  C23      1.0000 0.93790  0.77822  0.11500  Biso   1.000  C
  C24      1.0000 0.06210  0.27822  0.38500  Biso   1.000  C
  H21      1.0000 0.06800  0.18760  0.84100  Biso   1.000  H
  H22      1.0000 0.93200  0.68760  0.65900  Biso   1.000  H
  H23      1.0000 0.93200  0.81240  0.15900  Biso   1.000  H
  H24      1.0000 0.06800  0.31240  0.34100  Biso   1.000  H
  C25      1.0000 0.95230  0.25510  0.85370  Biso   1.000  C
  C26      1.0000 0.04770  0.75510  0.64630  Biso   1.000  C
  C27      1.0000 0.04770  0.74490  0.14630  Biso   1.000  C
  C28      1.0000 0.95230  0.24490  0.35370  Biso   1.000  C
  C29      1.0000 0.93990  0.30460  0.91800  Biso   1.000  C
  C30      1.0000 0.06010  0.80460  0.58200  Biso   1.000  C
  C31      1.0000 0.06010  0.69540  0.08200  Biso   1.000  C
  C32      1.0000 0.93990  0.19540  0.41800  Biso   1.000  C
  H25      1.0000 0.86310  0.32720  0.89620  Biso   1.000  H
  H26      1.0000 0.13690  0.82720  0.60380  Biso   1.000  H
  H27      1.0000 0.13690  0.67280  0.10380  Biso   1.000  H
  H28      1.0000 0.86310  0.17280  0.39620  Biso   1.000  H
  C33      1.0000 0.04090  0.32079  0.01440  Biso   1.000  C
  C34      1.0000 0.95910  0.82079  0.48560  Biso   1.000  C
  C35      1.0000 0.95910  0.67921  0.98560  Biso   1.000  C
  C36      1.0000 0.04090  0.17921  0.51440  Biso   1.000  C
  H29      1.0000 0.03420  0.35460  0.05960  Biso   1.000  H
  H30      1.0000 0.96580  0.85460  0.44040  Biso   1.000  H
  H31      1.0000 0.96580  0.64540  0.94040  Biso   1.000  H
  H32      1.0000 0.03420  0.14540  0.55960  Biso   1.000  H
  C37      1.0000 0.78450  0.18608  0.74840  Biso   1.000  C
  C38      1.0000 0.21550  0.68608  0.75160  Biso   1.000  C
  C39      1.0000 0.21550  0.81392  0.25160  Biso   1.000  C
  C40      1.0000 0.78450  0.31392  0.24840  Biso   1.000  C
  H33      1.0000 0.80400  0.15590  0.80670  Biso   1.000  H
  H34      1.0000 0.19600  0.65590  0.69330  Biso   1.000  H
  H35      1.0000 0.19600  0.84410  0.19330  Biso   1.000  H
  H36      1.0000 0.80400  0.34410  0.30670  Biso   1.000  H
  C41      1.0000 0.69050  0.18785  0.64220  Biso   1.000  C
  C42      1.0000 0.30950  0.68785  0.85780  Biso   1.000  C
  C43      1.0000 0.30950  0.81215  0.35780  Biso   1.000  C
  C44      1.0000 0.69050  0.31215  0.14220  Biso   1.000  C
  H37      1.0000 0.63200  0.15840  0.61270  Biso   1.000  H
  H38      1.0000 0.36800  0.65840  0.88730  Biso   1.000  H
  H39      1.0000 0.36800  0.84160  0.38730  Biso   1.000  H
  H40      1.0000 0.63200  0.34160  0.11270  Biso   1.000  H
  C45      1.0000 0.78790  0.26709  0.65310  Biso   1.000  C
  C46      1.0000 0.21210  0.76709  0.84690  Biso   1.000  C
  C47      1.0000 0.21210  0.73291  0.34690  Biso   1.000  C
  C48      1.0000 0.78790  0.23291  0.15310  Biso   1.000  C
  H41      1.0000 0.81240  0.30380  0.63440  Biso   1.000  H
  H42      1.0000 0.18760  0.80380  0.86560  Biso   1.000  H
  H43      1.0000 0.18760  0.69620  0.36560  Biso   1.000  H
  H44      1.0000 0.81240  0.19620  0.13440  Biso   1.000  H
  C49      1.0000 0.56070  0.10266  0.30980  Biso   1.000  C
  C50      1.0000 0.43930  0.60266  0.19020  Biso   1.000  C
  C51      1.0000 0.43930  0.89734  0.69020  Biso   1.000  C
  C52      1.0000 0.56070  0.39734  0.80980  Biso   1.000  C
  C53      1.0000 0.57170  0.09628  0.17680  Biso   1.000  C
  C54      1.0000 0.42830  0.59628  0.32320  Biso   1.000  C
  C55      1.0000 0.42830  0.90372  0.82320  Biso   1.000  C
  C56      1.0000 0.57170  0.40372  0.67680  Biso   1.000  C
  C57      1.0000 0.61790  0.04658  0.13470  Biso   1.000  C
  C58      1.0000 0.38210  0.54658  0.36530  Biso   1.000  C
  C59      1.0000 0.38210  0.95342  0.86530  Biso   1.000  C
  C60      1.0000 0.61790  0.45342  0.63470  Biso   1.000  C
  C61      1.0000 0.65380  0.00351  0.22070  Biso   1.000  C
  C62      1.0000 0.34620  0.50351  0.27930  Biso   1.000  C
  C63      1.0000 0.34620  0.99649  0.77930  Biso   1.000  C
  C64      1.0000 0.65380  0.49649  0.72070  Biso   1.000  C
  H45      1.0000 0.68660  0.96990  0.18990  Biso   1.000  H
  H46      1.0000 0.31340  0.46990  0.31010  Biso   1.000  H
  H47      1.0000 0.31340  0.03010  0.81010  Biso   1.000  H
  H48      1.0000 0.68660  0.53010  0.68990  Biso   1.000  H
  C65      1.0000 0.64170  0.00970  0.35110  Biso   1.000  C
  C66      1.0000 0.35830  0.50970  0.14890  Biso   1.000  C
  C67      1.0000 0.35830  0.99030  0.64890  Biso   1.000  C
  C68      1.0000 0.64170  0.49030  0.85110  Biso   1.000  C
  H49      1.0000 0.66580  0.98040  0.41050  Biso   1.000  H
  H50      1.0000 0.33420  0.48040  0.08950  Biso   1.000  H
  H51      1.0000 0.33420  0.01960  0.58950  Biso   1.000  H
  H52      1.0000 0.66580  0.51960  0.91050  Biso   1.000  H
  C69      1.0000 0.59380  0.05939  0.39540  Biso   1.000  C
  C70      1.0000 0.40620  0.55939  0.10460  Biso   1.000  C
  C71      1.0000 0.40620  0.94061  0.60460  Biso   1.000  C
  C72      1.0000 0.59380  0.44061  0.89540  Biso   1.000  C
  H53      1.0000 0.58390  0.06350  0.48490  Biso   1.000  H
  H54      1.0000 0.41610  0.56350  0.01510  Biso   1.000  H
  H55      1.0000 0.41610  0.93650  0.51510  Biso   1.000  H
  H56      1.0000 0.58390  0.43650  0.98490  Biso   1.000  H
  C73      1.0000 0.52070  0.15775  0.36340  Biso   1.000  C
  C74      1.0000 0.47930  0.65775  0.13660  Biso   1.000  C
  C75      1.0000 0.47930  0.84225  0.63660  Biso   1.000  C
  C76      1.0000 0.52070  0.34225  0.86340  Biso   1.000  C
  C77      1.0000 0.52630  0.14187  0.08350  Biso   1.000  C
  C78      1.0000 0.47370  0.64187  0.41650  Biso   1.000  C
  C79      1.0000 0.47370  0.85813  0.91650  Biso   1.000  C
  C80      1.0000 0.52630  0.35813  0.58350  Biso   1.000  C
  C81      1.0000 0.74080  0.04534  0.95290  Biso   1.000  C
  C82      1.0000 0.25920  0.54534  0.54710  Biso   1.000  C
  C83      1.0000 0.25920  0.95466  0.04710  Biso   1.000  C
  C84      1.0000 0.74080  0.45466  0.45290  Biso   1.000  C
  C85      1.0000 0.74400  0.02880  0.82550  Biso   1.000  C
  C86      1.0000 0.25600  0.52880  0.67450  Biso   1.000  C
  C87      1.0000 0.25600  0.97120  0.17450  Biso   1.000  C
  C88      1.0000 0.74400  0.47120  0.32550  Biso   1.000  C
  H57      1.0000 0.66640  0.01330  0.77670  Biso   1.000  H
  H58      1.0000 0.33360  0.51330  0.72330  Biso   1.000  H
  H59      1.0000 0.33360  0.98670  0.22330  Biso   1.000  H
  H60      1.0000 0.66640  0.48670  0.27670  Biso   1.000  H
  C89      1.0000 0.85930  0.03470  0.76910  Biso   1.000  C
  C90      1.0000 0.14070  0.53470  0.73090  Biso   1.000  C
  C91      1.0000 0.14070  0.96530  0.23090  Biso   1.000  C
  C92      1.0000 0.85930  0.46530  0.26910  Biso   1.000  C
  H61      1.0000 0.86070  0.02360  0.68120  Biso   1.000  H
  H62      1.0000 0.13930  0.52360  0.81880  Biso   1.000  H
  H63      1.0000 0.13930  0.97640  0.31880  Biso   1.000  H
  H64      1.0000 0.86070  0.47640  0.18120  Biso   1.000  H
  C93      1.0000 0.97440  0.05720  0.84090  Biso   1.000  C
  C94      1.0000 0.02560  0.55720  0.65910  Biso   1.000  C
  C95      1.0000 0.02560  0.94280  0.15910  Biso   1.000  C
  C96      1.0000 0.97440  0.44280  0.34090  Biso   1.000  C
  H65      1.0000 0.05420  0.06130  0.80260  Biso   1.000  H
  H66      1.0000 0.94580  0.56130  0.69740  Biso   1.000  H
  H67      1.0000 0.94580  0.93870  0.19740  Biso   1.000  H
  H68      1.0000 0.05420  0.43870  0.30260  Biso   1.000  H
  C97      1.0000 0.96980  0.07325  0.96840  Biso   1.000  C
  C98      1.0000 0.03020  0.57325  0.53160  Biso   1.000  C
  C99      1.0000 0.03020  0.92675  0.03160  Biso   1.000  C
  C100     1.0000 0.96980  0.42675  0.46840  Biso   1.000  C
  C101     1.0000 0.85340  0.06781  0.02610  Biso   1.000  C
  C102     1.0000 0.14660  0.56781  0.47390  Biso   1.000  C
  C103     1.0000 0.14660  0.93219  0.97390  Biso   1.000  C
  C104     1.0000 0.85340  0.43219  0.52610  Biso   1.000  C
  H69      1.0000 0.85120  0.07920  0.11360  Biso   1.000  H
  H70      1.0000 0.14880  0.57920  0.38640  Biso   1.000  H
  H71      1.0000 0.14880  0.92080  0.88640  Biso   1.000  H
  H72      1.0000 0.85120  0.42080  0.61360  Biso   1.000  H
  C105     1.0000 0.08910  0.09760  0.05040  Biso   1.000  C
  C106     1.0000 0.91090  0.59760  0.44960  Biso   1.000  C
  C107     1.0000 0.91090  0.90240  0.94960  Biso   1.000  C
  C108     1.0000 0.08910  0.40240  0.55040  Biso   1.000  C
  O29      1.0000 0.03100  0.45430  0.00700  Biso   1.000  O
  O30      1.0000 0.96900  0.95430  0.49300  Biso   1.000  O
  O31      1.0000 0.96900  0.54570  0.99300  Biso   1.000  O
  O32      1.0000 0.03100  0.04570  0.50700  Biso   1.000  O
  H73      1.0000 0.95110  0.46520  0.98570  Biso   1.000  H
  H74      1.0000 0.04890  0.96520  0.51430  Biso   1.000  H
  H75      1.0000 0.04890  0.53480  0.01430  Biso   1.000  H
  H76      1.0000 0.95110  0.03480  0.48570  Biso   1.000  H
  H77      1.0000 0.06030  0.46650  0.08290  Biso   1.000  H
  H78      1.0000 0.93970  0.96650  0.41710  Biso   1.000  H
  H79      1.0000 0.93970  0.53350  0.91710  Biso   1.000  H
  H80      1.0000 0.06030  0.03350  0.58290  Biso   1.000  H
  O33      1.0000 0.23680  0.07975  0.39770  Biso   1.000  O
  O34      1.0000 0.76320  0.57975  0.10230  Biso   1.000  O
  O35      1.0000 0.76320  0.92025  0.60230  Biso   1.000  O
  O36      1.0000 0.23680  0.42025  0.89770  Biso   1.000  O
  H81      1.0000 0.18090  0.09980  0.43060  Biso   1.000  H
  H82      1.0000 0.81910  0.59980  0.06940  Biso   1.000  H
  H83      1.0000 0.81910  0.90020  0.56940  Biso   1.000  H
  H84      1.0000 0.18090  0.40020  0.93060  Biso   1.000  H
  H85      1.0000 0.20190  0.06820  0.32320  Biso   1.000  H
  H86      1.0000 0.79810  0.56820  0.17680  Biso   1.000  H
  H87      1.0000 0.79810  0.93180  0.67680  Biso   1.000  H
  H88      1.0000 0.20190  0.43180  0.82320  Biso   1.000  H
