data_image0
_cell_length_a       5.7031
_cell_length_b       10.9581
_cell_length_c       14.5543
_cell_angle_alpha    90
_cell_angle_beta     93.375
_cell_angle_gamma    90

_symmetry_space_group_name_H-M    "P 1"
_symmetry_int_tables_number       1

loop_
  _symmetry_equiv_pos_as_xyz
  'x, y, z'

loop_
  _atom_site_label
  _atom_site_occupancy
  _atom_site_fract_x
  _atom_site_fract_y
  _atom_site_fract_z
  _atom_site_thermal_displace_type
  _atom_site_B_iso_or_equiv
  _atom_site_type_symbol
  Cu1      1.0000 0.00000  0.00000  0.00000  Biso   1.000  Cu
  Cu2      1.0000 0.00000  0.50000  0.50000  Biso   1.000  Cu
  C1       1.0000 0.18990  0.28070  0.42988  Biso   1.000  C
  C2       1.0000 0.81010  0.78070  0.07012  Biso   1.000  C
  C3       1.0000 0.81010  0.71930  0.57012  Biso   1.000  C
  C4       1.0000 0.18990  0.21930  0.92988  Biso   1.000  C
  H1       1.0000 0.29120  0.29360  0.48140  Biso   1.000  H
  H2       1.0000 0.70880  0.79360  0.01860  Biso   1.000  H
  H3       1.0000 0.70880  0.70640  0.51860  Biso   1.000  H
  H4       1.0000 0.29120  0.20640  0.98140  Biso   1.000  H
  C5       1.0000 0.23380  0.18260  0.37277  Biso   1.000  C
  C6       1.0000 0.76620  0.68260  0.12723  Biso   1.000  C
  C7       1.0000 0.76620  0.81740  0.62723  Biso   1.000  C
  C8       1.0000 0.23380  0.31740  0.87277  Biso   1.000  C
  H5       1.0000 0.35620  0.12890  0.38810  Biso   1.000  H
  H6       1.0000 0.64380  0.62890  0.11190  Biso   1.000  H
  H7       1.0000 0.64380  0.87110  0.61190  Biso   1.000  H
  H8       1.0000 0.35620  0.37110  0.88810  Biso   1.000  H
  C9       1.0000 0.09620  0.16580  0.29439  Biso   1.000  C
  C10      1.0000 0.90380  0.66580  0.20561  Biso   1.000  C
  C11      1.0000 0.90380  0.83420  0.70561  Biso   1.000  C
  C12      1.0000 0.09620  0.33420  0.79439  Biso   1.000  C
  H9       1.0000 0.12730  0.10180  0.25490  Biso   1.000  H
  H10      1.0000 0.87270  0.60180  0.24510  Biso   1.000  H
  H11      1.0000 0.87270  0.89820  0.74510  Biso   1.000  H
  H12      1.0000 0.12730  0.39820  0.75490  Biso   1.000  H
  C13      1.0000 0.90610  0.24540  0.27288  Biso   1.000  C
  C14      1.0000 0.09390  0.74540  0.22712  Biso   1.000  C
  C15      1.0000 0.09390  0.75460  0.72712  Biso   1.000  C
  C16      1.0000 0.90610  0.25460  0.77288  Biso   1.000  C
  C17      1.0000 0.86270  0.33780  0.33798  Biso   1.000  C
  C18      1.0000 0.13730  0.83780  0.16202  Biso   1.000  C
  C19      1.0000 0.13730  0.66220  0.66202  Biso   1.000  C
  C20      1.0000 0.86270  0.16220  0.83798  Biso   1.000  C
  C21      1.0000 0.66400  0.41310  0.32588  Biso   1.000  C
  C22      1.0000 0.33600  0.91310  0.17412  Biso   1.000  C
  C23      1.0000 0.33600  0.58690  0.67412  Biso   1.000  C
  C24      1.0000 0.66400  0.08690  0.82588  Biso   1.000  C
  H13      1.0000 0.63420  0.47240  0.36940  Biso   1.000  H
  H14      1.0000 0.36580  0.97240  0.13060  Biso   1.000  H
  H15      1.0000 0.36580  0.52760  0.63060  Biso   1.000  H
  H16      1.0000 0.63420  0.02760  0.86940  Biso   1.000  H
  C25      1.0000 0.51550  0.39880  0.25015  Biso   1.000  C
  C26      1.0000 0.48450  0.89880  0.24985  Biso   1.000  C
  C27      1.0000 0.48450  0.60120  0.74985  Biso   1.000  C
  C28      1.0000 0.51550  0.10120  0.75015  Biso   1.000  C
  H17      1.0000 0.38250  0.44780  0.24260  Biso   1.000  H
  H18      1.0000 0.61750  0.94780  0.25740  Biso   1.000  H
  H19      1.0000 0.61750  0.55220  0.75740  Biso   1.000  H
  H20      1.0000 0.38250  0.05220  0.74260  Biso   1.000  H
  C29      1.0000 0.56050  0.31130  0.18331  Biso   1.000  C
  C30      1.0000 0.43950  0.81130  0.31669  Biso   1.000  C
  C31      1.0000 0.43950  0.68870  0.81669  Biso   1.000  C
  C32      1.0000 0.56050  0.18870  0.68331  Biso   1.000  C
  H21      1.0000 0.45780  0.30430  0.13150  Biso   1.000  H
  H22      1.0000 0.54220  0.80430  0.36850  Biso   1.000  H
  H23      1.0000 0.54220  0.69570  0.86850  Biso   1.000  H
  H24      1.0000 0.45780  0.19570  0.63150  Biso   1.000  H
  C33      1.0000 0.75060  0.23590  0.19219  Biso   1.000  C
  C34      1.0000 0.24940  0.73590  0.30781  Biso   1.000  C
  C35      1.0000 0.24940  0.76410  0.80781  Biso   1.000  C
  C36      1.0000 0.75060  0.26410  0.69219  Biso   1.000  C
  C37      1.0000 0.79030  0.14730  0.11449  Biso   1.000  C
  C38      1.0000 0.20970  0.64730  0.38551  Biso   1.000  C
  C39      1.0000 0.20970  0.85270  0.88551  Biso   1.000  C
  C40      1.0000 0.79030  0.35270  0.61449  Biso   1.000  C
  N1       1.0000 0.01320  0.35567  0.41472  Biso   1.000  N
  N2       1.0000 0.98680  0.85567  0.08528  Biso   1.000  N
  N3       1.0000 0.98680  0.64433  0.58528  Biso   1.000  N
  N4       1.0000 0.01320  0.14433  0.91472  Biso   1.000  N
  O1       1.0000 0.00020  0.11130  0.10511  Biso   1.000  O
  O2       1.0000 0.99980  0.61130  0.39489  Biso   1.000  O
  O3       1.0000 0.99980  0.88870  0.89489  Biso   1.000  O
  O4       1.0000 0.00020  0.38870  0.60511  Biso   1.000  O
  O5       1.0000 0.62240  0.11597  0.06304  Biso   1.000  O
  O6       1.0000 0.37760  0.61597  0.43696  Biso   1.000  O
  O7       1.0000 0.37760  0.88403  0.93696  Biso   1.000  O
  O8       1.0000 0.62240  0.38403  0.56304  Biso   1.000  O
