data_image0
_cell_length_a       5.6674
_cell_length_b       10.9072
_cell_length_c       14.5876
_cell_angle_alpha    90
_cell_angle_beta     93.491
_cell_angle_gamma    90

_symmetry_space_group_name_H-M    "P 1"
_symmetry_int_tables_number       1

loop_
  _symmetry_equiv_pos_as_xyz
  'x, y, z'

loop_
  _atom_site_label
  _atom_site_occupancy
  _atom_site_fract_x
  _atom_site_fract_y
  _atom_site_fract_z
  _atom_site_thermal_displace_type
  _atom_site_B_iso_or_equiv
  _atom_site_type_symbol
  C1       1.0000 0.80150  0.72300  0.06894  Biso   1.000  C
  C2       1.0000 0.19850  0.22300  0.43106  Biso   1.000  C
  C3       1.0000 0.19850  0.27700  0.93106  Biso   1.000  C
  C4       1.0000 0.80150  0.77700  0.56894  Biso   1.000  C
  C5       1.0000 0.76250  0.82278  0.12746  Biso   1.000  C
  C6       1.0000 0.23750  0.32278  0.37254  Biso   1.000  C
  C7       1.0000 0.23750  0.17722  0.87254  Biso   1.000  C
  C8       1.0000 0.76250  0.67722  0.62746  Biso   1.000  C
  C9       1.0000 0.90640  0.83830  0.20613  Biso   1.000  C
  C10      1.0000 0.09360  0.33830  0.29387  Biso   1.000  C
  C11      1.0000 0.09360  0.16170  0.79387  Biso   1.000  C
  C12      1.0000 0.90640  0.66170  0.70613  Biso   1.000  C
  C13      1.0000 0.09060  0.75675  0.22589  Biso   1.000  C
  C14      1.0000 0.90940  0.25675  0.27411  Biso   1.000  C
  C15      1.0000 0.90940  0.24325  0.77411  Biso   1.000  C
  C16      1.0000 0.09060  0.74325  0.72589  Biso   1.000  C
  C17      1.0000 0.12960  0.66226  0.15984  Biso   1.000  C
  C18      1.0000 0.87040  0.16226  0.34016  Biso   1.000  C
  C19      1.0000 0.87040  0.33774  0.84016  Biso   1.000  C
  C20      1.0000 0.12960  0.83774  0.65984  Biso   1.000  C
  C21      1.0000 0.32880  0.58416  0.17102  Biso   1.000  C
  C22      1.0000 0.67120  0.08416  0.32898  Biso   1.000  C
  C23      1.0000 0.67120  0.41584  0.82898  Biso   1.000  C
  C24      1.0000 0.32880  0.91584  0.67102  Biso   1.000  C
  C25      1.0000 0.48360  0.59738  0.24712  Biso   1.000  C
  C26      1.0000 0.51640  0.09738  0.25288  Biso   1.000  C
  C27      1.0000 0.51640  0.40262  0.75288  Biso   1.000  C
  C28      1.0000 0.48360  0.90262  0.74712  Biso   1.000  C
  C29      1.0000 0.44310  0.68642  0.31454  Biso   1.000  C
  C30      1.0000 0.55690  0.18642  0.18546  Biso   1.000  C
  C31      1.0000 0.55690  0.31358  0.68546  Biso   1.000  C
  C32      1.0000 0.44310  0.81358  0.81454  Biso   1.000  C
  C33      1.0000 0.24930  0.76439  0.30615  Biso   1.000  C
  C34      1.0000 0.75070  0.26439  0.19385  Biso   1.000  C
  C35      1.0000 0.75070  0.23561  0.69385  Biso   1.000  C
  C36      1.0000 0.24930  0.73561  0.80615  Biso   1.000  C
  C37      1.0000 0.21540  0.85183  0.38489  Biso   1.000  C
  C38      1.0000 0.78460  0.35183  0.11511  Biso   1.000  C
  C39      1.0000 0.78460  0.14817  0.61511  Biso   1.000  C
  C40      1.0000 0.21540  0.64817  0.88489  Biso   1.000  C
  H1       1.0000 0.68230  0.70360  0.00889  Biso   1.000  H
  H2       1.0000 0.31770  0.20360  0.49111  Biso   1.000  H
  H3       1.0000 0.31770  0.29640  0.99111  Biso   1.000  H
  H4       1.0000 0.68230  0.79640  0.50889  Biso   1.000  H
  H5       1.0000 0.61460  0.88464  0.11107  Biso   1.000  H
  H6       1.0000 0.38540  0.38464  0.38893  Biso   1.000  H
  H7       1.0000 0.38540  0.11536  0.88893  Biso   1.000  H
  H8       1.0000 0.61460  0.61536  0.61107  Biso   1.000  H
  H9       1.0000 0.87390  0.91176  0.25421  Biso   1.000  H
  H10      1.0000 0.12610  0.41176  0.24579  Biso   1.000  H
  H11      1.0000 0.12610  0.08824  0.74579  Biso   1.000  H
  H12      1.0000 0.87390  0.58824  0.75421  Biso   1.000  H
  H13      1.0000 0.36100  0.51559  0.11879  Biso   1.000  H
  H14      1.0000 0.63900  0.01559  0.38121  Biso   1.000  H
  H15      1.0000 0.63900  0.48441  0.88121  Biso   1.000  H
  H16      1.0000 0.36100  0.98441  0.61879  Biso   1.000  H
  H17      1.0000 0.63970  0.53859  0.25498  Biso   1.000  H
  H18      1.0000 0.36030  0.03859  0.24502  Biso   1.000  H
  H19      1.0000 0.36030  0.46141  0.74502  Biso   1.000  H
  H20      1.0000 0.63970  0.96141  0.75498  Biso   1.000  H
  H21      1.0000 0.56590  0.69654  0.37462  Biso   1.000  H
  H22      1.0000 0.43410  0.19654  0.12538  Biso   1.000  H
  H23      1.0000 0.43410  0.30346  0.62538  Biso   1.000  H
  H24      1.0000 0.56590  0.80346  0.87462  Biso   1.000  H
  N1       1.0000 0.98090  0.64564  0.08490  Biso   1.000  N
  N2       1.0000 0.01910  0.14564  0.41510  Biso   1.000  N
  N3       1.0000 0.01910  0.35436  0.91510  Biso   1.000  N
  N4       1.0000 0.98090  0.85436  0.58490  Biso   1.000  N
  O1       1.0000 0.02030  0.88540  0.39260  Biso   1.000  O
  O2       1.0000 0.97970  0.38540  0.10740  Biso   1.000  O
  O3       1.0000 0.97970  0.11460  0.60740  Biso   1.000  O
  O4       1.0000 0.02030  0.61460  0.89260  Biso   1.000  O
  O5       1.0000 0.38040  0.88010  0.43880  Biso   1.000  O
  O6       1.0000 0.61960  0.38010  0.06120  Biso   1.000  O
  O7       1.0000 0.61960  0.11990  0.56120  Biso   1.000  O
  O8       1.0000 0.38040  0.61990  0.93880  Biso   1.000  O
  Cu1      1.0000 0.00000  0.50000  0.00000  Biso   1.000  Cu
  Cu2      1.0000 0.00000  0.00000  0.50000  Biso   1.000  Cu
