data_image0
_cell_length_a       16.758
_cell_length_b       16.758
_cell_length_c       8.2223
_cell_angle_alpha    90
_cell_angle_beta     90
_cell_angle_gamma    90

_symmetry_space_group_name_H-M    "P 1"
_symmetry_int_tables_number       1

loop_
  _symmetry_equiv_pos_as_xyz
  'x, y, z'

loop_
  _atom_site_label
  _atom_site_occupancy
  _atom_site_fract_x
  _atom_site_fract_y
  _atom_site_fract_z
  _atom_site_thermal_displace_type
  _atom_site_B_iso_or_equiv
  _atom_site_type_symbol
  Cu1      1.0000 0.22207  0.22207  0.00000  Biso   1.000  Cu
  Cu2      1.0000 0.77793  0.77793  0.00000  Biso   1.000  Cu
  Cu3      1.0000 0.27793  0.72207  0.50000  Biso   1.000  Cu
  Cu4      1.0000 0.72207  0.27793  0.50000  Biso   1.000  Cu
  C1       1.0000 0.94980  0.27090  0.33980  Biso   1.000  C
  C2       1.0000 0.05020  0.72910  0.33980  Biso   1.000  C
  C3       1.0000 0.22910  0.44980  0.83980  Biso   1.000  C
  C4       1.0000 0.77090  0.55020  0.83980  Biso   1.000  C
  C5       1.0000 0.55020  0.77090  0.16020  Biso   1.000  C
  C6       1.0000 0.44980  0.22910  0.16020  Biso   1.000  C
  C7       1.0000 0.27090  0.94980  0.66020  Biso   1.000  C
  C8       1.0000 0.72910  0.05020  0.66020  Biso   1.000  C
  C9       1.0000 0.86080  0.27810  0.37080  Biso   1.000  C
  C10      1.0000 0.13920  0.72190  0.37080  Biso   1.000  C
  C11      1.0000 0.22190  0.36080  0.87080  Biso   1.000  C
  C12      1.0000 0.77810  0.63920  0.87080  Biso   1.000  C
  C13      1.0000 0.63920  0.77810  0.12920  Biso   1.000  C
  C14      1.0000 0.36080  0.22190  0.12920  Biso   1.000  C
  C15      1.0000 0.27810  0.86080  0.62920  Biso   1.000  C
  C16      1.0000 0.72190  0.13920  0.62920  Biso   1.000  C
  C17      1.0000 0.00010  0.28840  0.46680  Biso   1.000  C
  C18      1.0000 0.99990  0.71160  0.46680  Biso   1.000  C
  C19      1.0000 0.21160  0.50010  0.96680  Biso   1.000  C
  C20      1.0000 0.78840  0.49990  0.96680  Biso   1.000  C
  C21      1.0000 0.49990  0.78840  0.03320  Biso   1.000  C
  C22      1.0000 0.50010  0.21160  0.03320  Biso   1.000  C
  C23      1.0000 0.28840  0.00010  0.53320  Biso   1.000  C
  C24      1.0000 0.71160  0.99990  0.53320  Biso   1.000  C
  H1       1.0000 0.97880  0.30430  0.56610  Biso   1.000  H
  H2       1.0000 0.02120  0.69570  0.56610  Biso   1.000  H
  H3       1.0000 0.19570  0.47880  0.06610  Biso   1.000  H
  H4       1.0000 0.80430  0.52120  0.06610  Biso   1.000  H
  H5       1.0000 0.52120  0.80430  0.93390  Biso   1.000  H
  H6       1.0000 0.47880  0.19570  0.93390  Biso   1.000  H
  H7       1.0000 0.30430  0.97880  0.43390  Biso   1.000  H
  H8       1.0000 0.69570  0.02120  0.43390  Biso   1.000  H
  C25      1.0000 0.06670  0.24360  0.17170  Biso   1.000  C
  C26      1.0000 0.93330  0.75640  0.17170  Biso   1.000  C
  C27      1.0000 0.25640  0.56670  0.67170  Biso   1.000  C
  C28      1.0000 0.74360  0.43330  0.67170  Biso   1.000  C
  C29      1.0000 0.43330  0.74360  0.32830  Biso   1.000  C
  C30      1.0000 0.56670  0.25640  0.32830  Biso   1.000  C
  C31      1.0000 0.24360  0.06670  0.82830  Biso   1.000  C
  C32      1.0000 0.75640  0.93330  0.82830  Biso   1.000  C
  C33      1.0000 0.93750  0.22970  0.04240  Biso   1.000  C
  C34      1.0000 0.06250  0.77030  0.04240  Biso   1.000  C
  C35      1.0000 0.27030  0.43750  0.54240  Biso   1.000  C
  C36      1.0000 0.72970  0.56250  0.54240  Biso   1.000  C
  C37      1.0000 0.56250  0.72970  0.45760  Biso   1.000  C
  C38      1.0000 0.43750  0.27030  0.45760  Biso   1.000  C
  C39      1.0000 0.22970  0.93750  0.95760  Biso   1.000  C
  C40      1.0000 0.77030  0.06250  0.95760  Biso   1.000  C
  H9       1.0000 0.88210  0.23180  0.04550  Biso   1.000  H
  H10      1.0000 0.11790  0.76820  0.04550  Biso   1.000  H
  H11      1.0000 0.26820  0.38210  0.54550  Biso   1.000  H
  H12      1.0000 0.73180  0.61790  0.54550  Biso   1.000  H
  H13      1.0000 0.61790  0.73180  0.45450  Biso   1.000  H
  H14      1.0000 0.38210  0.26820  0.45450  Biso   1.000  H
  H15      1.0000 0.23180  0.88210  0.95450  Biso   1.000  H
  H16      1.0000 0.76820  0.11790  0.95450  Biso   1.000  H
  C41      1.0000 0.05670  0.20550  0.90160  Biso   1.000  C
  C42      1.0000 0.94330  0.79450  0.90160  Biso   1.000  C
  C43      1.0000 0.29450  0.55670  0.40160  Biso   1.000  C
  C44      1.0000 0.70550  0.44330  0.40160  Biso   1.000  C
  C45      1.0000 0.44330  0.70550  0.59840  Biso   1.000  C
  C46      1.0000 0.55670  0.29450  0.59840  Biso   1.000  C
  C47      1.0000 0.20550  0.05670  0.09840  Biso   1.000  C
  C48      1.0000 0.79450  0.94330  0.09840  Biso   1.000  C
  H17      1.0000 0.08130  0.19070  0.80480  Biso   1.000  H
  H18      1.0000 0.91870  0.80930  0.80480  Biso   1.000  H
  H19      1.0000 0.30930  0.58130  0.30480  Biso   1.000  H
  H20      1.0000 0.69070  0.41870  0.30480  Biso   1.000  H
  H21      1.0000 0.41870  0.69070  0.69520  Biso   1.000  H
  H22      1.0000 0.58130  0.30930  0.69520  Biso   1.000  H
  H23      1.0000 0.19070  0.08130  0.19520  Biso   1.000  H
  H24      1.0000 0.80930  0.91870  0.19520  Biso   1.000  H
  C49      1.0000 0.97430  0.20900  0.90530  Biso   1.000  C
  C50      1.0000 0.02570  0.79100  0.90530  Biso   1.000  C
  C51      1.0000 0.29100  0.47430  0.40530  Biso   1.000  C
  C52      1.0000 0.70900  0.52570  0.40530  Biso   1.000  C
  C53      1.0000 0.52570  0.70900  0.59470  Biso   1.000  C
  C54      1.0000 0.47430  0.29100  0.59470  Biso   1.000  C
  C55      1.0000 0.20900  0.97430  0.09470  Biso   1.000  C
  C56      1.0000 0.79100  0.02570  0.09470  Biso   1.000  C
  H25      1.0000 0.94480  0.19690  0.81270  Biso   1.000  H
  H26      1.0000 0.05520  0.80310  0.81270  Biso   1.000  H
  H27      1.0000 0.30310  0.44480  0.31270  Biso   1.000  H
  H28      1.0000 0.69690  0.55520  0.31270  Biso   1.000  H
  H29      1.0000 0.55520  0.69690  0.68730  Biso   1.000  H
  H30      1.0000 0.44480  0.30310  0.68730  Biso   1.000  H
  H31      1.0000 0.19690  0.94480  0.18730  Biso   1.000  H
  H32      1.0000 0.80310  0.05520  0.18730  Biso   1.000  H
  C57      1.0000 0.98290  0.24880  0.18630  Biso   1.000  C
  C58      1.0000 0.01710  0.75120  0.18630  Biso   1.000  C
  C59      1.0000 0.25120  0.48290  0.68630  Biso   1.000  C
  C60      1.0000 0.74880  0.51710  0.68630  Biso   1.000  C
  C61      1.0000 0.51710  0.74880  0.31370  Biso   1.000  C
  C62      1.0000 0.48290  0.25120  0.31370  Biso   1.000  C
  C63      1.0000 0.24880  0.98290  0.81370  Biso   1.000  C
  C64      1.0000 0.75120  0.01710  0.81370  Biso   1.000  C
  C65      1.0000 0.11670  0.26140  0.30570  Biso   1.000  C
  C66      1.0000 0.88330  0.73860  0.30570  Biso   1.000  C
  C67      1.0000 0.23860  0.61670  0.80570  Biso   1.000  C
  C68      1.0000 0.76140  0.38330  0.80570  Biso   1.000  C
  C69      1.0000 0.38330  0.76140  0.19430  Biso   1.000  C
  C70      1.0000 0.61670  0.23860  0.19430  Biso   1.000  C
  C71      1.0000 0.26140  0.11670  0.69430  Biso   1.000  C
  C72      1.0000 0.73860  0.88330  0.69430  Biso   1.000  C
  H33      1.0000 0.17190  0.25850  0.29480  Biso   1.000  H
  H34      1.0000 0.82810  0.74150  0.29480  Biso   1.000  H
  H35      1.0000 0.24150  0.67190  0.79480  Biso   1.000  H
  H36      1.0000 0.75850  0.32810  0.79480  Biso   1.000  H
  H37      1.0000 0.32810  0.75850  0.20520  Biso   1.000  H
  H38      1.0000 0.67190  0.24150  0.20520  Biso   1.000  H
  H39      1.0000 0.25850  0.17190  0.70520  Biso   1.000  H
  H40      1.0000 0.74150  0.82810  0.70520  Biso   1.000  H
  C73      1.0000 0.08410  0.28270  0.44890  Biso   1.000  C
  C74      1.0000 0.91590  0.71730  0.44890  Biso   1.000  C
  C75      1.0000 0.21730  0.58410  0.94890  Biso   1.000  C
  C76      1.0000 0.78270  0.41590  0.94890  Biso   1.000  C
  C77      1.0000 0.41590  0.78270  0.05110  Biso   1.000  C
  C78      1.0000 0.58410  0.21730  0.05110  Biso   1.000  C
  C79      1.0000 0.28270  0.08410  0.55110  Biso   1.000  C
  C80      1.0000 0.71730  0.91590  0.55110  Biso   1.000  C
  H41      1.0000 0.11700  0.29370  0.53710  Biso   1.000  H
  H42      1.0000 0.88300  0.70630  0.53710  Biso   1.000  H
  H43      1.0000 0.20630  0.61700  0.03710  Biso   1.000  H
  H44      1.0000 0.79370  0.38300  0.03710  Biso   1.000  H
  H45      1.0000 0.38300  0.79370  0.96290  Biso   1.000  H
  H46      1.0000 0.61700  0.20630  0.96290  Biso   1.000  H
  H47      1.0000 0.29370  0.11700  0.46290  Biso   1.000  H
  H48      1.0000 0.70630  0.88300  0.46290  Biso   1.000  H
  N1       1.0000 0.10220  0.22200  0.02690  Biso   1.000  N
  N2       1.0000 0.89780  0.77800  0.02690  Biso   1.000  N
  N3       1.0000 0.27800  0.60220  0.52690  Biso   1.000  N
  N4       1.0000 0.72200  0.39780  0.52690  Biso   1.000  N
  N5       1.0000 0.39780  0.72200  0.47310  Biso   1.000  N
  N6       1.0000 0.60220  0.27800  0.47310  Biso   1.000  N
  N7       1.0000 0.22200  0.10220  0.97310  Biso   1.000  N
  N8       1.0000 0.77800  0.89780  0.97310  Biso   1.000  N
  O1       1.0000 0.83900  0.27650  0.51390  Biso   1.000  O
  O2       1.0000 0.16100  0.72350  0.51390  Biso   1.000  O
  O3       1.0000 0.22350  0.33900  0.01390  Biso   1.000  O
  O4       1.0000 0.77650  0.66100  0.01390  Biso   1.000  O
  O5       1.0000 0.66100  0.77650  0.98610  Biso   1.000  O
  O6       1.0000 0.33900  0.22350  0.98610  Biso   1.000  O
  O7       1.0000 0.27650  0.83900  0.48610  Biso   1.000  O
  O8       1.0000 0.72350  0.16100  0.48610  Biso   1.000  O
  O9       1.0000 0.81230  0.28610  0.25380  Biso   1.000  O
  O10      1.0000 0.18770  0.71390  0.25380  Biso   1.000  O
  O11      1.0000 0.21390  0.31230  0.75380  Biso   1.000  O
  O12      1.0000 0.78610  0.68770  0.75380  Biso   1.000  O
  O13      1.0000 0.68770  0.78610  0.24620  Biso   1.000  O
  O14      1.0000 0.31230  0.21390  0.24620  Biso   1.000  O
  O15      1.0000 0.28610  0.81230  0.74620  Biso   1.000  O
  O16      1.0000 0.71390  0.18770  0.74620  Biso   1.000  O
