data_image0
_cell_length_a       6.1847
_cell_length_b       11.3893
_cell_length_c       14.2936
_cell_angle_alpha    90
_cell_angle_beta     94.244
_cell_angle_gamma    90

_symmetry_space_group_name_H-M    "P 1"
_symmetry_int_tables_number       1

loop_
  _symmetry_equiv_pos_as_xyz
  'x, y, z'

loop_
  _atom_site_label
  _atom_site_occupancy
  _atom_site_fract_x
  _atom_site_fract_y
  _atom_site_fract_z
  _atom_site_thermal_displace_type
  _atom_site_B_iso_or_equiv
  _atom_site_type_symbol
  Cu1      1.0000 0.00000  0.50000  0.00000  Biso   1.000  Cu
  Cu2      1.0000 0.00000  0.00000  0.50000  Biso   1.000  Cu
  O1       1.0000 0.00170  0.39100  0.10653  Biso   1.000  O
  O2       1.0000 0.99830  0.89100  0.39347  Biso   1.000  O
  O3       1.0000 0.99830  0.60900  0.89347  Biso   1.000  O
  O4       1.0000 0.00170  0.10900  0.60653  Biso   1.000  O
  O5       1.0000 0.64550  0.40490  0.07436  Biso   1.000  O
  O6       1.0000 0.35450  0.90490  0.42564  Biso   1.000  O
  O7       1.0000 0.35450  0.59510  0.92564  Biso   1.000  O
  O8       1.0000 0.64550  0.09510  0.57436  Biso   1.000  O
  N1       1.0000 0.03320  0.13750  0.41413  Biso   1.000  N
  N2       1.0000 0.96680  0.63750  0.08587  Biso   1.000  N
  N3       1.0000 0.96680  0.86250  0.58587  Biso   1.000  N
  N4       1.0000 0.03320  0.36250  0.91413  Biso   1.000  N
  C1       1.0000 0.21120  0.20150  0.42840  Biso   1.000  C
  C2       1.0000 0.78880  0.70150  0.07160  Biso   1.000  C
  C3       1.0000 0.78880  0.79850  0.57160  Biso   1.000  C
  C4       1.0000 0.21120  0.29850  0.92840  Biso   1.000  C
  H1       1.0000 0.30930  0.18240  0.47860  Biso   1.000  H
  H2       1.0000 0.69070  0.68240  0.02140  Biso   1.000  H
  H3       1.0000 0.69070  0.81760  0.52140  Biso   1.000  H
  H4       1.0000 0.30930  0.31760  0.97860  Biso   1.000  H
  C5       1.0000 0.25840  0.29650  0.37140  Biso   1.000  C
  C6       1.0000 0.74160  0.79650  0.12860  Biso   1.000  C
  C7       1.0000 0.74160  0.70350  0.62860  Biso   1.000  C
  C8       1.0000 0.25840  0.20350  0.87140  Biso   1.000  C
  H5       1.0000 0.38260  0.34110  0.38500  Biso   1.000  H
  H6       1.0000 0.61740  0.84110  0.11500  Biso   1.000  H
  H7       1.0000 0.61740  0.65890  0.61500  Biso   1.000  H
  H8       1.0000 0.38260  0.15890  0.88500  Biso   1.000  H
  C9       1.0000 0.12020  0.32310  0.29550  Biso   1.000  C
  C10      1.0000 0.87980  0.82310  0.20450  Biso   1.000  C
  C11      1.0000 0.87980  0.67690  0.70450  Biso   1.000  C
  C12      1.0000 0.12020  0.17690  0.79550  Biso   1.000  C
  H9       1.0000 0.15180  0.38510  0.25640  Biso   1.000  H
  H10      1.0000 0.84820  0.88510  0.24360  Biso   1.000  H
  H11      1.0000 0.84820  0.61490  0.74360  Biso   1.000  H
  H12      1.0000 0.15180  0.11490  0.75640  Biso   1.000  H
  C13      1.0000 0.92850  0.25630  0.27590  Biso   1.000  C
  C14      1.0000 0.07150  0.75630  0.22410  Biso   1.000  C
  C15      1.0000 0.07150  0.74370  0.72410  Biso   1.000  C
  C16      1.0000 0.92850  0.24370  0.77590  Biso   1.000  C
  C17      1.0000 0.88640  0.16390  0.33950  Biso   1.000  C
  C18      1.0000 0.11360  0.66390  0.16050  Biso   1.000  C
  C19      1.0000 0.11360  0.83610  0.66050  Biso   1.000  C
  C20      1.0000 0.88640  0.33610  0.83950  Biso   1.000  C
  C21      1.0000 0.69390  0.09720  0.32750  Biso   1.000  C
  C22      1.0000 0.30610  0.59720  0.17250  Biso   1.000  C
  C23      1.0000 0.30610  0.90280  0.67250  Biso   1.000  C
  C24      1.0000 0.69390  0.40280  0.82750  Biso   1.000  C
  H13      1.0000 0.66810  0.03690  0.36910  Biso   1.000  H
  H14      1.0000 0.33190  0.53690  0.13090  Biso   1.000  H
  H15      1.0000 0.33190  0.96310  0.63090  Biso   1.000  H
  H16      1.0000 0.66810  0.46310  0.86910  Biso   1.000  H
  C25      1.0000 0.54640  0.12160  0.25480  Biso   1.000  C
  C26      1.0000 0.45360  0.62160  0.24520  Biso   1.000  C
  C27      1.0000 0.45360  0.87840  0.74520  Biso   1.000  C
  C28      1.0000 0.54640  0.37840  0.75480  Biso   1.000  C
  H17      1.0000 0.41880  0.07830  0.24730  Biso   1.000  H
  H18      1.0000 0.58120  0.57830  0.25270  Biso   1.000  H
  H19      1.0000 0.58120  0.92170  0.75270  Biso   1.000  H
  H20      1.0000 0.41880  0.42170  0.74730  Biso   1.000  H
  C29      1.0000 0.58540  0.21170  0.19100  Biso   1.000  C
  C30      1.0000 0.41460  0.71170  0.30900  Biso   1.000  C
  C31      1.0000 0.41460  0.78830  0.80900  Biso   1.000  C
  C32      1.0000 0.58540  0.28830  0.69100  Biso   1.000  C
  H21      1.0000 0.48190  0.22720  0.14200  Biso   1.000  H
  H22      1.0000 0.51810  0.72720  0.35800  Biso   1.000  H
  H23      1.0000 0.51810  0.77280  0.85800  Biso   1.000  H
  H24      1.0000 0.48190  0.27280  0.64200  Biso   1.000  H
  C33      1.0000 0.77160  0.27750  0.19900  Biso   1.000  C
  C34      1.0000 0.22840  0.77750  0.30100  Biso   1.000  C
  C35      1.0000 0.22840  0.72250  0.80100  Biso   1.000  C
  C36      1.0000 0.77160  0.22250  0.69900  Biso   1.000  C
  C37      1.0000 0.80450  0.36530  0.12180  Biso   1.000  C
  C38      1.0000 0.19550  0.86530  0.37820  Biso   1.000  C
  C39      1.0000 0.19550  0.63470  0.87820  Biso   1.000  C
  C40      1.0000 0.80450  0.13470  0.62180  Biso   1.000  C
