data_image0
_cell_length_a       7.7535
_cell_length_b       11.3348
_cell_length_c       24.0815
_cell_angle_alpha    90
_cell_angle_beta     97.688
_cell_angle_gamma    90

_symmetry_space_group_name_H-M    "P 1"
_symmetry_int_tables_number       1

loop_
  _symmetry_equiv_pos_as_xyz
  'x, y, z'

loop_
  _atom_site_label
  _atom_site_occupancy
  _atom_site_fract_x
  _atom_site_fract_y
  _atom_site_fract_z
  _atom_site_thermal_displace_type
  _atom_site_B_iso_or_equiv
  _atom_site_type_symbol
  Cu1      1.0000 0.22807  0.05609  0.25505  Biso   1.000  Cu
  Cu2      1.0000 0.72807  0.55609  0.25505  Biso   1.000  Cu
  Cu3      1.0000 0.22807  0.94391  0.75505  Biso   1.000  Cu
  Cu4      1.0000 0.72807  0.44391  0.75505  Biso   1.000  Cu
  Cu5      1.0000 0.77193  0.94391  0.74495  Biso   1.000  Cu
  Cu6      1.0000 0.27193  0.44391  0.74495  Biso   1.000  Cu
  Cu7      1.0000 0.77193  0.05609  0.24495  Biso   1.000  Cu
  Cu8      1.0000 0.27193  0.55609  0.24495  Biso   1.000  Cu
  O1       1.0000 0.37059  0.16238  0.30549  Biso   1.000  O
  O2       1.0000 0.87059  0.66238  0.30549  Biso   1.000  O
  O3       1.0000 0.37059  0.83762  0.80549  Biso   1.000  O
  O4       1.0000 0.87059  0.33762  0.80549  Biso   1.000  O
  O5       1.0000 0.62941  0.83762  0.69451  Biso   1.000  O
  O6       1.0000 0.12941  0.33762  0.69451  Biso   1.000  O
  O7       1.0000 0.62941  0.16238  0.19451  Biso   1.000  O
  O8       1.0000 0.12941  0.66238  0.19451  Biso   1.000  O
  O9       1.0000 0.12700  0.23897  0.32870  Biso   1.000  O
  O10      1.0000 0.62700  0.73897  0.32870  Biso   1.000  O
  O11      1.0000 0.12700  0.76103  0.82870  Biso   1.000  O
  O12      1.0000 0.62700  0.26103  0.82870  Biso   1.000  O
  O13      1.0000 0.87300  0.76103  0.67130  Biso   1.000  O
  O14      1.0000 0.37300  0.26103  0.67130  Biso   1.000  O
  O15      1.0000 0.87300  0.23897  0.17130  Biso   1.000  O
  O16      1.0000 0.37300  0.73897  0.17130  Biso   1.000  O
  O17      1.0000 0.38460  0.44123  0.29733  Biso   1.000  O
  O18      1.0000 0.88460  0.94123  0.29733  Biso   1.000  O
  O19      1.0000 0.38460  0.55877  0.79733  Biso   1.000  O
  O20      1.0000 0.88460  0.05877  0.79733  Biso   1.000  O
  O21      1.0000 0.61540  0.55877  0.70267  Biso   1.000  O
  O22      1.0000 0.11540  0.05877  0.70267  Biso   1.000  O
  O23      1.0000 0.61540  0.44123  0.20267  Biso   1.000  O
  O24      1.0000 0.11540  0.94123  0.20267  Biso   1.000  O
  O25      1.0000 0.67050  0.47388  0.32150  Biso   1.000  O
  O26      1.0000 0.17050  0.97388  0.32150  Biso   1.000  O
  O27      1.0000 0.67050  0.52612  0.82150  Biso   1.000  O
  O28      1.0000 0.17050  0.02612  0.82150  Biso   1.000  O
  O29      1.0000 0.32950  0.52612  0.67850  Biso   1.000  O
  O30      1.0000 0.82950  0.02612  0.67850  Biso   1.000  O
  O31      1.0000 0.32950  0.47388  0.17850  Biso   1.000  O
  O32      1.0000 0.82950  0.97388  0.17850  Biso   1.000  O
  O33      1.0000 0.80750  0.48860  0.52879  Biso   1.000  O
  O34      1.0000 0.30750  0.98860  0.52879  Biso   1.000  O
  O35      1.0000 0.80750  0.51140  0.02879  Biso   1.000  O
  O36      1.0000 0.30750  0.01140  0.02879  Biso   1.000  O
  O37      1.0000 0.19250  0.51140  0.47121  Biso   1.000  O
  O38      1.0000 0.69250  0.01140  0.47121  Biso   1.000  O
  O39      1.0000 0.19250  0.48860  0.97121  Biso   1.000  O
  O40      1.0000 0.69250  0.98860  0.97121  Biso   1.000  O
  H1       1.0000 0.86000  0.51080  0.55980  Biso   1.000  H
  H2       1.0000 0.36000  0.01080  0.55980  Biso   1.000  H
  H3       1.0000 0.86000  0.48920  0.05980  Biso   1.000  H
  H4       1.0000 0.36000  0.98920  0.05980  Biso   1.000  H
  H5       1.0000 0.14000  0.48920  0.44020  Biso   1.000  H
  H6       1.0000 0.64000  0.98920  0.44020  Biso   1.000  H
  H7       1.0000 0.14000  0.51080  0.94020  Biso   1.000  H
  H8       1.0000 0.64000  0.01080  0.94020  Biso   1.000  H
  O41      1.0000 0.67080  0.36787  0.58242  Biso   1.000  O
  O42      1.0000 0.17080  0.86787  0.58242  Biso   1.000  O
  O43      1.0000 0.67080  0.63213  0.08242  Biso   1.000  O
  O44      1.0000 0.17080  0.13213  0.08242  Biso   1.000  O
  O45      1.0000 0.32920  0.63213  0.41758  Biso   1.000  O
  O46      1.0000 0.82920  0.13213  0.41758  Biso   1.000  O
  O47      1.0000 0.32920  0.36787  0.91758  Biso   1.000  O
  O48      1.0000 0.82920  0.86787  0.91758  Biso   1.000  O
  O49      1.0000 0.28070  0.15472  0.19290  Biso   1.000  O
  O50      1.0000 0.78070  0.65472  0.19290  Biso   1.000  O
  O51      1.0000 0.28070  0.84528  0.69290  Biso   1.000  O
  O52      1.0000 0.78070  0.34528  0.69290  Biso   1.000  O
  O53      1.0000 0.71930  0.84528  0.80710  Biso   1.000  O
  O54      1.0000 0.21930  0.34528  0.80710  Biso   1.000  O
  O55      1.0000 0.71930  0.15472  0.30710  Biso   1.000  O
  O56      1.0000 0.21930  0.65472  0.30710  Biso   1.000  O
  O57      1.0000 0.49300  0.07777  0.61575  Biso   1.000  O
  O58      1.0000 0.99300  0.57777  0.61575  Biso   1.000  O
  O59      1.0000 0.49300  0.92223  0.11575  Biso   1.000  O
  O60      1.0000 0.99300  0.42223  0.11575  Biso   1.000  O
  O61      1.0000 0.50700  0.92223  0.38425  Biso   1.000  O
  O62      1.0000 0.00700  0.42223  0.38425  Biso   1.000  O
  O63      1.0000 0.50700  0.07777  0.88425  Biso   1.000  O
  O64      1.0000 0.00700  0.57777  0.88425  Biso   1.000  O
  O65      1.0000 0.50000  0.94240  0.25000  Biso   1.000  O
  O66      1.0000 0.00000  0.44240  0.25000  Biso   1.000  O
  O67      1.0000 0.50000  0.05760  0.75000  Biso   1.000  O
  O68      1.0000 0.00000  0.55760  0.75000  Biso   1.000  O
  C1       1.0000 0.39490  0.27789  0.38724  Biso   1.000  C
  C2       1.0000 0.89490  0.77789  0.38724  Biso   1.000  C
  C3       1.0000 0.39490  0.72211  0.88724  Biso   1.000  C
  C4       1.0000 0.89490  0.22211  0.88724  Biso   1.000  C
  C5       1.0000 0.60510  0.72211  0.61276  Biso   1.000  C
  C6       1.0000 0.10510  0.22211  0.61276  Biso   1.000  C
  C7       1.0000 0.60510  0.27789  0.11276  Biso   1.000  C
  C8       1.0000 0.10510  0.77789  0.11276  Biso   1.000  C
  C9       1.0000 0.51470  0.36934  0.38372  Biso   1.000  C
  C10      1.0000 0.01470  0.86934  0.38372  Biso   1.000  C
  C11      1.0000 0.51470  0.63066  0.88372  Biso   1.000  C
  C12      1.0000 0.01470  0.13066  0.88372  Biso   1.000  C
  C13      1.0000 0.48530  0.63066  0.61628  Biso   1.000  C
  C14      1.0000 0.98530  0.13066  0.61628  Biso   1.000  C
  C15      1.0000 0.48530  0.36934  0.11628  Biso   1.000  C
  C16      1.0000 0.98530  0.86934  0.11628  Biso   1.000  C
  C17      1.0000 0.61530  0.40910  0.43219  Biso   1.000  C
  C18      1.0000 0.11530  0.90910  0.43219  Biso   1.000  C
  C19      1.0000 0.61530  0.59090  0.93219  Biso   1.000  C
  C20      1.0000 0.11530  0.09090  0.93219  Biso   1.000  C
  C21      1.0000 0.38470  0.59090  0.56781  Biso   1.000  C
  C22      1.0000 0.88470  0.09090  0.56781  Biso   1.000  C
  C23      1.0000 0.38470  0.40910  0.06781  Biso   1.000  C
  C24      1.0000 0.88470  0.90910  0.06781  Biso   1.000  C
  H9       1.0000 0.69780  0.47030  0.43000  Biso   1.000  H
  H10      1.0000 0.19780  0.97030  0.43000  Biso   1.000  H
  H11      1.0000 0.69780  0.52970  0.93000  Biso   1.000  H
  H12      1.0000 0.19780  0.02970  0.93000  Biso   1.000  H
  H13      1.0000 0.30220  0.52970  0.57000  Biso   1.000  H
  H14      1.0000 0.80220  0.02970  0.57000  Biso   1.000  H
  H15      1.0000 0.30220  0.47030  0.07000  Biso   1.000  H
  H16      1.0000 0.80220  0.97030  0.07000  Biso   1.000  H
  C25      1.0000 0.59590  0.35986  0.48389  Biso   1.000  C
  C26      1.0000 0.09590  0.85986  0.48389  Biso   1.000  C
  C27      1.0000 0.59590  0.64014  0.98389  Biso   1.000  C
  C28      1.0000 0.09590  0.14014  0.98389  Biso   1.000  C
  C29      1.0000 0.40410  0.64014  0.51611  Biso   1.000  C
  C30      1.0000 0.90410  0.14014  0.51611  Biso   1.000  C
  C31      1.0000 0.40410  0.35986  0.01611  Biso   1.000  C
  C32      1.0000 0.90410  0.85986  0.01611  Biso   1.000  C
  C33      1.0000 0.48000  0.26780  0.48717  Biso   1.000  C
  C34      1.0000 0.98000  0.76780  0.48717  Biso   1.000  C
  C35      1.0000 0.48000  0.73220  0.98717  Biso   1.000  C
  C36      1.0000 0.98000  0.23220  0.98717  Biso   1.000  C
  C37      1.0000 0.52000  0.73220  0.51283  Biso   1.000  C
  C38      1.0000 0.02000  0.23220  0.51283  Biso   1.000  C
  C39      1.0000 0.52000  0.26780  0.01283  Biso   1.000  C
  C40      1.0000 0.02000  0.76780  0.01283  Biso   1.000  C
  H17      1.0000 0.46880  0.23280  0.52230  Biso   1.000  H
  H18      1.0000 0.96880  0.73280  0.52230  Biso   1.000  H
  H19      1.0000 0.46880  0.76720  0.02230  Biso   1.000  H
  H20      1.0000 0.96880  0.26720  0.02230  Biso   1.000  H
  H21      1.0000 0.53120  0.76720  0.47770  Biso   1.000  H
  H22      1.0000 0.03120  0.26720  0.47770  Biso   1.000  H
  H23      1.0000 0.53120  0.23280  0.97770  Biso   1.000  H
  H24      1.0000 0.03120  0.73280  0.97770  Biso   1.000  H
  C41      1.0000 0.38030  0.22710  0.43874  Biso   1.000  C
  C42      1.0000 0.88030  0.72710  0.43874  Biso   1.000  C
  C43      1.0000 0.38030  0.77290  0.93874  Biso   1.000  C
  C44      1.0000 0.88030  0.27290  0.93874  Biso   1.000  C
  C45      1.0000 0.61970  0.77290  0.56126  Biso   1.000  C
  C46      1.0000 0.11970  0.27290  0.56126  Biso   1.000  C
  C47      1.0000 0.61970  0.22710  0.06126  Biso   1.000  C
  C48      1.0000 0.11970  0.72710  0.06126  Biso   1.000  C
  H25      1.0000 0.30130  0.16370  0.44090  Biso   1.000  H
  H26      1.0000 0.80130  0.66370  0.44090  Biso   1.000  H
  H27      1.0000 0.30130  0.83630  0.94090  Biso   1.000  H
  H28      1.0000 0.80130  0.33630  0.94090  Biso   1.000  H
  H29      1.0000 0.69870  0.83630  0.55910  Biso   1.000  H
  H30      1.0000 0.19870  0.33630  0.55910  Biso   1.000  H
  H31      1.0000 0.69870  0.16370  0.05910  Biso   1.000  H
  H32      1.0000 0.19870  0.66370  0.05910  Biso   1.000  H
  C49      1.0000 0.28620  0.22626  0.33628  Biso   1.000  C
  C50      1.0000 0.78620  0.72626  0.33628  Biso   1.000  C
  C51      1.0000 0.28620  0.77374  0.83628  Biso   1.000  C
  C52      1.0000 0.78620  0.27374  0.83628  Biso   1.000  C
  C53      1.0000 0.71380  0.77374  0.66372  Biso   1.000  C
  C54      1.0000 0.21380  0.27374  0.66372  Biso   1.000  C
  C55      1.0000 0.71380  0.22626  0.16372  Biso   1.000  C
  C56      1.0000 0.21380  0.72626  0.16372  Biso   1.000  C
  C57      1.0000 0.52470  0.43252  0.32953  Biso   1.000  C
  C58      1.0000 0.02470  0.93252  0.32953  Biso   1.000  C
  C59      1.0000 0.52470  0.56748  0.82953  Biso   1.000  C
  C60      1.0000 0.02470  0.06748  0.82953  Biso   1.000  C
  C61      1.0000 0.47530  0.56748  0.67047  Biso   1.000  C
  C62      1.0000 0.97530  0.06748  0.67047  Biso   1.000  C
  C63      1.0000 0.47530  0.43252  0.17047  Biso   1.000  C
  C64      1.0000 0.97530  0.93252  0.17047  Biso   1.000  C
  C65      1.0000 0.69580  0.40540  0.53691  Biso   1.000  C
  C66      1.0000 0.19580  0.90540  0.53691  Biso   1.000  C
  C67      1.0000 0.69580  0.59460  0.03691  Biso   1.000  C
  C68      1.0000 0.19580  0.09460  0.03691  Biso   1.000  C
  C69      1.0000 0.30420  0.59460  0.46309  Biso   1.000  C
  C70      1.0000 0.80420  0.09460  0.46309  Biso   1.000  C
  C71      1.0000 0.30420  0.40540  0.96309  Biso   1.000  C
  C72      1.0000 0.80420  0.90540  0.96309  Biso   1.000  C
  H33      1.0000 0.46120  0.14160  0.62770  Biso   1.000  H
  H34      1.0000 0.96120  0.64160  0.62770  Biso   1.000  H
  H35      1.0000 0.46120  0.85840  0.12770  Biso   1.000  H
  H36      1.0000 0.96120  0.35840  0.12770  Biso   1.000  H
  H37      1.0000 0.53880  0.85840  0.37230  Biso   1.000  H
  H38      1.0000 0.03880  0.35840  0.37230  Biso   1.000  H
  H39      1.0000 0.53880  0.14160  0.87230  Biso   1.000  H
  H40      1.0000 0.03880  0.64160  0.87230  Biso   1.000  H
  H41      1.0000 0.58830  0.06200  0.63180  Biso   1.000  H
  H42      1.0000 0.08830  0.56200  0.63180  Biso   1.000  H
  H43      1.0000 0.58830  0.93800  0.13180  Biso   1.000  H
  H44      1.0000 0.08830  0.43800  0.13180  Biso   1.000  H
  H45      1.0000 0.41170  0.93800  0.36820  Biso   1.000  H
  H46      1.0000 0.91170  0.43800  0.36820  Biso   1.000  H
  H47      1.0000 0.41170  0.06200  0.86820  Biso   1.000  H
  H48      1.0000 0.91170  0.56200  0.86820  Biso   1.000  H
  H49      1.0000 0.46570  0.88390  0.23080  Biso   1.000  H
  H50      1.0000 0.96570  0.38390  0.23080  Biso   1.000  H
  H51      1.0000 0.46570  0.11610  0.73080  Biso   1.000  H
  H52      1.0000 0.96570  0.61610  0.73080  Biso   1.000  H
  H53      1.0000 0.53430  0.11610  0.76920  Biso   1.000  H
  H54      1.0000 0.03430  0.61610  0.76920  Biso   1.000  H
  H55      1.0000 0.53430  0.88390  0.26920  Biso   1.000  H
  H56      1.0000 0.03430  0.38390  0.26920  Biso   1.000  H
