data_image0
_cell_length_a       7.7714
_cell_length_b       11.398
_cell_length_c       24.063
_cell_angle_alpha    90
_cell_angle_beta     97.54
_cell_angle_gamma    90

_symmetry_space_group_name_H-M    "P 1"
_symmetry_int_tables_number       1

loop_
  _symmetry_equiv_pos_as_xyz
  'x, y, z'

loop_
  _atom_site_label
  _atom_site_occupancy
  _atom_site_fract_x
  _atom_site_fract_y
  _atom_site_fract_z
  _atom_site_thermal_displace_type
  _atom_site_B_iso_or_equiv
  _atom_site_type_symbol
  Cu1      1.0000 0.22748  0.05686  0.75524  Biso   1.000  Cu
  Cu2      1.0000 0.72748  0.55686  0.75524  Biso   1.000  Cu
  Cu3      1.0000 0.22748  0.94314  0.25524  Biso   1.000  Cu
  Cu4      1.0000 0.72748  0.44314  0.25524  Biso   1.000  Cu
  Cu5      1.0000 0.77252  0.94314  0.24476  Biso   1.000  Cu
  Cu6      1.0000 0.27252  0.44314  0.24476  Biso   1.000  Cu
  Cu7      1.0000 0.77252  0.05686  0.74476  Biso   1.000  Cu
  Cu8      1.0000 0.27252  0.55686  0.74476  Biso   1.000  Cu
  O1       1.0000 0.37083  0.16222  0.80560  Biso   1.000  O
  O2       1.0000 0.87083  0.66222  0.80560  Biso   1.000  O
  O3       1.0000 0.37083  0.83778  0.30560  Biso   1.000  O
  O4       1.0000 0.87083  0.33778  0.30560  Biso   1.000  O
  O5       1.0000 0.62917  0.83778  0.19440  Biso   1.000  O
  O6       1.0000 0.12917  0.33778  0.19440  Biso   1.000  O
  O7       1.0000 0.62917  0.16222  0.69440  Biso   1.000  O
  O8       1.0000 0.12917  0.66222  0.69440  Biso   1.000  O
  O9       1.0000 0.27990  0.15574  0.69328  Biso   1.000  O
  O10      1.0000 0.77990  0.65574  0.69328  Biso   1.000  O
  O11      1.0000 0.27990  0.84426  0.19328  Biso   1.000  O
  O12      1.0000 0.77990  0.34426  0.19328  Biso   1.000  O
  O13      1.0000 0.72010  0.84426  0.30672  Biso   1.000  O
  O14      1.0000 0.22010  0.34426  0.30672  Biso   1.000  O
  O15      1.0000 0.72010  0.15574  0.80672  Biso   1.000  O
  O16      1.0000 0.22010  0.65574  0.80672  Biso   1.000  O
  O17      1.0000 0.50720  0.07780  0.38446  Biso   1.000  O
  O18      1.0000 0.00720  0.57780  0.38446  Biso   1.000  O
  O19      1.0000 0.50720  0.92220  0.88446  Biso   1.000  O
  O20      1.0000 0.00720  0.42220  0.88446  Biso   1.000  O
  O21      1.0000 0.49280  0.92220  0.61554  Biso   1.000  O
  O22      1.0000 0.99280  0.42220  0.61554  Biso   1.000  O
  O23      1.0000 0.49280  0.07780  0.11554  Biso   1.000  O
  O24      1.0000 0.99280  0.57780  0.11554  Biso   1.000  O
  O25      1.0000 0.12890  0.23916  0.82847  Biso   1.000  O
  O26      1.0000 0.62890  0.73916  0.82847  Biso   1.000  O
  O27      1.0000 0.12890  0.76084  0.32847  Biso   1.000  O
  O28      1.0000 0.62890  0.26084  0.32847  Biso   1.000  O
  O29      1.0000 0.87110  0.76084  0.17153  Biso   1.000  O
  O30      1.0000 0.37110  0.26084  0.17153  Biso   1.000  O
  O31      1.0000 0.87110  0.23916  0.67153  Biso   1.000  O
  O32      1.0000 0.37110  0.73916  0.67153  Biso   1.000  O
  C1       1.0000 0.28700  0.22654  0.83645  Biso   1.000  C
  C2       1.0000 0.78700  0.72654  0.83645  Biso   1.000  C
  C3       1.0000 0.28700  0.77346  0.33645  Biso   1.000  C
  C4       1.0000 0.78700  0.27346  0.33645  Biso   1.000  C
  C5       1.0000 0.71300  0.77346  0.16355  Biso   1.000  C
  C6       1.0000 0.21300  0.27346  0.16355  Biso   1.000  C
  C7       1.0000 0.71300  0.22654  0.66355  Biso   1.000  C
  C8       1.0000 0.21300  0.72654  0.66355  Biso   1.000  C
  C9       1.0000 0.38110  0.22786  0.93876  Biso   1.000  C
  C10      1.0000 0.88110  0.72786  0.93876  Biso   1.000  C
  C11      1.0000 0.38110  0.77214  0.43876  Biso   1.000  C
  C12      1.0000 0.88110  0.27214  0.43876  Biso   1.000  C
  C13      1.0000 0.61890  0.77214  0.06124  Biso   1.000  C
  C14      1.0000 0.11890  0.27214  0.06124  Biso   1.000  C
  C15      1.0000 0.61890  0.22786  0.56124  Biso   1.000  C
  C16      1.0000 0.11890  0.72786  0.56124  Biso   1.000  C
  H1       1.0000 0.30390  0.16620  0.94100  Biso   1.000  H
  H2       1.0000 0.80390  0.66620  0.94100  Biso   1.000  H
  H3       1.0000 0.30390  0.83380  0.44100  Biso   1.000  H
  H4       1.0000 0.80390  0.33380  0.44100  Biso   1.000  H
  H5       1.0000 0.69610  0.83380  0.05900  Biso   1.000  H
  H6       1.0000 0.19610  0.33380  0.05900  Biso   1.000  H
  H7       1.0000 0.69610  0.16620  0.55900  Biso   1.000  H
  H8       1.0000 0.19610  0.66620  0.55900  Biso   1.000  H
  C17      1.0000 0.39600  0.27834  0.88697  Biso   1.000  C
  C18      1.0000 0.89600  0.77834  0.88697  Biso   1.000  C
  C19      1.0000 0.39600  0.72166  0.38697  Biso   1.000  C
  C20      1.0000 0.89600  0.22166  0.38697  Biso   1.000  C
  C21      1.0000 0.60400  0.72166  0.11303  Biso   1.000  C
  C22      1.0000 0.10400  0.22166  0.11303  Biso   1.000  C
  C23      1.0000 0.60400  0.27834  0.61303  Biso   1.000  C
  C24      1.0000 0.10400  0.77834  0.61303  Biso   1.000  C
  C25      1.0000 0.47980  0.26840  0.98714  Biso   1.000  C
  C26      1.0000 0.97980  0.76840  0.98714  Biso   1.000  C
  C27      1.0000 0.47980  0.73160  0.48714  Biso   1.000  C
  C28      1.0000 0.97980  0.23160  0.48714  Biso   1.000  C
  C29      1.0000 0.52020  0.73160  0.01286  Biso   1.000  C
  C30      1.0000 0.02020  0.23160  0.01286  Biso   1.000  C
  C31      1.0000 0.52020  0.26840  0.51286  Biso   1.000  C
  C32      1.0000 0.02020  0.76840  0.51286  Biso   1.000  C
  H9       1.0000 0.46840  0.23450  0.02160  Biso   1.000  H
  H10      1.0000 0.96840  0.73450  0.02160  Biso   1.000  H
  H11      1.0000 0.46840  0.76550  0.52160  Biso   1.000  H
  H12      1.0000 0.96840  0.26550  0.52160  Biso   1.000  H
  H13      1.0000 0.53160  0.76550  0.97840  Biso   1.000  H
  H14      1.0000 0.03160  0.26550  0.97840  Biso   1.000  H
  H15      1.0000 0.53160  0.23450  0.47840  Biso   1.000  H
  H16      1.0000 0.03160  0.73450  0.47840  Biso   1.000  H
  O33      1.0000 0.50000  0.94220  0.75000  Biso   1.000  O
  O34      1.0000 0.00000  0.44220  0.75000  Biso   1.000  O
  O35      1.0000 0.50000  0.05780  0.25000  Biso   1.000  O
  O36      1.0000 0.00000  0.55780  0.25000  Biso   1.000  O
  C33      1.0000 0.51470  0.36992  0.88346  Biso   1.000  C
  C34      1.0000 0.01470  0.86992  0.88346  Biso   1.000  C
  C35      1.0000 0.51470  0.63008  0.38346  Biso   1.000  C
  C36      1.0000 0.01470  0.13008  0.38346  Biso   1.000  C
  C37      1.0000 0.48530  0.63008  0.11654  Biso   1.000  C
  C38      1.0000 0.98530  0.13008  0.11654  Biso   1.000  C
  C39      1.0000 0.48530  0.36992  0.61654  Biso   1.000  C
  C40      1.0000 0.98530  0.86992  0.61654  Biso   1.000  C
  C41      1.0000 0.52430  0.43329  0.82957  Biso   1.000  C
  C42      1.0000 0.02430  0.93329  0.82957  Biso   1.000  C
  C43      1.0000 0.52430  0.56671  0.32957  Biso   1.000  C
  C44      1.0000 0.02430  0.06671  0.32957  Biso   1.000  C
  C45      1.0000 0.47570  0.56671  0.17043  Biso   1.000  C
  C46      1.0000 0.97570  0.06671  0.17043  Biso   1.000  C
  C47      1.0000 0.47570  0.43329  0.67043  Biso   1.000  C
  C48      1.0000 0.97570  0.93329  0.67043  Biso   1.000  C
  C49      1.0000 0.61490  0.40965  0.93217  Biso   1.000  C
  C50      1.0000 0.11490  0.90965  0.93217  Biso   1.000  C
  C51      1.0000 0.61490  0.59035  0.43217  Biso   1.000  C
  C52      1.0000 0.11490  0.09035  0.43217  Biso   1.000  C
  C53      1.0000 0.38510  0.59035  0.06783  Biso   1.000  C
  C54      1.0000 0.88510  0.09035  0.06783  Biso   1.000  C
  C55      1.0000 0.38510  0.40965  0.56783  Biso   1.000  C
  C56      1.0000 0.88510  0.90965  0.56783  Biso   1.000  C
  H17      1.0000 0.69490  0.46960  0.93010  Biso   1.000  H
  H18      1.0000 0.19490  0.96960  0.93010  Biso   1.000  H
  H19      1.0000 0.69490  0.53040  0.43010  Biso   1.000  H
  H20      1.0000 0.19490  0.03040  0.43010  Biso   1.000  H
  H21      1.0000 0.30510  0.53040  0.06990  Biso   1.000  H
  H22      1.0000 0.80510  0.03040  0.06990  Biso   1.000  H
  H23      1.0000 0.30510  0.46960  0.56990  Biso   1.000  H
  H24      1.0000 0.80510  0.96960  0.56990  Biso   1.000  H
  C57      1.0000 0.59600  0.36028  0.98368  Biso   1.000  C
  C58      1.0000 0.09600  0.86028  0.98368  Biso   1.000  C
  C59      1.0000 0.59600  0.63972  0.48368  Biso   1.000  C
  C60      1.0000 0.09600  0.13972  0.48368  Biso   1.000  C
  C61      1.0000 0.40400  0.63972  0.01632  Biso   1.000  C
  C62      1.0000 0.90400  0.13972  0.01632  Biso   1.000  C
  C63      1.0000 0.40400  0.36028  0.51632  Biso   1.000  C
  C64      1.0000 0.90400  0.86028  0.51632  Biso   1.000  C
  C65      1.0000 0.69550  0.40540  0.03690  Biso   1.000  C
  C66      1.0000 0.19550  0.90540  0.03690  Biso   1.000  C
  C67      1.0000 0.69550  0.59460  0.53690  Biso   1.000  C
  C68      1.0000 0.19550  0.09460  0.53690  Biso   1.000  C
  C69      1.0000 0.30450  0.59460  0.96310  Biso   1.000  C
  C70      1.0000 0.80450  0.09460  0.96310  Biso   1.000  C
  C71      1.0000 0.30450  0.40540  0.46310  Biso   1.000  C
  C72      1.0000 0.80450  0.90540  0.46310  Biso   1.000  C
  O37      1.0000 0.80670  0.48860  0.02849  Biso   1.000  O
  O38      1.0000 0.30670  0.98860  0.02849  Biso   1.000  O
  O39      1.0000 0.80670  0.51140  0.52849  Biso   1.000  O
  O40      1.0000 0.30670  0.01140  0.52849  Biso   1.000  O
  O41      1.0000 0.19330  0.51140  0.97151  Biso   1.000  O
  O42      1.0000 0.69330  0.01140  0.97151  Biso   1.000  O
  O43      1.0000 0.19330  0.48860  0.47151  Biso   1.000  O
  O44      1.0000 0.69330  0.98860  0.47151  Biso   1.000  O
  O45      1.0000 0.67160  0.36764  0.08234  Biso   1.000  O
  O46      1.0000 0.17160  0.86764  0.08234  Biso   1.000  O
  O47      1.0000 0.67160  0.63236  0.58234  Biso   1.000  O
  O48      1.0000 0.17160  0.13236  0.58234  Biso   1.000  O
  O49      1.0000 0.32840  0.63236  0.91766  Biso   1.000  O
  O50      1.0000 0.82840  0.13236  0.91766  Biso   1.000  O
  O51      1.0000 0.32840  0.36764  0.41766  Biso   1.000  O
  O52      1.0000 0.82840  0.86764  0.41766  Biso   1.000  O
  O53      1.0000 0.38470  0.44295  0.79734  Biso   1.000  O
  O54      1.0000 0.88470  0.94295  0.79734  Biso   1.000  O
  O55      1.0000 0.38470  0.55705  0.29734  Biso   1.000  O
  O56      1.0000 0.88470  0.05705  0.29734  Biso   1.000  O
  O57      1.0000 0.61530  0.55705  0.20266  Biso   1.000  O
  O58      1.0000 0.11530  0.05705  0.20266  Biso   1.000  O
  O59      1.0000 0.61530  0.44295  0.70266  Biso   1.000  O
  O60      1.0000 0.11530  0.94295  0.70266  Biso   1.000  O
  O61      1.0000 0.66940  0.47452  0.82145  Biso   1.000  O
  O62      1.0000 0.16940  0.97452  0.82145  Biso   1.000  O
  O63      1.0000 0.66940  0.52548  0.32145  Biso   1.000  O
  O64      1.0000 0.16940  0.02548  0.32145  Biso   1.000  O
  O65      1.0000 0.33060  0.52548  0.17855  Biso   1.000  O
  O66      1.0000 0.83060  0.02548  0.17855  Biso   1.000  O
  O67      1.0000 0.33060  0.47452  0.67855  Biso   1.000  O
  O68      1.0000 0.83060  0.97452  0.67855  Biso   1.000  O
  H25      1.0000 0.40600  0.06000  0.37270  Biso   1.000  H
  H26      1.0000 0.90600  0.56000  0.37270  Biso   1.000  H
  H27      1.0000 0.40600  0.94000  0.87270  Biso   1.000  H
  H28      1.0000 0.90600  0.44000  0.87270  Biso   1.000  H
  H29      1.0000 0.59400  0.94000  0.62730  Biso   1.000  H
  H30      1.0000 0.09400  0.44000  0.62730  Biso   1.000  H
  H31      1.0000 0.59400  0.06000  0.12730  Biso   1.000  H
  H32      1.0000 0.09400  0.56000  0.12730  Biso   1.000  H
  H33      1.0000 0.45700  0.90100  0.72460  Biso   1.000  H
  H34      1.0000 0.95700  0.40100  0.72460  Biso   1.000  H
  H35      1.0000 0.45700  0.09900  0.22460  Biso   1.000  H
  H36      1.0000 0.95700  0.59900  0.22460  Biso   1.000  H
  H37      1.0000 0.54300  0.09900  0.27540  Biso   1.000  H
  H38      1.0000 0.04300  0.59900  0.27540  Biso   1.000  H
  H39      1.0000 0.54300  0.90100  0.77540  Biso   1.000  H
  H40      1.0000 0.04300  0.40100  0.77540  Biso   1.000  H
  H41      1.0000 0.52500  0.14000  0.37110  Biso   1.000  H
  H42      1.0000 0.02500  0.64000  0.37110  Biso   1.000  H
  H43      1.0000 0.52500  0.86000  0.87110  Biso   1.000  H
  H44      1.0000 0.02500  0.36000  0.87110  Biso   1.000  H
  H45      1.0000 0.47500  0.86000  0.62890  Biso   1.000  H
  H46      1.0000 0.97500  0.36000  0.62890  Biso   1.000  H
  H47      1.0000 0.47500  0.14000  0.12890  Biso   1.000  H
  H48      1.0000 0.97500  0.64000  0.12890  Biso   1.000  H
  H49      1.0000 0.86300  0.51600  0.05670  Biso   1.000  H
  H50      1.0000 0.36300  0.01600  0.05670  Biso   1.000  H
  H51      1.0000 0.86300  0.48400  0.55670  Biso   1.000  H
  H52      1.0000 0.36300  0.98400  0.55670  Biso   1.000  H
  H53      1.0000 0.13700  0.48400  0.94330  Biso   1.000  H
  H54      1.0000 0.63700  0.98400  0.94330  Biso   1.000  H
  H55      1.0000 0.13700  0.51600  0.44330  Biso   1.000  H
  H56      1.0000 0.63700  0.01600  0.44330  Biso   1.000  H
  H57      1.0000 0.38500  0.16700  0.69690  Biso   1.000  H
  H58      1.0000 0.88500  0.66700  0.69690  Biso   1.000  H
  H59      1.0000 0.38500  0.83300  0.19690  Biso   1.000  H
  H60      1.0000 0.88500  0.33300  0.19690  Biso   1.000  H
  H61      1.0000 0.61500  0.83300  0.30310  Biso   1.000  H
  H62      1.0000 0.11500  0.33300  0.30310  Biso   1.000  H
  H63      1.0000 0.61500  0.16700  0.80310  Biso   1.000  H
  H64      1.0000 0.11500  0.66700  0.80310  Biso   1.000  H
  H65      1.0000 0.24000  0.13200  0.66200  Biso   1.000  H
  H66      1.0000 0.74000  0.63200  0.66200  Biso   1.000  H
  H67      1.0000 0.24000  0.86800  0.16200  Biso   1.000  H
  H68      1.0000 0.74000  0.36800  0.16200  Biso   1.000  H
  H69      1.0000 0.76000  0.86800  0.33800  Biso   1.000  H
  H70      1.0000 0.26000  0.36800  0.33800  Biso   1.000  H
  H71      1.0000 0.76000  0.13200  0.83800  Biso   1.000  H
  H72      1.0000 0.26000  0.63200  0.83800  Biso   1.000  H
