data_image0
_cell_length_a       14.6207
_cell_length_b       8.016
_cell_length_c       22.2892
_cell_angle_alpha    90
_cell_angle_beta     101.725
_cell_angle_gamma    90

_symmetry_space_group_name_H-M    "P 1"
_symmetry_int_tables_number       1

loop_
  _symmetry_equiv_pos_as_xyz
  'x, y, z'

loop_
  _atom_site_label
  _atom_site_occupancy
  _atom_site_fract_x
  _atom_site_fract_y
  _atom_site_fract_z
  _atom_site_thermal_displace_type
  _atom_site_B_iso_or_equiv
  _atom_site_type_symbol
  Cu1      1.0000 0.09051  0.08013  0.09769  Biso   1.000  Cu
  Cu2      1.0000 0.40949  0.58013  0.40231  Biso   1.000  Cu
  Cu3      1.0000 0.90949  0.91987  0.90231  Biso   1.000  Cu
  Cu4      1.0000 0.59051  0.41987  0.59769  Biso   1.000  Cu
  O1       1.0000 0.16527  0.11230  0.98971  Biso   1.000  O
  O2       1.0000 0.33473  0.61230  0.51029  Biso   1.000  O
  O3       1.0000 0.83473  0.88770  0.01029  Biso   1.000  O
  O4       1.0000 0.66527  0.38770  0.48971  Biso   1.000  O
  O5       1.0000 0.20187  0.97502  0.07812  Biso   1.000  O
  O6       1.0000 0.29813  0.47502  0.42188  Biso   1.000  O
  O7       1.0000 0.79813  0.02498  0.92188  Biso   1.000  O
  O8       1.0000 0.70187  0.52498  0.57812  Biso   1.000  O
  O9       1.0000 0.92846  0.29580  0.02356  Biso   1.000  O
  O10      1.0000 0.57154  0.79580  0.47644  Biso   1.000  O
  O11      1.0000 0.07154  0.70420  0.97644  Biso   1.000  O
  O12      1.0000 0.42846  0.20420  0.52356  Biso   1.000  O
  O13      1.0000 0.98008  0.18571  0.11618  Biso   1.000  O
  O14      1.0000 0.51992  0.68571  0.38382  Biso   1.000  O
  O15      1.0000 0.01992  0.81429  0.88382  Biso   1.000  O
  O16      1.0000 0.48008  0.31429  0.61618  Biso   1.000  O
  O17      1.0000 0.37494  0.45382  0.30110  Biso   1.000  O
  O18      1.0000 0.12506  0.95382  0.19890  Biso   1.000  O
  O19      1.0000 0.62506  0.54618  0.69890  Biso   1.000  O
  O20      1.0000 0.87494  0.04618  0.80110  Biso   1.000  O
  O21      1.0000 0.01725  0.89043  0.05986  Biso   1.000  O
  O22      1.0000 0.48275  0.39043  0.44014  Biso   1.000  O
  O23      1.0000 0.98275  0.10957  0.94014  Biso   1.000  O
  O24      1.0000 0.51725  0.60957  0.55986  Biso   1.000  O
  H1       1.0000 0.03970  0.83800  0.03540  Biso   1.000  H
  H2       1.0000 0.46030  0.33800  0.46460  Biso   1.000  H
  H3       1.0000 0.96030  0.16200  0.96460  Biso   1.000  H
  H4       1.0000 0.53970  0.66200  0.53540  Biso   1.000  H
  H5       1.0000 0.96200  0.89200  0.05100  Biso   1.000  H
  H6       1.0000 0.53800  0.39200  0.44900  Biso   1.000  H
  H7       1.0000 0.03800  0.10800  0.94900  Biso   1.000  H
  H8       1.0000 0.46200  0.60800  0.55100  Biso   1.000  H
  N1       1.0000 0.59250  0.66290  0.93455  Biso   1.000  N
  N2       1.0000 0.90750  0.16290  0.56545  Biso   1.000  N
  N3       1.0000 0.40750  0.33710  0.06545  Biso   1.000  N
  N4       1.0000 0.09250  0.83710  0.43455  Biso   1.000  N
  N5       1.0000 0.59830  0.73130  0.18220  Biso   1.000  N
  N6       1.0000 0.90170  0.23130  0.31780  Biso   1.000  N
  N7       1.0000 0.40170  0.26870  0.81780  Biso   1.000  N
  N8       1.0000 0.09830  0.76870  0.68220  Biso   1.000  N
  N9       1.0000 0.16793  0.27910  0.12940  Biso   1.000  N
  N10      1.0000 0.33207  0.77910  0.37060  Biso   1.000  N
  N11      1.0000 0.83207  0.72090  0.87060  Biso   1.000  N
  N12      1.0000 0.66793  0.22090  0.62940  Biso   1.000  N
  N13      1.0000 0.43627  0.23510  0.25951  Biso   1.000  N
  N14      1.0000 0.06373  0.73510  0.24049  Biso   1.000  N
  N15      1.0000 0.56373  0.76490  0.74049  Biso   1.000  N
  N16      1.0000 0.93627  0.26490  0.75951  Biso   1.000  N
  C1       1.0000 0.21593  0.01570  0.02560  Biso   1.000  C
  C2       1.0000 0.28407  0.51570  0.47440  Biso   1.000  C
  C3       1.0000 0.78407  0.98430  0.97440  Biso   1.000  C
  C4       1.0000 0.71593  0.48430  0.52560  Biso   1.000  C
  C5       1.0000 0.29915  0.93940  0.00607  Biso   1.000  C
  C6       1.0000 0.20085  0.43940  0.49393  Biso   1.000  C
  C7       1.0000 0.70085  0.06060  0.99393  Biso   1.000  C
  C8       1.0000 0.79915  0.56060  0.50607  Biso   1.000  C
  C9       1.0000 0.35893  0.83320  0.04427  Biso   1.000  C
  C10      1.0000 0.14107  0.33320  0.45573  Biso   1.000  C
  C11      1.0000 0.64107  0.16680  0.95573  Biso   1.000  C
  C12      1.0000 0.85893  0.66680  0.54427  Biso   1.000  C
  H9       1.0000 0.34800  0.80940  0.08300  Biso   1.000  H
  H10      1.0000 0.15200  0.30940  0.41700  Biso   1.000  H
  H11      1.0000 0.65200  0.19060  0.91700  Biso   1.000  H
  H12      1.0000 0.84800  0.69060  0.58300  Biso   1.000  H
  C13      1.0000 0.43431  0.76220  0.02588  Biso   1.000  C
  C14      1.0000 0.06569  0.26220  0.47412  Biso   1.000  C
  C15      1.0000 0.56569  0.23780  0.97412  Biso   1.000  C
  C16      1.0000 0.93431  0.73780  0.52588  Biso   1.000  C
  H13      1.0000 0.47390  0.69080  0.05200  Biso   1.000  H
  H14      1.0000 0.02610  0.19080  0.44800  Biso   1.000  H
  H15      1.0000 0.52610  0.30920  0.94800  Biso   1.000  H
  H16      1.0000 0.97390  0.80920  0.55200  Biso   1.000  H
  C17      1.0000 0.45085  0.79730  0.96844  Biso   1.000  C
  C18      1.0000 0.04915  0.29730  0.53156  Biso   1.000  C
  C19      1.0000 0.54915  0.20270  0.03156  Biso   1.000  C
  C20      1.0000 0.95085  0.70270  0.46844  Biso   1.000  C
  C21      1.0000 0.39130  0.90320  0.92960  Biso   1.000  C
  C22      1.0000 0.10870  0.40320  0.57040  Biso   1.000  C
  C23      1.0000 0.60870  0.09680  0.07040  Biso   1.000  C
  C24      1.0000 0.89130  0.59680  0.42960  Biso   1.000  C
  H17      1.0000 0.40220  0.92670  0.89080  Biso   1.000  H
  H18      1.0000 0.09780  0.42670  0.60920  Biso   1.000  H
  H19      1.0000 0.59780  0.07330  0.10920  Biso   1.000  H
  H20      1.0000 0.90220  0.57330  0.39080  Biso   1.000  H
  C25      1.0000 0.31624  0.97330  0.94839  Biso   1.000  C
  C26      1.0000 0.18376  0.47330  0.55161  Biso   1.000  C
  C27      1.0000 0.68376  0.02670  0.05161  Biso   1.000  C
  C28      1.0000 0.81624  0.52670  0.44839  Biso   1.000  C
  H21      1.0000 0.27650  0.04430  0.92220  Biso   1.000  H
  H22      1.0000 0.22350  0.54430  0.57780  Biso   1.000  H
  H23      1.0000 0.72350  0.95570  0.07780  Biso   1.000  H
  H24      1.0000 0.77650  0.45570  0.42220  Biso   1.000  H
  C29      1.0000 0.53010  0.72170  0.94900  Biso   1.000  C
  C30      1.0000 0.96990  0.22170  0.55100  Biso   1.000  C
  C31      1.0000 0.46990  0.27830  0.05100  Biso   1.000  C
  C32      1.0000 0.03010  0.77830  0.44900  Biso   1.000  C
  C33      1.0000 0.92400  0.27340  0.07759  Biso   1.000  C
  C34      1.0000 0.57600  0.77340  0.42241  Biso   1.000  C
  C35      1.0000 0.07600  0.72660  0.92241  Biso   1.000  C
  C36      1.0000 0.42400  0.22660  0.57759  Biso   1.000  C
  C37      1.0000 0.84666  0.35690  0.10182  Biso   1.000  C
  C38      1.0000 0.65334  0.85690  0.39818  Biso   1.000  C
  C39      1.0000 0.15334  0.64310  0.89818  Biso   1.000  C
  C40      1.0000 0.34666  0.14310  0.60182  Biso   1.000  C
  C41      1.0000 0.83601  0.33080  0.16119  Biso   1.000  C
  C42      1.0000 0.66399  0.83080  0.33881  Biso   1.000  C
  C43      1.0000 0.16399  0.66920  0.83881  Biso   1.000  C
  C44      1.0000 0.33601  0.16920  0.66119  Biso   1.000  C
  H25      1.0000 0.87610  0.25850  0.18660  Biso   1.000  H
  H26      1.0000 0.62390  0.75850  0.31340  Biso   1.000  H
  H27      1.0000 0.12390  0.74150  0.81340  Biso   1.000  H
  H28      1.0000 0.37610  0.24150  0.68660  Biso   1.000  H
  C45      1.0000 0.76631  0.41160  0.18294  Biso   1.000  C
  C46      1.0000 0.73369  0.91160  0.31706  Biso   1.000  C
  C47      1.0000 0.23369  0.58840  0.81706  Biso   1.000  C
  C48      1.0000 0.26631  0.08840  0.68294  Biso   1.000  C
  H29      1.0000 0.75950  0.39490  0.22310  Biso   1.000  H
  H30      1.0000 0.74050  0.89490  0.27690  Biso   1.000  H
  H31      1.0000 0.24050  0.60510  0.77690  Biso   1.000  H
  H32      1.0000 0.25950  0.10510  0.72310  Biso   1.000  H
  C49      1.0000 0.70653  0.51760  0.14476  Biso   1.000  C
  C50      1.0000 0.79347  0.01760  0.35524  Biso   1.000  C
  C51      1.0000 0.29347  0.48240  0.85524  Biso   1.000  C
  C52      1.0000 0.20653  0.98240  0.64476  Biso   1.000  C
  C53      1.0000 0.71620  0.54360  0.08554  Biso   1.000  C
  C54      1.0000 0.78380  0.04360  0.41446  Biso   1.000  C
  C55      1.0000 0.28380  0.45640  0.91446  Biso   1.000  C
  C56      1.0000 0.21620  0.95640  0.58554  Biso   1.000  C
  H33      1.0000 0.67550  0.61490  0.06000  Biso   1.000  H
  H34      1.0000 0.82450  0.11490  0.44000  Biso   1.000  H
  H35      1.0000 0.32450  0.38510  0.94000  Biso   1.000  H
  H36      1.0000 0.17550  0.88510  0.56000  Biso   1.000  H
  C57      1.0000 0.78608  0.46380  0.06426  Biso   1.000  C
  C58      1.0000 0.71392  0.96380  0.43574  Biso   1.000  C
  C59      1.0000 0.21392  0.53620  0.93574  Biso   1.000  C
  C60      1.0000 0.28608  0.03620  0.56426  Biso   1.000  C
  H37      1.0000 0.79300  0.48170  0.02420  Biso   1.000  H
  H38      1.0000 0.70700  0.98170  0.47580  Biso   1.000  H
  H39      1.0000 0.20700  0.51830  0.97580  Biso   1.000  H
  H40      1.0000 0.29300  0.01830  0.52420  Biso   1.000  H
  C61      1.0000 0.64790  0.64410  0.16510  Biso   1.000  C
  C62      1.0000 0.85210  0.14410  0.33490  Biso   1.000  C
  C63      1.0000 0.35210  0.35590  0.83490  Biso   1.000  C
  C64      1.0000 0.14790  0.85590  0.66510  Biso   1.000  C
  C65      1.0000 0.15321  0.43220  0.10551  Biso   1.000  C
  C66      1.0000 0.34679  0.93220  0.39449  Biso   1.000  C
  C67      1.0000 0.84679  0.56780  0.89449  Biso   1.000  C
  C68      1.0000 0.65321  0.06780  0.60551  Biso   1.000  C
  H41      1.0000 0.10370  0.44860  0.07250  Biso   1.000  H
  H42      1.0000 0.39630  0.94860  0.42750  Biso   1.000  H
  H43      1.0000 0.89630  0.55140  0.92750  Biso   1.000  H
  H44      1.0000 0.60370  0.05140  0.57250  Biso   1.000  H
  C69      1.0000 0.20800  0.56530  0.12768  Biso   1.000  C
  C70      1.0000 0.29200  0.06530  0.37232  Biso   1.000  C
  C71      1.0000 0.79200  0.43470  0.87232  Biso   1.000  C
  C72      1.0000 0.70800  0.93470  0.62768  Biso   1.000  C
  H45      1.0000 0.19590  0.67030  0.11010  Biso   1.000  H
  H46      1.0000 0.30410  0.17030  0.38990  Biso   1.000  H
  H47      1.0000 0.80410  0.32970  0.88990  Biso   1.000  H
  H48      1.0000 0.69590  0.82970  0.61010  Biso   1.000  H
  C73      1.0000 0.28183  0.54170  0.17672  Biso   1.000  C
  C74      1.0000 0.21817  0.04170  0.32328  Biso   1.000  C
  C75      1.0000 0.71817  0.45830  0.82328  Biso   1.000  C
  C76      1.0000 0.78183  0.95830  0.67672  Biso   1.000  C
  H49      1.0000 0.31930  0.63120  0.19300  Biso   1.000  H
  H50      1.0000 0.18070  0.13120  0.30700  Biso   1.000  H
  H51      1.0000 0.68070  0.36880  0.80700  Biso   1.000  H
  H52      1.0000 0.81930  0.86880  0.69300  Biso   1.000  H
  C77      1.0000 0.29939  0.38350  0.20134  Biso   1.000  C
  C78      1.0000 0.20061  0.88350  0.29866  Biso   1.000  C
  C79      1.0000 0.70061  0.61650  0.79866  Biso   1.000  C
  C80      1.0000 0.79939  0.11650  0.70134  Biso   1.000  C
  C81      1.0000 0.24061  0.25630  0.17641  Biso   1.000  C
  C82      1.0000 0.25939  0.75630  0.32359  Biso   1.000  C
  C83      1.0000 0.75939  0.74370  0.82359  Biso   1.000  C
  C84      1.0000 0.74061  0.24370  0.67641  Biso   1.000  C
  H53      1.0000 0.25160  0.14970  0.19280  Biso   1.000  H
  H54      1.0000 0.24840  0.64970  0.30720  Biso   1.000  H
  H55      1.0000 0.74840  0.85030  0.80720  Biso   1.000  H
  H56      1.0000 0.75160  0.35030  0.69280  Biso   1.000  H
  C85      1.0000 0.37445  0.35870  0.25778  Biso   1.000  C
  C86      1.0000 0.12555  0.85870  0.24222  Biso   1.000  C
  C87      1.0000 0.62555  0.64130  0.74222  Biso   1.000  C
  C88      1.0000 0.87445  0.14130  0.75778  Biso   1.000  C
  C89      1.0000 0.50883  0.21470  0.31541  Biso   1.000  C
  C90      1.0000 0.99117  0.71470  0.18459  Biso   1.000  C
  C91      1.0000 0.49117  0.78530  0.68459  Biso   1.000  C
  C92      1.0000 0.00883  0.28530  0.81541  Biso   1.000  C
  H57      1.0000 0.52850  0.09900  0.31900  Biso   1.000  H
  H58      1.0000 0.97150  0.59900  0.18100  Biso   1.000  H
  H59      1.0000 0.47150  0.90100  0.68100  Biso   1.000  H
  H60      1.0000 0.02850  0.40100  0.81900  Biso   1.000  H
  H61      1.0000 0.48250  0.24170  0.35080  Biso   1.000  H
  H62      1.0000 0.01750  0.74170  0.14920  Biso   1.000  H
  H63      1.0000 0.51750  0.75830  0.64920  Biso   1.000  H
  H64      1.0000 0.98250  0.25830  0.85080  Biso   1.000  H
  C93      1.0000 0.59187  0.32260  0.31558  Biso   1.000  C
  C94      1.0000 0.90813  0.82260  0.18442  Biso   1.000  C
  C95      1.0000 0.40813  0.67740  0.68442  Biso   1.000  C
  C96      1.0000 0.09187  0.17740  0.81558  Biso   1.000  C
  H65      1.0000 0.63630  0.30720  0.35330  Biso   1.000  H
  H66      1.0000 0.86370  0.80720  0.14670  Biso   1.000  H
  H67      1.0000 0.36370  0.69280  0.64670  Biso   1.000  H
  H68      1.0000 0.13630  0.19280  0.85330  Biso   1.000  H
  H69      1.0000 0.57270  0.43730  0.31180  Biso   1.000  H
  H70      1.0000 0.92730  0.93730  0.18820  Biso   1.000  H
  H71      1.0000 0.42730  0.56270  0.68820  Biso   1.000  H
  H72      1.0000 0.07270  0.06270  0.81180  Biso   1.000  H
  H73      1.0000 0.62010  0.29270  0.28180  Biso   1.000  H
  H74      1.0000 0.87990  0.79270  0.21820  Biso   1.000  H
  H75      1.0000 0.37990  0.70730  0.71820  Biso   1.000  H
  H76      1.0000 0.12010  0.20730  0.78180  Biso   1.000  H
  C97      1.0000 0.44567  0.12550  0.20873  Biso   1.000  C
  C98      1.0000 0.05433  0.62550  0.29127  Biso   1.000  C
  C99      1.0000 0.55433  0.87450  0.79127  Biso   1.000  C
  C100     1.0000 0.94567  0.37450  0.70873  Biso   1.000  C
  H77      1.0000 0.51030  0.12550  0.20420  Biso   1.000  H
  H78      1.0000 0.98970  0.62550  0.29580  Biso   1.000  H
  H79      1.0000 0.48970  0.87450  0.79580  Biso   1.000  H
  H80      1.0000 0.01030  0.37450  0.70420  Biso   1.000  H
  H81      1.0000 0.40790  0.16900  0.17110  Biso   1.000  H
  H82      1.0000 0.09210  0.66900  0.32890  Biso   1.000  H
  H83      1.0000 0.59210  0.83100  0.82890  Biso   1.000  H
  H84      1.0000 0.90790  0.33100  0.67110  Biso   1.000  H
  C101     1.0000 0.41560  0.94650  0.21815  Biso   1.000  C
  C102     1.0000 0.08440  0.44650  0.28185  Biso   1.000  C
  C103     1.0000 0.58440  0.05350  0.78185  Biso   1.000  C
  C104     1.0000 0.91560  0.55350  0.71815  Biso   1.000  C
  H85      1.0000 0.43430  0.87510  0.18820  Biso   1.000  H
  H86      1.0000 0.06570  0.37510  0.31180  Biso   1.000  H
  H87      1.0000 0.56570  0.12490  0.81180  Biso   1.000  H
  H88      1.0000 0.93430  0.62490  0.68820  Biso   1.000  H
  H89      1.0000 0.34900  0.94220  0.21370  Biso   1.000  H
  H90      1.0000 0.15100  0.44220  0.28630  Biso   1.000  H
  H91      1.0000 0.65100  0.05780  0.78630  Biso   1.000  H
  H92      1.0000 0.84900  0.55780  0.71370  Biso   1.000  H
  H93      1.0000 0.44470  0.90950  0.25850  Biso   1.000  H
  H94      1.0000 0.05530  0.40950  0.24150  Biso   1.000  H
  H95      1.0000 0.55530  0.09050  0.74150  Biso   1.000  H
  H96      1.0000 0.94470  0.59050  0.75850  Biso   1.000  H
  C105     1.0000 0.62180  0.56880  0.17060  Biso   1.000  C
  C106     1.0000 0.87820  0.06880  0.32940  Biso   1.000  C
  C107     1.0000 0.37820  0.43120  0.82940  Biso   1.000  C
  C108     1.0000 0.12180  0.93120  0.67060  Biso   1.000  C
  N17      1.0000 0.56060  0.62480  0.18700  Biso   1.000  N
  N18      1.0000 0.93940  0.12480  0.31300  Biso   1.000  N
  N19      1.0000 0.43940  0.37520  0.81300  Biso   1.000  N
  N20      1.0000 0.06060  0.87520  0.68700  Biso   1.000  N
