data_image0
_cell_length_a       12.3931
_cell_length_b       12.7006
_cell_length_c       18.2838
_cell_angle_alpha    102.751
_cell_angle_beta     96.37
_cell_angle_gamma    119.062

_symmetry_space_group_name_H-M    "P 1"
_symmetry_int_tables_number       1

loop_
  _symmetry_equiv_pos_as_xyz
  'x, y, z'

loop_
  _atom_site_label
  _atom_site_occupancy
  _atom_site_fract_x
  _atom_site_fract_y
  _atom_site_fract_z
  _atom_site_thermal_displace_type
  _atom_site_B_iso_or_equiv
  _atom_site_type_symbol
  C1       1.0000 0.30820  0.01620  0.43583  Biso   1.000  C
  C2       1.0000 0.69180  0.98380  0.56417  Biso   1.000  C
  C3       1.0000 0.23690  0.07780  0.56773  Biso   1.000  C
  C4       1.0000 0.76310  0.92220  0.43227  Biso   1.000  C
  C5       1.0000 0.51090  0.80570  0.43196  Biso   1.000  C
  C6       1.0000 0.48910  0.19430  0.56804  Biso   1.000  C
  C7       1.0000 0.63200  0.67240  0.42328  Biso   1.000  C
  C8       1.0000 0.36800  0.32760  0.57672  Biso   1.000  C
  C9       1.0000 0.81170  0.85370  0.55911  Biso   1.000  C
  C10      1.0000 0.18830  0.14630  0.44089  Biso   1.000  C
  C11      1.0000 0.43700  0.26440  0.44274  Biso   1.000  C
  C12      1.0000 0.56300  0.73560  0.55726  Biso   1.000  C
  C13      1.0000 0.08820  0.59500  0.43374  Biso   1.000  C
  C14      1.0000 0.91180  0.40500  0.56626  Biso   1.000  C
  C15      1.0000 0.84060  0.45750  0.43522  Biso   1.000  C
  C16      1.0000 0.15940  0.54250  0.56478  Biso   1.000  C
  C17      1.0000 0.01700  0.64940  0.56871  Biso   1.000  C
  C18      1.0000 0.98300  0.35060  0.43129  Biso   1.000  C
  C19      1.0000 0.65150  0.03570  0.96247  Biso   1.000  C
  C20      1.0000 0.34850  0.96430  0.03753  Biso   1.000  C
  C21      1.0000 0.39970  0.89790  0.89392  Biso   1.000  C
  C22      1.0000 0.60030  0.10210  0.10608  Biso   1.000  C
  C23      1.0000 0.48610  0.85110  0.02230  Biso   1.000  C
  C24      1.0000 0.51390  0.14890  0.97770  Biso   1.000  C
  C25      1.0000 0.16090  0.57180  0.17986  Biso   1.000  C
  C26      1.0000 0.83910  0.42820  0.82014  Biso   1.000  C
  H1       1.0000 0.18420  0.53720  0.13520  Biso   1.000  H
  H2       1.0000 0.81580  0.46280  0.86480  Biso   1.000  H
  C27      1.0000 0.14410  0.67750  0.16668  Biso   1.000  C
  C28      1.0000 0.85590  0.32250  0.83332  Biso   1.000  C
  H3       1.0000 0.21980  0.73590  0.15260  Biso   1.000  H
  H4       1.0000 0.78020  0.26410  0.84740  Biso   1.000  H
  C29      1.0000 0.02780  0.62650  0.10060  Biso   1.000  C
  C30      1.0000 0.97220  0.37350  0.89940  Biso   1.000  C
  H5       1.0000 0.01400  0.69480  0.09840  Biso   1.000  H
  H6       1.0000 0.98600  0.30520  0.90160  Biso   1.000  H
  H7       1.0000 0.04460  0.59750  0.05190  Biso   1.000  H
  H8       1.0000 0.95540  0.40250  0.94810  Biso   1.000  H
  C31      1.0000 0.90830  0.51870  0.10920  Biso   1.000  C
  C32      1.0000 0.09170  0.48130  0.89080  Biso   1.000  C
  H9       1.0000 0.83940  0.48480  0.06340  Biso   1.000  H
  H10      1.0000 0.16060  0.51520  0.93660  Biso   1.000  H
  H11      1.0000 0.88380  0.55050  0.15360  Biso   1.000  H
  H12      1.0000 0.11620  0.44950  0.84640  Biso   1.000  H
  C33      1.0000 0.92770  0.41370  0.12020  Biso   1.000  C
  C34      1.0000 0.07230  0.58630  0.87980  Biso   1.000  C
  H13      1.0000 0.94390  0.37610  0.07370  Biso   1.000  H
  H14      1.0000 0.05610  0.62390  0.92630  Biso   1.000  H
  H15      1.0000 0.85070  0.34800  0.12820  Biso   1.000  H
  H16      1.0000 0.14930  0.65200  0.87180  Biso   1.000  H
  C35      1.0000 0.03940  0.46460  0.18930  Biso   1.000  C
  C36      1.0000 0.96060  0.53540  0.81070  Biso   1.000  C
  H17      1.0000 0.05220  0.39660  0.19390  Biso   1.000  H
  H18      1.0000 0.94780  0.60340  0.80610  Biso   1.000  H
  H19      1.0000 0.02020  0.49570  0.23640  Biso   1.000  H
  H20      1.0000 0.97980  0.50430  0.76360  Biso   1.000  H
  C37      1.0000 0.43980  0.28740  0.16975  Biso   1.000  C
  C38      1.0000 0.56020  0.71260  0.83025  Biso   1.000  C
  H21      1.0000 0.43990  0.20830  0.15650  Biso   1.000  H
  H22      1.0000 0.56010  0.79170  0.84350  Biso   1.000  H
  C39      1.0000 0.57140  0.39480  0.17212  Biso   1.000  C
  C40      1.0000 0.42860  0.60520  0.82788  Biso   1.000  C
  H23      1.0000 0.59490  0.36950  0.12480  Biso   1.000  H
  H24      1.0000 0.40510  0.63050  0.87520  Biso   1.000  H
  C41      1.0000 0.57540  0.51870  0.17740  Biso   1.000  C
  C42      1.0000 0.42460  0.48130  0.82260  Biso   1.000  C
  H25      1.0000 0.65840  0.58210  0.17400  Biso   1.000  H
  H26      1.0000 0.34160  0.41790  0.82600  Biso   1.000  H
  H27      1.0000 0.56270  0.55050  0.22700  Biso   1.000  H
  H28      1.0000 0.43730  0.44950  0.77300  Biso   1.000  H
  C43      1.0000 0.47090  0.49580  0.11150  Biso   1.000  C
  C44      1.0000 0.52910  0.50420  0.88850  Biso   1.000  C
  H29      1.0000 0.47270  0.57420  0.11610  Biso   1.000  H
  H30      1.0000 0.52730  0.42580  0.88390  Biso   1.000  H
  H31      1.0000 0.48740  0.46990  0.06210  Biso   1.000  H
  H32      1.0000 0.51260  0.53010  0.93790  Biso   1.000  H
  C45      1.0000 0.34140  0.39510  0.11360  Biso   1.000  C
  C46      1.0000 0.65860  0.60490  0.88640  Biso   1.000  C
  H33      1.0000 0.27730  0.38120  0.07070  Biso   1.000  H
  H34      1.0000 0.72270  0.61880  0.92930  Biso   1.000  H
  H35      1.0000 0.32260  0.42370  0.16150  Biso   1.000  H
  H36      1.0000 0.67740  0.57630  0.83850  Biso   1.000  H
  C47      1.0000 0.33480  0.27160  0.10820  Biso   1.000  C
  C48      1.0000 0.66520  0.72840  0.89180  Biso   1.000  C
  H37      1.0000 0.34170  0.23710  0.05730  Biso   1.000  H
  H38      1.0000 0.65830  0.76290  0.94270  Biso   1.000  H
  H39      1.0000 0.25240  0.21110  0.11390  Biso   1.000  H
  H40      1.0000 0.74760  0.78890  0.88610  Biso   1.000  H
  N1       1.0000 0.26710  0.62990  0.24852  Biso   1.000  N
  N2       1.0000 0.73290  0.37010  0.75148  Biso   1.000  N
  H41      1.0000 0.27600  0.57800  0.27000  Biso   1.000  H
  H42      1.0000 0.72400  0.42200  0.73000  Biso   1.000  H
  H43      1.0000 0.34000  0.66800  0.23500  Biso   1.000  H
  H44      1.0000 0.66000  0.33200  0.76500  Biso   1.000  H
  N3       1.0000 0.13900  0.74890  0.24247  Biso   1.000  N
  N4       1.0000 0.86100  0.25110  0.75753  Biso   1.000  N
  H45      1.0000 0.15600  0.82280  0.24300  Biso   1.000  H
  H46      1.0000 0.84400  0.17720  0.75700  Biso   1.000  H
  H47      1.0000 0.06200  0.70700  0.24600  Biso   1.000  H
  H48      1.0000 0.93800  0.29300  0.75400  Biso   1.000  H
  N5       1.0000 0.29040  0.92470  0.39480  Biso   1.000  N
  N6       1.0000 0.70960  0.07530  0.60520  Biso   1.000  N
  N7       1.0000 0.42330  0.79450  0.39602  Biso   1.000  N
  N8       1.0000 0.57670  0.20550  0.60398  Biso   1.000  N
  N9       1.0000 0.13680  0.64810  0.39304  Biso   1.000  N
  N10      1.0000 0.86320  0.35190  0.60696  Biso   1.000  N
  N11      1.0000 0.42090  0.31150  0.24896  Biso   1.000  N
  N12      1.0000 0.57910  0.68850  0.75104  Biso   1.000  N
  H49      1.0000 0.39600  0.36600  0.25800  Biso   1.000  H
  H50      1.0000 0.60400  0.63400  0.74200  Biso   1.000  H
  H51      1.0000 0.36500  0.24700  0.25900  Biso   1.000  H
  H52      1.0000 0.63500  0.75300  0.74100  Biso   1.000  H
  N13      1.0000 0.66210  0.41130  0.23930  Biso   1.000  N
  N14      1.0000 0.33790  0.58870  0.76070  Biso   1.000  N
  H53      1.0000 0.73300  0.47960  0.25200  Biso   1.000  H
  H54      1.0000 0.26700  0.52040  0.74800  Biso   1.000  H
  H55      1.0000 0.67500  0.34900  0.22800  Biso   1.000  H
  H56      1.0000 0.32500  0.65100  0.77200  Biso   1.000  H
  N15      1.0000 0.61410  0.58150  0.38144  Biso   1.000  N
  N16      1.0000 0.38590  0.41850  0.61856  Biso   1.000  N
  N17      1.0000 0.74890  0.43240  0.39533  Biso   1.000  N
  N18      1.0000 0.25110  0.56760  0.60467  Biso   1.000  N
  N19      1.0000 0.49190  0.31490  0.40312  Biso   1.000  N
  N20      1.0000 0.50810  0.68510  0.59688  Biso   1.000  N
  C49      1.0000 0.18490  0.12420  0.81180  Biso   1.000  C
  C50      1.0000 0.81510  0.87580  0.18820  Biso   1.000  C
  H57      1.0000 0.25850  0.18290  0.79620  Biso   1.000  H
  H58      1.0000 0.74150  0.81710  0.20380  Biso   1.000  H
  H59      1.0000 0.10860  0.08970  0.77090  Biso   1.000  H
  H60      1.0000 0.89140  0.91030  0.22910  Biso   1.000  H
  C51      1.0000 0.20050  0.01850  0.82301  Biso   1.000  C
  C52      1.0000 0.79950  0.98150  0.17699  Biso   1.000  C
  H61      1.0000 0.28210  0.05600  0.86090  Biso   1.000  H
  H62      1.0000 0.71790  0.94400  0.13910  Biso   1.000  H
  H63      1.0000 0.26980  0.04420  0.86740  Biso   1.000  H
  H64      1.0000 0.73020  0.95580  0.13260  Biso   1.000  H
  C53      1.0000 0.06460  0.10860  0.91280  Biso   1.000  C
  C54      1.0000 0.93540  0.89140  0.08720  Biso   1.000  C
  H65      1.0000 0.98580  0.07140  0.87330  Biso   1.000  H
  H66      1.0000 0.01420  0.92860  0.12670  Biso   1.000  H
  H67      1.0000 0.05850  0.15550  0.96010  Biso   1.000  H
  H68      1.0000 0.94150  0.84450  0.03990  Biso   1.000  H
  H69      1.0000 0.07530  0.14970  0.96680  Biso   1.000  H
  H70      1.0000 0.92470  0.85030  0.03320  Biso   1.000  H
  H71      1.0000 0.98720  0.09660  0.88310  Biso   1.000  H
  H72      1.0000 0.01280  0.90340  0.11690  Biso   1.000  H
  C55      1.0000 0.17420  0.19610  0.88700  Biso   1.000  C
  C56      1.0000 0.82580  0.80390  0.11300  Biso   1.000  C
  H73      1.0000 0.25250  0.23480  0.92710  Biso   1.000  H
  H74      1.0000 0.74750  0.76520  0.07290  Biso   1.000  H
  H75      1.0000 0.16280  0.26320  0.87860  Biso   1.000  H
  H76      1.0000 0.83720  0.73680  0.12140  Biso   1.000  H
  N21      1.0000 0.06330  0.05380  0.74300  Biso   1.000  N
  N22      1.0000 0.93670  0.94620  0.25700  Biso   1.000  N
  H77      1.0000 0.05300  0.09600  0.71500  Biso   1.000  H
  H78      1.0000 0.94700  0.90400  0.28500  Biso   1.000  H
  H79      1.0000 0.99100  0.02000  0.75700  Biso   1.000  H
  H80      1.0000 0.00900  0.98000  0.24300  Biso   1.000  H
  C57      1.0000 0.09310  0.92300  0.85260  Biso   1.000  C
  C58      1.0000 0.90690  0.07700  0.14740  Biso   1.000  C
  H81      1.0000 0.11370  0.86310  0.86440  Biso   1.000  H
  H82      1.0000 0.88630  0.13690  0.13560  Biso   1.000  H
  H83      1.0000 0.01250  0.87610  0.81340  Biso   1.000  H
  H84      1.0000 0.98750  0.12390  0.18660  Biso   1.000  H
  C59      1.0000 0.08380  0.00230  0.92710  Biso   1.000  C
  C60      1.0000 0.91620  0.99770  0.07290  Biso   1.000  C
  H85      1.0000 0.01280  0.94640  0.94480  Biso   1.000  H
  H86      1.0000 0.98720  0.05360  0.05520  Biso   1.000  H
  H87      1.0000 0.16130  0.04020  0.96770  Biso   1.000  H
  H88      1.0000 0.83870  0.95980  0.03230  Biso   1.000  H
  N23      1.0000 0.98090  0.90060  0.75710  Biso   1.000  N
  N24      1.0000 0.01910  0.09940  0.24290  Biso   1.000  N
  H89      1.0000 0.93600  0.93500  0.77000  Biso   1.000  H
  H90      1.0000 0.06400  0.06500  0.23000  Biso   1.000  H
  H91      1.0000 0.92500  0.82000  0.75100  Biso   1.000  H
  H92      1.0000 0.07500  0.18000  0.24900  Biso   1.000  H
  C61      1.0000 0.07280  0.93710  0.83080  Biso   1.000  C
  C62      1.0000 0.92720  0.06290  0.16920  Biso   1.000  C
  H93      1.0000 0.06860  0.85840  0.83190  Biso   1.000  H
  H94      1.0000 0.93140  0.14160  0.16810  Biso   1.000  H
  C63      1.0000 0.04600  0.98240  0.90520  Biso   1.000  C
  C64      1.0000 0.95400  0.01760  0.09480  Biso   1.000  C
  H95      1.0000 0.95910  0.92320  0.90530  Biso   1.000  H
  H96      1.0000 0.04090  0.07680  0.09470  Biso   1.000  H
  H97      1.0000 0.10360  0.98800  0.94860  Biso   1.000  H
  H98      1.0000 0.89640  0.01200  0.05140  Biso   1.000  H
  N25      1.0000 0.20710  0.95200  0.74811  Biso   1.000  N
  N26      1.0000 0.79290  0.04800  0.25189  Biso   1.000  N
  H99      1.0000 0.22100  0.89000  0.74700  Biso   1.000  H
  H100     1.0000 0.77900  0.11000  0.25300  Biso   1.000  H
  H101     1.0000 0.27400  0.00400  0.73500  Biso   1.000  H
  H102     1.0000 0.72600  0.99600  0.26500  Biso   1.000  H
  N27      1.0000 0.17730  0.02240  0.60378  Biso   1.000  N
  N28      1.0000 0.82270  0.97760  0.39622  Biso   1.000  N
  N29      1.0000 0.89910  0.87140  0.59977  Biso   1.000  N
  N30      1.0000 0.10090  0.12860  0.40023  Biso   1.000  N
  N31      1.0000 0.02880  0.73830  0.60988  Biso   1.000  N
  N32      1.0000 0.97120  0.26170  0.39012  Biso   1.000  N
  N33      1.0000 0.73630  0.05420  0.93560  Biso   1.000  N
  N34      1.0000 0.26370  0.94580  0.06440  Biso   1.000  N
  N35      1.0000 0.34540  0.83940  0.83024  Biso   1.000  N
  N36      1.0000 0.65460  0.16060  0.16976  Biso   1.000  N
  N37      1.0000 0.47700  0.76510  0.03802  Biso   1.000  N
  N38      1.0000 0.52300  0.23490  0.96198  Biso   1.000  N
  Fe1      1.0000 0.33827  0.17212  0.50599  Biso   1.000  Fe
  Fe2      1.0000 0.66173  0.82788  0.49401  Biso   1.000  Fe
  Fe3      1.0000 0.00000  0.50000  0.50000  Biso   1.000  Fe
  Fe4      1.0000 0.50000  0.00000  0.00000  Biso   1.000  Fe
  Cu1      1.0000 0.26540  0.76364  0.33041  Biso   1.000  Cu
  Cu2      1.0000 0.73460  0.23636  0.66959  Biso   1.000  Cu
  Cu3      1.0000 0.58588  0.39034  0.33009  Biso   1.000  Cu
  Cu4      1.0000 0.41412  0.60966  0.66991  Biso   1.000  Cu
  Cu5      1.0000 0.05938  0.91083  0.66516  Biso   1.000  Cu
  Cu6      1.0000 0.94062  0.08917  0.33484  Biso   1.000  Cu
  O1       1.0000 0.24300  0.01210  0.22082  Biso   1.000  O
  O2       1.0000 0.75700  0.98790  0.77918  Biso   1.000  O
  H103     1.0000 0.24100  0.98900  0.17450  Biso   1.000  H
  H104     1.0000 0.75900  0.01100  0.82550  Biso   1.000  H
  H105     1.0000 0.30800  0.02200  0.24470  Biso   1.000  H
  H106     1.0000 0.69200  0.97800  0.75530  Biso   1.000  H
  O3       1.0000 0.51460  0.95730  0.73160  Biso   1.000  O
  O4       1.0000 0.48540  0.04270  0.26840  Biso   1.000  O
  H107     1.0000 0.46100  0.90500  0.74800  Biso   1.000  H
  H108     1.0000 0.53900  0.09500  0.25200  Biso   1.000  H
  H109     1.0000 0.47000  0.95200  0.69100  Biso   1.000  H
  H110     1.0000 0.53000  0.04800  0.30900  Biso   1.000  H
  O5       1.0000 0.50760  0.18670  0.79443  Biso   1.000  O
  O6       1.0000 0.49240  0.81330  0.20557  Biso   1.000  O
  H111     1.0000 0.53000  0.21600  0.84150  Biso   1.000  H
  H112     1.0000 0.47000  0.78400  0.15850  Biso   1.000  H
  H113     1.0000 0.52900  0.13600  0.78300  Biso   1.000  H
  H114     1.0000 0.47100  0.86400  0.21700  Biso   1.000  H
  O7       1.0000 0.90620  0.71400  0.33020  Biso   1.000  O
  O8       1.0000 0.09380  0.28600  0.66980  Biso   1.000  O
  O9       1.0000 0.27270  0.43500  0.33810  Biso   1.000  O
  O10      1.0000 0.72730  0.56500  0.66190  Biso   1.000  O
  O11      1.0000 0.35740  0.87350  0.58460  Biso   1.000  O
  O12      1.0000 0.64260  0.12650  0.41540  Biso   1.000  O
