data_image0
_cell_length_a       11.6599
_cell_length_b       11.6599
_cell_length_c       41.664
_cell_angle_alpha    90
_cell_angle_beta     90
_cell_angle_gamma    120

_symmetry_space_group_name_H-M    "P 1"
_symmetry_int_tables_number       1

loop_
  _symmetry_equiv_pos_as_xyz
  'x, y, z'

loop_
  _atom_site_label
  _atom_site_occupancy
  _atom_site_fract_x
  _atom_site_fract_y
  _atom_site_fract_z
  _atom_site_thermal_displace_type
  _atom_site_B_iso_or_equiv
  _atom_site_type_symbol
  P1       1.0000 0.33330  0.66670  0.16670  Biso   1.000  P
  P2       1.0000 0.99997  0.00003  0.50003  Biso   1.000  P
  P3       1.0000 0.66663  0.33337  0.83337  Biso   1.000  P
  Mo1      1.0000 0.20717  0.32040  0.17077  Biso   1.000  Mo
  Mo2      1.0000 0.67960  0.88677  0.17077  Biso   1.000  Mo
  Mo3      1.0000 0.11323  0.79283  0.17077  Biso   1.000  Mo
  Mo4      1.0000 0.87384  0.65373  0.50410  Biso   1.000  Mo
  Mo5      1.0000 0.34627  0.22010  0.50410  Biso   1.000  Mo
  Mo6      1.0000 0.77990  0.12616  0.50410  Biso   1.000  Mo
  Mo7      1.0000 0.54050  0.98707  0.83744  Biso   1.000  Mo
  Mo8      1.0000 0.01293  0.55344  0.83744  Biso   1.000  Mo
  Mo9      1.0000 0.44656  0.45950  0.83744  Biso   1.000  Mo
  Mo10     1.0000 0.79283  0.67960  0.82923  Biso   1.000  Mo
  Mo11     1.0000 0.32040  0.11323  0.82923  Biso   1.000  Mo
  Mo12     1.0000 0.88677  0.20717  0.82923  Biso   1.000  Mo
  Mo13     1.0000 0.45950  0.01293  0.16256  Biso   1.000  Mo
  Mo14     1.0000 0.98707  0.44656  0.16256  Biso   1.000  Mo
  Mo15     1.0000 0.55344  0.54050  0.16256  Biso   1.000  Mo
  Mo16     1.0000 0.12616  0.34627  0.49590  Biso   1.000  Mo
  Mo17     1.0000 0.65373  0.77990  0.49590  Biso   1.000  Mo
  Mo18     1.0000 0.22010  0.87384  0.49590  Biso   1.000  Mo
  Mo19     1.0000 0.19304  0.46876  0.09661  Biso   1.000  Mo
  Mo20     1.0000 0.53124  0.72428  0.09661  Biso   1.000  Mo
  Mo21     1.0000 0.27572  0.80696  0.09661  Biso   1.000  Mo
  Mo22     1.0000 0.85971  0.80209  0.42994  Biso   1.000  Mo
  Mo23     1.0000 0.19791  0.05761  0.42994  Biso   1.000  Mo
  Mo24     1.0000 0.94239  0.14029  0.42994  Biso   1.000  Mo
  Mo25     1.0000 0.52637  0.13543  0.76328  Biso   1.000  Mo
  Mo26     1.0000 0.86457  0.39095  0.76328  Biso   1.000  Mo
  Mo27     1.0000 0.60905  0.47363  0.76328  Biso   1.000  Mo
  Mo28     1.0000 0.80696  0.53124  0.90339  Biso   1.000  Mo
  Mo29     1.0000 0.46876  0.27572  0.90339  Biso   1.000  Mo
  Mo30     1.0000 0.72428  0.19304  0.90339  Biso   1.000  Mo
  Mo31     1.0000 0.47363  0.86457  0.23672  Biso   1.000  Mo
  Mo32     1.0000 0.13543  0.60905  0.23672  Biso   1.000  Mo
  Mo33     1.0000 0.39095  0.52637  0.23672  Biso   1.000  Mo
  Mo34     1.0000 0.14029  0.19791  0.57006  Biso   1.000  Mo
  Mo35     1.0000 0.80209  0.94239  0.57006  Biso   1.000  Mo
  Mo36     1.0000 0.05761  0.85971  0.57006  Biso   1.000  Mo
  O1       1.0000 0.33340  0.66660  0.20350  Biso   1.000  O
  O2       1.0000 0.00007  0.99993  0.53683  Biso   1.000  O
  O3       1.0000 0.66673  0.33327  0.87017  Biso   1.000  O
  O4       1.0000 0.66660  0.33340  0.79650  Biso   1.000  O
  O5       1.0000 0.33327  0.66673  0.12983  Biso   1.000  O
  O6       1.0000 0.99993  0.00007  0.46317  Biso   1.000  O
  O7       1.0000 0.22520  0.53020  0.15471  Biso   1.000  O
  O8       1.0000 0.46980  0.69500  0.15471  Biso   1.000  O
  O9       1.0000 0.30500  0.77480  0.15471  Biso   1.000  O
  O10      1.0000 0.89187  0.86353  0.48804  Biso   1.000  O
  O11      1.0000 0.13647  0.02833  0.48804  Biso   1.000  O
  O12      1.0000 0.97167  0.10813  0.48804  Biso   1.000  O
  O13      1.0000 0.55853  0.19687  0.82138  Biso   1.000  O
  O14      1.0000 0.80313  0.36167  0.82138  Biso   1.000  O
  O15      1.0000 0.63833  0.44147  0.82138  Biso   1.000  O
  O16      1.0000 0.77480  0.46980  0.84529  Biso   1.000  O
  O17      1.0000 0.53020  0.30500  0.84529  Biso   1.000  O
  O18      1.0000 0.69500  0.22520  0.84529  Biso   1.000  O
  O19      1.0000 0.44147  0.80313  0.17862  Biso   1.000  O
  O20      1.0000 0.19687  0.63833  0.17862  Biso   1.000  O
  O21      1.0000 0.36167  0.55853  0.17862  Biso   1.000  O
  O22      1.0000 0.10813  0.13647  0.51196  Biso   1.000  O
  O23      1.0000 0.86353  0.97167  0.51196  Biso   1.000  O
  O24      1.0000 0.02833  0.89187  0.51196  Biso   1.000  O
  O25      1.0000 0.26030  0.36860  0.21178  Biso   1.000  O
  O26      1.0000 0.63140  0.89170  0.21178  Biso   1.000  O
  O27      1.0000 0.10830  0.73970  0.21178  Biso   1.000  O
  O28      1.0000 0.92697  0.70193  0.54511  Biso   1.000  O
  O29      1.0000 0.29807  0.22503  0.54511  Biso   1.000  O
  O30      1.0000 0.77497  0.07303  0.54511  Biso   1.000  O
  O31      1.0000 0.59363  0.03527  0.87845  Biso   1.000  O
  O32      1.0000 0.96473  0.55837  0.87845  Biso   1.000  O
  O33      1.0000 0.44163  0.40637  0.87845  Biso   1.000  O
  O34      1.0000 0.73970  0.63140  0.78822  Biso   1.000  O
  O35      1.0000 0.36860  0.10830  0.78822  Biso   1.000  O
  O36      1.0000 0.89170  0.26030  0.78822  Biso   1.000  O
  O37      1.0000 0.40637  0.96473  0.12155  Biso   1.000  O
  O38      1.0000 0.03527  0.44163  0.12155  Biso   1.000  O
  O39      1.0000 0.55837  0.59363  0.12155  Biso   1.000  O
  O40      1.0000 0.07303  0.29807  0.45489  Biso   1.000  O
  O41      1.0000 0.70193  0.77497  0.45489  Biso   1.000  O
  O42      1.0000 0.22503  0.92697  0.45489  Biso   1.000  O
  O43      1.0000 0.05770  0.32850  0.17386  Biso   1.000  O
  O44      1.0000 0.67150  0.72920  0.17386  Biso   1.000  O
  O45      1.0000 0.27080  0.94230  0.17386  Biso   1.000  O
  O46      1.0000 0.72437  0.66183  0.50719  Biso   1.000  O
  O47      1.0000 0.33817  0.06253  0.50719  Biso   1.000  O
  O48      1.0000 0.93747  0.27563  0.50719  Biso   1.000  O
  O49      1.0000 0.39103  0.99517  0.84053  Biso   1.000  O
  O50      1.0000 0.00483  0.39587  0.84053  Biso   1.000  O
  O51      1.0000 0.60413  0.60897  0.84053  Biso   1.000  O
  O52      1.0000 0.94230  0.67150  0.82614  Biso   1.000  O
  O53      1.0000 0.32850  0.27080  0.82614  Biso   1.000  O
  O54      1.0000 0.72920  0.05770  0.82614  Biso   1.000  O
  O55      1.0000 0.60897  0.00483  0.15947  Biso   1.000  O
  O56      1.0000 0.99517  0.60413  0.15947  Biso   1.000  O
  O57      1.0000 0.39587  0.39103  0.15947  Biso   1.000  O
  O58      1.0000 0.27563  0.33817  0.49281  Biso   1.000  O
  O59      1.0000 0.66183  0.93747  0.49281  Biso   1.000  O
  O60      1.0000 0.06253  0.72437  0.49281  Biso   1.000  O
  O61      1.0000 0.20100  0.35250  0.12365  Biso   1.000  O
  O62      1.0000 0.64750  0.84850  0.12365  Biso   1.000  O
  O63      1.0000 0.15150  0.79900  0.12365  Biso   1.000  O
  O64      1.0000 0.86767  0.68583  0.45698  Biso   1.000  O
  O65      1.0000 0.31417  0.18183  0.45698  Biso   1.000  O
  O66      1.0000 0.81817  0.13233  0.45698  Biso   1.000  O
  O67      1.0000 0.53433  0.01917  0.79032  Biso   1.000  O
  O68      1.0000 0.98083  0.51517  0.79032  Biso   1.000  O
  O69      1.0000 0.48483  0.46567  0.79032  Biso   1.000  O
  O70      1.0000 0.79900  0.64750  0.87635  Biso   1.000  O
  O71      1.0000 0.35250  0.15150  0.87635  Biso   1.000  O
  O72      1.0000 0.84850  0.20100  0.87635  Biso   1.000  O
  O73      1.0000 0.46567  0.98083  0.20968  Biso   1.000  O
  O74      1.0000 0.01917  0.48483  0.20968  Biso   1.000  O
  O75      1.0000 0.51517  0.53433  0.20968  Biso   1.000  O
  O76      1.0000 0.13233  0.31417  0.54302  Biso   1.000  O
  O77      1.0000 0.68583  0.81817  0.54302  Biso   1.000  O
  O78      1.0000 0.18183  0.86767  0.54302  Biso   1.000  O
  O79      1.0000 0.15410  0.15970  0.17070  Biso   1.000  O
  O80      1.0000 0.84030  0.99440  0.17070  Biso   1.000  O
  O81      1.0000 0.00560  0.84590  0.17070  Biso   1.000  O
  O82      1.0000 0.82077  0.49303  0.50403  Biso   1.000  O
  O83      1.0000 0.50697  0.32773  0.50403  Biso   1.000  O
  O84      1.0000 0.67227  0.17923  0.50403  Biso   1.000  O
  O85      1.0000 0.48743  0.82637  0.83737  Biso   1.000  O
  O86      1.0000 0.17363  0.66107  0.83737  Biso   1.000  O
  O87      1.0000 0.33893  0.51257  0.83737  Biso   1.000  O
  O88      1.0000 0.84590  0.84030  0.82930  Biso   1.000  O
  O89      1.0000 0.15970  0.00560  0.82930  Biso   1.000  O
  O90      1.0000 0.99440  0.15410  0.82930  Biso   1.000  O
  O91      1.0000 0.51257  0.17363  0.16263  Biso   1.000  O
  O92      1.0000 0.82637  0.33893  0.16263  Biso   1.000  O
  O93      1.0000 0.66107  0.48743  0.16263  Biso   1.000  O
  O94      1.0000 0.17923  0.50697  0.49597  Biso   1.000  O
  O95      1.0000 0.49303  0.67227  0.49597  Biso   1.000  O
  O96      1.0000 0.32773  0.82077  0.49597  Biso   1.000  O
  O97      1.0000 0.12030  0.37910  0.06463  Biso   1.000  O
  O98      1.0000 0.62090  0.74120  0.06463  Biso   1.000  O
  O99      1.0000 0.25880  0.87970  0.06463  Biso   1.000  O
  O100     1.0000 0.78697  0.71243  0.39796  Biso   1.000  O
  O101     1.0000 0.28757  0.07453  0.39796  Biso   1.000  O
  O102     1.0000 0.92547  0.21303  0.39796  Biso   1.000  O
  O103     1.0000 0.45363  0.04577  0.73130  Biso   1.000  O
  O104     1.0000 0.95423  0.40787  0.73130  Biso   1.000  O
  O105     1.0000 0.59213  0.54637  0.73130  Biso   1.000  O
  O106     1.0000 0.87970  0.62090  0.93537  Biso   1.000  O
  O107     1.0000 0.37910  0.25880  0.93537  Biso   1.000  O
  O108     1.0000 0.74120  0.12030  0.93537  Biso   1.000  O
  O109     1.0000 0.54637  0.95423  0.26870  Biso   1.000  O
  O110     1.0000 0.04577  0.59213  0.26870  Biso   1.000  O
  O111     1.0000 0.40787  0.45363  0.26870  Biso   1.000  O
  O112     1.0000 0.21303  0.28757  0.60204  Biso   1.000  O
  O113     1.0000 0.71243  0.92547  0.60204  Biso   1.000  O
  O114     1.0000 0.07453  0.78697  0.60204  Biso   1.000  O
  O115     1.0000 0.36790  0.55780  0.08520  Biso   1.000  O
  O116     1.0000 0.44220  0.81010  0.08520  Biso   1.000  O
  O117     1.0000 0.18990  0.63210  0.08520  Biso   1.000  O
  O118     1.0000 0.03457  0.89113  0.41853  Biso   1.000  O
  O119     1.0000 0.10887  0.14343  0.41853  Biso   1.000  O
  O120     1.0000 0.85657  0.96543  0.41853  Biso   1.000  O
  O121     1.0000 0.70123  0.22447  0.75187  Biso   1.000  O
  O122     1.0000 0.77553  0.47677  0.75187  Biso   1.000  O
  O123     1.0000 0.52323  0.29877  0.75187  Biso   1.000  O
  O124     1.0000 0.63210  0.44220  0.91480  Biso   1.000  O
  O125     1.0000 0.55780  0.18990  0.91480  Biso   1.000  O
  O126     1.0000 0.81010  0.36790  0.91480  Biso   1.000  O
  O127     1.0000 0.29877  0.77553  0.24813  Biso   1.000  O
  O128     1.0000 0.22447  0.52323  0.24813  Biso   1.000  O
  O129     1.0000 0.47677  0.70123  0.24813  Biso   1.000  O
  O130     1.0000 0.96543  0.10887  0.58147  Biso   1.000  O
  O131     1.0000 0.89113  0.85657  0.58147  Biso   1.000  O
  O132     1.0000 0.14343  0.03457  0.58147  Biso   1.000  O
  Cu1      1.0000 0.66670  0.33330  0.33330  Biso   1.000  Cu
  Cu2      1.0000 0.33337  0.66663  0.66663  Biso   1.000  Cu
  Cu3      1.0000 0.00003  0.99997  0.99997  Biso   1.000  Cu
  C1       1.0000 0.02470  0.53770  0.43224  Biso   1.000  C
  C2       1.0000 0.46230  0.48700  0.43224  Biso   1.000  C
  C3       1.0000 0.51300  0.97530  0.43224  Biso   1.000  C
  C4       1.0000 0.69137  0.87103  0.76557  Biso   1.000  C
  C5       1.0000 0.12897  0.82033  0.76557  Biso   1.000  C
  C6       1.0000 0.17967  0.30863  0.76557  Biso   1.000  C
  C7       1.0000 0.35803  0.20437  0.09891  Biso   1.000  C
  C8       1.0000 0.79563  0.15367  0.09891  Biso   1.000  C
  C9       1.0000 0.84633  0.64197  0.09891  Biso   1.000  C
  C10      1.0000 0.97530  0.46230  0.56776  Biso   1.000  C
  C11      1.0000 0.53770  0.51300  0.56776  Biso   1.000  C
  C12      1.0000 0.48700  0.02470  0.56776  Biso   1.000  C
  C13      1.0000 0.64197  0.79563  0.90109  Biso   1.000  C
  C14      1.0000 0.20437  0.84633  0.90109  Biso   1.000  C
  C15      1.0000 0.15367  0.35803  0.90109  Biso   1.000  C
  C16      1.0000 0.30863  0.12897  0.23443  Biso   1.000  C
  C17      1.0000 0.87103  0.17967  0.23443  Biso   1.000  C
  C18      1.0000 0.82033  0.69137  0.23443  Biso   1.000  C
  H1       1.0000 0.95990  0.47030  0.44600  Biso   1.000  H
  H2       1.0000 0.52970  0.48960  0.44600  Biso   1.000  H
  H3       1.0000 0.51040  0.04010  0.44600  Biso   1.000  H
  H4       1.0000 0.62657  0.80363  0.77933  Biso   1.000  H
  H5       1.0000 0.19637  0.82293  0.77933  Biso   1.000  H
  H6       1.0000 0.17707  0.37343  0.77933  Biso   1.000  H
  H7       1.0000 0.29323  0.13697  0.11267  Biso   1.000  H
  H8       1.0000 0.86303  0.15627  0.11267  Biso   1.000  H
  H9       1.0000 0.84373  0.70677  0.11267  Biso   1.000  H
  H10      1.0000 0.04010  0.52970  0.55400  Biso   1.000  H
  H11      1.0000 0.47030  0.51040  0.55400  Biso   1.000  H
  H12      1.0000 0.48960  0.95990  0.55400  Biso   1.000  H
  H13      1.0000 0.70677  0.86303  0.88733  Biso   1.000  H
  H14      1.0000 0.13697  0.84373  0.88733  Biso   1.000  H
  H15      1.0000 0.15627  0.29323  0.88733  Biso   1.000  H
  H16      1.0000 0.37343  0.19637  0.22067  Biso   1.000  H
  H17      1.0000 0.80363  0.17707  0.22067  Biso   1.000  H
  H18      1.0000 0.82293  0.62657  0.22067  Biso   1.000  H
  H19      1.0000 0.05030  0.62330  0.44100  Biso   1.000  H
  H20      1.0000 0.37670  0.42700  0.44100  Biso   1.000  H
  H21      1.0000 0.57300  0.94970  0.44100  Biso   1.000  H
  H22      1.0000 0.71697  0.95663  0.77433  Biso   1.000  H
  H23      1.0000 0.04337  0.76033  0.77433  Biso   1.000  H
  H24      1.0000 0.23967  0.28303  0.77433  Biso   1.000  H
  H25      1.0000 0.38363  0.28997  0.10767  Biso   1.000  H
  H26      1.0000 0.71003  0.09367  0.10767  Biso   1.000  H
  H27      1.0000 0.90633  0.61637  0.10767  Biso   1.000  H
  H28      1.0000 0.94970  0.37670  0.55900  Biso   1.000  H
  H29      1.0000 0.62330  0.57300  0.55900  Biso   1.000  H
  H30      1.0000 0.42700  0.05030  0.55900  Biso   1.000  H
  H31      1.0000 0.61637  0.71003  0.89233  Biso   1.000  H
  H32      1.0000 0.28997  0.90633  0.89233  Biso   1.000  H
  H33      1.0000 0.09367  0.38363  0.89233  Biso   1.000  H
  H34      1.0000 0.28303  0.04337  0.22567  Biso   1.000  H
  H35      1.0000 0.95663  0.23967  0.22567  Biso   1.000  H
  H36      1.0000 0.76033  0.71697  0.22567  Biso   1.000  H
  H37      1.0000 0.10100  0.52700  0.43080  Biso   1.000  H
  H38      1.0000 0.47300  0.57400  0.43080  Biso   1.000  H
  H39      1.0000 0.42600  0.89900  0.43080  Biso   1.000  H
  H40      1.0000 0.76767  0.86033  0.76413  Biso   1.000  H
  H41      1.0000 0.13967  0.90733  0.76413  Biso   1.000  H
  H42      1.0000 0.09267  0.23233  0.76413  Biso   1.000  H
  H43      1.0000 0.43433  0.19367  0.09747  Biso   1.000  H
  H44      1.0000 0.80633  0.24067  0.09747  Biso   1.000  H
  H45      1.0000 0.75933  0.56567  0.09747  Biso   1.000  H
  H46      1.0000 0.89900  0.47300  0.56920  Biso   1.000  H
  H47      1.0000 0.52700  0.42600  0.56920  Biso   1.000  H
  H48      1.0000 0.57400  0.10100  0.56920  Biso   1.000  H
  H49      1.0000 0.56567  0.80633  0.90253  Biso   1.000  H
  H50      1.0000 0.19367  0.75933  0.90253  Biso   1.000  H
  H51      1.0000 0.24067  0.43433  0.90253  Biso   1.000  H
  H52      1.0000 0.23233  0.13967  0.23587  Biso   1.000  H
  H53      1.0000 0.86033  0.09267  0.23587  Biso   1.000  H
  H54      1.0000 0.90733  0.76767  0.23587  Biso   1.000  H
  C19      1.0000 0.02870  0.60320  0.37428  Biso   1.000  C
  C20      1.0000 0.39680  0.42550  0.37428  Biso   1.000  C
  C21      1.0000 0.57450  0.97130  0.37428  Biso   1.000  C
  C22      1.0000 0.69537  0.93653  0.70761  Biso   1.000  C
  C23      1.0000 0.06347  0.75883  0.70761  Biso   1.000  C
  C24      1.0000 0.24117  0.30463  0.70761  Biso   1.000  C
  C25      1.0000 0.36203  0.26987  0.04095  Biso   1.000  C
  C26      1.0000 0.73013  0.09217  0.04095  Biso   1.000  C
  C27      1.0000 0.90783  0.63797  0.04095  Biso   1.000  C
  C28      1.0000 0.97130  0.39680  0.62572  Biso   1.000  C
  C29      1.0000 0.60320  0.57450  0.62572  Biso   1.000  C
  C30      1.0000 0.42550  0.02870  0.62572  Biso   1.000  C
  C31      1.0000 0.63797  0.73013  0.95905  Biso   1.000  C
  C32      1.0000 0.26987  0.90783  0.95905  Biso   1.000  C
  C33      1.0000 0.09217  0.36203  0.95905  Biso   1.000  C
  C34      1.0000 0.30463  0.06347  0.29239  Biso   1.000  C
  C35      1.0000 0.93653  0.24117  0.29239  Biso   1.000  C
  C36      1.0000 0.75883  0.69537  0.29239  Biso   1.000  C
  C37      1.0000 0.20510  0.79650  0.33535  Biso   1.000  C
  C38      1.0000 0.20350  0.40860  0.33535  Biso   1.000  C
  C39      1.0000 0.59140  0.79490  0.33535  Biso   1.000  C
  C40      1.0000 0.87177  0.12983  0.66868  Biso   1.000  C
  C41      1.0000 0.87017  0.74193  0.66868  Biso   1.000  C
  C42      1.0000 0.25807  0.12823  0.66868  Biso   1.000  C
  C43      1.0000 0.53843  0.46317  0.00202  Biso   1.000  C
  C44      1.0000 0.53683  0.07527  0.00202  Biso   1.000  C
  C45      1.0000 0.92473  0.46157  0.00202  Biso   1.000  C
  C46      1.0000 0.79490  0.20350  0.66465  Biso   1.000  C
  C47      1.0000 0.79650  0.59140  0.66465  Biso   1.000  C
  C48      1.0000 0.40860  0.20510  0.66465  Biso   1.000  C
  C49      1.0000 0.46157  0.53683  0.99798  Biso   1.000  C
  C50      1.0000 0.46317  0.92473  0.99798  Biso   1.000  C
  C51      1.0000 0.07527  0.53843  0.99798  Biso   1.000  C
  C52      1.0000 0.12823  0.87017  0.33132  Biso   1.000  C
  C53      1.0000 0.12983  0.25807  0.33132  Biso   1.000  C
  C54      1.0000 0.74193  0.87177  0.33132  Biso   1.000  C
  H55      1.0000 0.29780  0.85610  0.33050  Biso   1.000  H
  H56      1.0000 0.14390  0.44170  0.33050  Biso   1.000  H
  H57      1.0000 0.55830  0.70220  0.33050  Biso   1.000  H
  H58      1.0000 0.96447  0.18943  0.66383  Biso   1.000  H
  H59      1.0000 0.81057  0.77503  0.66383  Biso   1.000  H
  H60      1.0000 0.22497  0.03553  0.66383  Biso   1.000  H
  H61      1.0000 0.63113  0.52277  0.99717  Biso   1.000  H
  H62      1.0000 0.47723  0.10837  0.99717  Biso   1.000  H
  H63      1.0000 0.89163  0.36887  0.99717  Biso   1.000  H
  H64      1.0000 0.70220  0.14390  0.66950  Biso   1.000  H
  H65      1.0000 0.85610  0.55830  0.66950  Biso   1.000  H
  H66      1.0000 0.44170  0.29780  0.66950  Biso   1.000  H
  H67      1.0000 0.36887  0.47723  0.00283  Biso   1.000  H
  H68      1.0000 0.52277  0.89163  0.00283  Biso   1.000  H
  H69      1.0000 0.10837  0.63113  0.00283  Biso   1.000  H
  H70      1.0000 0.03553  0.81057  0.33617  Biso   1.000  H
  H71      1.0000 0.18943  0.22497  0.33617  Biso   1.000  H
  H72      1.0000 0.77503  0.96447  0.33617  Biso   1.000  H
  H73      1.0000 0.17160  0.72340  0.32030  Biso   1.000  H
  H74      1.0000 0.27660  0.44820  0.32030  Biso   1.000  H
  H75      1.0000 0.55180  0.82840  0.32030  Biso   1.000  H
  H76      1.0000 0.83827  0.05673  0.65363  Biso   1.000  H
  H77      1.0000 0.94327  0.78153  0.65363  Biso   1.000  H
  H78      1.0000 0.21847  0.16173  0.65363  Biso   1.000  H
  H79      1.0000 0.50493  0.39007  0.98697  Biso   1.000  H
  H80      1.0000 0.60993  0.11487  0.98697  Biso   1.000  H
  H81      1.0000 0.88513  0.49507  0.98697  Biso   1.000  H
  H82      1.0000 0.82840  0.27660  0.67970  Biso   1.000  H
  H83      1.0000 0.72340  0.55180  0.67970  Biso   1.000  H
  H84      1.0000 0.44820  0.17160  0.67970  Biso   1.000  H
  H85      1.0000 0.49507  0.60993  0.01303  Biso   1.000  H
  H86      1.0000 0.39007  0.88513  0.01303  Biso   1.000  H
  H87      1.0000 0.11487  0.50493  0.01303  Biso   1.000  H
  H88      1.0000 0.16173  0.94327  0.34637  Biso   1.000  H
  H89      1.0000 0.05673  0.21847  0.34637  Biso   1.000  H
  H90      1.0000 0.78153  0.83827  0.34637  Biso   1.000  H
  N1       1.0000 0.96780  0.52600  0.39999  Biso   1.000  N
  N2       1.0000 0.47400  0.44180  0.39999  Biso   1.000  N
  N3       1.0000 0.55820  0.03220  0.39999  Biso   1.000  N
  N4       1.0000 0.63447  0.85933  0.73332  Biso   1.000  N
  N5       1.0000 0.14067  0.77513  0.73332  Biso   1.000  N
  N6       1.0000 0.22487  0.36553  0.73332  Biso   1.000  N
  N7       1.0000 0.30113  0.19267  0.06666  Biso   1.000  N
  N8       1.0000 0.80733  0.10847  0.06666  Biso   1.000  N
  N9       1.0000 0.89153  0.69887  0.06666  Biso   1.000  N
  N10      1.0000 0.03220  0.47400  0.60001  Biso   1.000  N
  N11      1.0000 0.52600  0.55820  0.60001  Biso   1.000  N
  N12      1.0000 0.44180  0.96780  0.60001  Biso   1.000  N
  N13      1.0000 0.69887  0.80733  0.93334  Biso   1.000  N
  N14      1.0000 0.19267  0.89153  0.93334  Biso   1.000  N
  N15      1.0000 0.10847  0.30113  0.93334  Biso   1.000  N
  N16      1.0000 0.36553  0.14067  0.26668  Biso   1.000  N
  N17      1.0000 0.85933  0.22487  0.26668  Biso   1.000  N
  N18      1.0000 0.77513  0.63447  0.26668  Biso   1.000  N
  N19      1.0000 0.84690  0.43530  0.39218  Biso   1.000  N
  N20      1.0000 0.56470  0.41160  0.39218  Biso   1.000  N
  N21      1.0000 0.58840  0.15310  0.39218  Biso   1.000  N
  N22      1.0000 0.51357  0.76863  0.72551  Biso   1.000  N
  N23      1.0000 0.23137  0.74493  0.72551  Biso   1.000  N
  N24      1.0000 0.25507  0.48643  0.72551  Biso   1.000  N
  N25      1.0000 0.18023  0.10197  0.05885  Biso   1.000  N
  N26      1.0000 0.89803  0.07827  0.05885  Biso   1.000  N
  N27      1.0000 0.92173  0.81977  0.05885  Biso   1.000  N
  N28      1.0000 0.15310  0.56470  0.60782  Biso   1.000  N
  N29      1.0000 0.43530  0.58840  0.60782  Biso   1.000  N
  N30      1.0000 0.41160  0.84690  0.60782  Biso   1.000  N
  N31      1.0000 0.81977  0.89803  0.94115  Biso   1.000  N
  N32      1.0000 0.10197  0.92173  0.94115  Biso   1.000  N
  N33      1.0000 0.07827  0.18023  0.94115  Biso   1.000  N
  N34      1.0000 0.48643  0.23137  0.27449  Biso   1.000  N
  N35      1.0000 0.76863  0.25507  0.27449  Biso   1.000  N
  N36      1.0000 0.74493  0.51357  0.27449  Biso   1.000  N
  N37      1.0000 0.83490  0.45630  0.36226  Biso   1.000  N
  N38      1.0000 0.54370  0.37860  0.36226  Biso   1.000  N
  N39      1.0000 0.62140  0.16510  0.36226  Biso   1.000  N
  N40      1.0000 0.50157  0.78963  0.69559  Biso   1.000  N
  N41      1.0000 0.21037  0.71193  0.69559  Biso   1.000  N
  N42      1.0000 0.28807  0.49843  0.69559  Biso   1.000  N
  N43      1.0000 0.16823  0.12297  0.02893  Biso   1.000  N
  N44      1.0000 0.87703  0.04527  0.02893  Biso   1.000  N
  N45      1.0000 0.95473  0.83177  0.02893  Biso   1.000  N
  N46      1.0000 0.16510  0.54370  0.63774  Biso   1.000  N
  N47      1.0000 0.45630  0.62140  0.63774  Biso   1.000  N
  N48      1.0000 0.37860  0.83490  0.63774  Biso   1.000  N
  N49      1.0000 0.83177  0.87703  0.97107  Biso   1.000  N
  N50      1.0000 0.12297  0.95473  0.97107  Biso   1.000  N
  N51      1.0000 0.04527  0.16823  0.97107  Biso   1.000  N
  N52      1.0000 0.49843  0.21037  0.30441  Biso   1.000  N
  N53      1.0000 0.78963  0.28807  0.30441  Biso   1.000  N
  N54      1.0000 0.71193  0.50157  0.30441  Biso   1.000  N
  N55      1.0000 0.94600  0.56190  0.35031  Biso   1.000  N
  N56      1.0000 0.43810  0.38410  0.35031  Biso   1.000  N
  N57      1.0000 0.61590  0.05400  0.35031  Biso   1.000  N
  N58      1.0000 0.61267  0.89523  0.68364  Biso   1.000  N
  N59      1.0000 0.10477  0.71743  0.68364  Biso   1.000  N
  N60      1.0000 0.28257  0.38733  0.68364  Biso   1.000  N
  N61      1.0000 0.27933  0.22857  0.01698  Biso   1.000  N
  N62      1.0000 0.77143  0.05077  0.01698  Biso   1.000  N
  N63      1.0000 0.94923  0.72067  0.01698  Biso   1.000  N
  N64      1.0000 0.05400  0.43810  0.64969  Biso   1.000  N
  N65      1.0000 0.56190  0.61590  0.64969  Biso   1.000  N
  N66      1.0000 0.38410  0.94600  0.64969  Biso   1.000  N
  N67      1.0000 0.72067  0.77143  0.98302  Biso   1.000  N
  N68      1.0000 0.22857  0.94923  0.98302  Biso   1.000  N
  N69      1.0000 0.05077  0.27933  0.98302  Biso   1.000  N
  N70      1.0000 0.38733  0.10477  0.31636  Biso   1.000  N
  N71      1.0000 0.89523  0.28257  0.31636  Biso   1.000  N
  N72      1.0000 0.71743  0.61267  0.31636  Biso   1.000  N
  S1       1.0000 0.19080  0.73350  0.37557  Biso   1.000  S
  S2       1.0000 0.26650  0.45730  0.37557  Biso   1.000  S
  S3       1.0000 0.54270  0.80920  0.37557  Biso   1.000  S
  S4       1.0000 0.85747  0.06683  0.70890  Biso   1.000  S
  S5       1.0000 0.93317  0.79063  0.70890  Biso   1.000  S
  S6       1.0000 0.20937  0.14253  0.70890  Biso   1.000  S
  S7       1.0000 0.52413  0.40017  0.04224  Biso   1.000  S
  S8       1.0000 0.59983  0.12397  0.04224  Biso   1.000  S
  S9       1.0000 0.87603  0.47587  0.04224  Biso   1.000  S
  S10      1.0000 0.80920  0.26650  0.62443  Biso   1.000  S
  S11      1.0000 0.73350  0.54270  0.62443  Biso   1.000  S
  S12      1.0000 0.45730  0.19080  0.62443  Biso   1.000  S
  S13      1.0000 0.47587  0.59983  0.95776  Biso   1.000  S
  S14      1.0000 0.40017  0.87603  0.95776  Biso   1.000  S
  S15      1.0000 0.12397  0.52413  0.95776  Biso   1.000  S
  S16      1.0000 0.14253  0.93317  0.29110  Biso   1.000  S
  S17      1.0000 0.06683  0.20937  0.29110  Biso   1.000  S
  S18      1.0000 0.79063  0.85747  0.29110  Biso   1.000  S
