data_image0
_cell_length_a       12.732
_cell_length_b       13.164
_cell_length_c       23.024
_cell_angle_alpha    90
_cell_angle_beta     92.659
_cell_angle_gamma    90

_symmetry_space_group_name_H-M    "P 1"
_symmetry_int_tables_number       1

loop_
  _symmetry_equiv_pos_as_xyz
  'x, y, z'

loop_
  _atom_site_label
  _atom_site_occupancy
  _atom_site_fract_x
  _atom_site_fract_y
  _atom_site_fract_z
  _atom_site_thermal_displace_type
  _atom_site_B_iso_or_equiv
  _atom_site_type_symbol
  Cu1      1.0000 0.56379  0.31092  0.67819  Biso   1.000  Cu
  Cu2      1.0000 0.06379  0.18908  0.17819  Biso   1.000  Cu
  Cu3      1.0000 0.43621  0.68908  0.32181  Biso   1.000  Cu
  Cu4      1.0000 0.93621  0.81092  0.82181  Biso   1.000  Cu
  N1       1.0000 0.66720  0.34100  0.74629  Biso   1.000  N
  N2       1.0000 0.16720  0.15900  0.24629  Biso   1.000  N
  N3       1.0000 0.33280  0.65900  0.25371  Biso   1.000  N
  N4       1.0000 0.83280  0.84100  0.75371  Biso   1.000  N
  N5       1.0000 0.97150  0.35360  0.89689  Biso   1.000  N
  N6       1.0000 0.47150  0.14640  0.39689  Biso   1.000  N
  N7       1.0000 0.02850  0.64640  0.10311  Biso   1.000  N
  N8       1.0000 0.52850  0.85360  0.60311  Biso   1.000  N
  H1       1.0000 0.99750  0.31180  0.86860  Biso   1.000  H
  H2       1.0000 0.49750  0.18820  0.36860  Biso   1.000  H
  H3       1.0000 0.00250  0.68820  0.13140  Biso   1.000  H
  H4       1.0000 0.50250  0.81180  0.63140  Biso   1.000  H
  N9       1.0000 0.19510  0.43390  0.88358  Biso   1.000  N
  N10      1.0000 0.69510  0.06610  0.38358  Biso   1.000  N
  N11      1.0000 0.80490  0.56610  0.11642  Biso   1.000  N
  N12      1.0000 0.30490  0.93390  0.61642  Biso   1.000  N
  H5       1.0000 0.24150  0.39890  0.90610  Biso   1.000  H
  H6       1.0000 0.74150  0.10110  0.40610  Biso   1.000  H
  H7       1.0000 0.75850  0.60110  0.09390  Biso   1.000  H
  H8       1.0000 0.25850  0.89890  0.59390  Biso   1.000  H
  N13      1.0000 0.43970  0.34990  0.72539  Biso   1.000  N
  N14      1.0000 0.93970  0.15010  0.22539  Biso   1.000  N
  N15      1.0000 0.56030  0.65010  0.27461  Biso   1.000  N
  N16      1.0000 0.06030  0.84990  0.77461  Biso   1.000  N
  N17      1.0000 0.46440  0.29910  0.60631  Biso   1.000  N
  N18      1.0000 0.96440  0.20090  0.10631  Biso   1.000  N
  N19      1.0000 0.53560  0.70090  0.39369  Biso   1.000  N
  N20      1.0000 0.03560  0.79910  0.89369  Biso   1.000  N
  N21      1.0000 0.17350  0.22200  0.45561  Biso   1.000  N
  N22      1.0000 0.67350  0.27800  0.95561  Biso   1.000  N
  N23      1.0000 0.82650  0.77800  0.54439  Biso   1.000  N
  N24      1.0000 0.32650  0.72200  0.04439  Biso   1.000  N
  H9       1.0000 0.17490  0.16850  0.48190  Biso   1.000  H
  H10      1.0000 0.67490  0.33150  0.98190  Biso   1.000  H
  H11      1.0000 0.82510  0.83150  0.51810  Biso   1.000  H
  H12      1.0000 0.32510  0.66850  0.01810  Biso   1.000  H
  N25      1.0000 0.96340  0.30360  0.47830  Biso   1.000  N
  N26      1.0000 0.46340  0.19640  0.97830  Biso   1.000  N
  N27      1.0000 0.03660  0.69640  0.52170  Biso   1.000  N
  N28      1.0000 0.53660  0.80360  0.02170  Biso   1.000  N
  H13      1.0000 0.97490  0.33870  0.49810  Biso   1.000  H
  H14      1.0000 0.47490  0.16130  0.99810  Biso   1.000  H
  H15      1.0000 0.02510  0.66130  0.50190  Biso   1.000  H
  H16      1.0000 0.52510  0.83870  0.00190  Biso   1.000  H
  N29      1.0000 0.68530  0.28150  0.62760  Biso   1.000  N
  N30      1.0000 0.18530  0.21850  0.12760  Biso   1.000  N
  N31      1.0000 0.31470  0.71850  0.37240  Biso   1.000  N
  N32      1.0000 0.81470  0.78150  0.87240  Biso   1.000  N
  O1       1.0000 0.55320  0.13790  0.70409  Biso   1.000  O
  O2       1.0000 0.05320  0.36210  0.20409  Biso   1.000  O
  O3       1.0000 0.44680  0.86210  0.29591  Biso   1.000  O
  O4       1.0000 0.94680  0.63790  0.79591  Biso   1.000  O
  H17      1.0000 0.47910  0.08240  0.70460  Biso   1.000  H
  H18      1.0000 0.97910  0.41760  0.20460  Biso   1.000  H
  H19      1.0000 0.52090  0.91760  0.29540  Biso   1.000  H
  H20      1.0000 0.02090  0.58240  0.79540  Biso   1.000  H
  H21      1.0000 0.59500  0.11350  0.73640  Biso   1.000  H
  H22      1.0000 0.09500  0.38650  0.23640  Biso   1.000  H
  H23      1.0000 0.40500  0.88650  0.26360  Biso   1.000  H
  H24      1.0000 0.90500  0.61350  0.76360  Biso   1.000  H
  O5       1.0000 0.85520  0.46910  0.92569  Biso   1.000  O
  O6       1.0000 0.35520  0.03090  0.42569  Biso   1.000  O
  O7       1.0000 0.14480  0.53090  0.07431  Biso   1.000  O
  O8       1.0000 0.64480  0.96910  0.57431  Biso   1.000  O
  O9       1.0000 0.11240  0.49860  0.80305  Biso   1.000  O
  O10      1.0000 0.61240  0.00140  0.30305  Biso   1.000  O
  O11      1.0000 0.88760  0.50140  0.19695  Biso   1.000  O
  O12      1.0000 0.38760  0.99860  0.69695  Biso   1.000  O
  O13      1.0000 0.26120  0.35360  0.41820  Biso   1.000  O
  O14      1.0000 0.76120  0.14640  0.91820  Biso   1.000  O
  O15      1.0000 0.73880  0.64640  0.58180  Biso   1.000  O
  O16      1.0000 0.23880  0.85360  0.08180  Biso   1.000  O
  O17      1.0000 0.86190  0.16920  0.45294  Biso   1.000  O
  O18      1.0000 0.36190  0.33080  0.95294  Biso   1.000  O
  O19      1.0000 0.13810  0.83080  0.54706  Biso   1.000  O
  O20      1.0000 0.63810  0.66920  0.04706  Biso   1.000  O
  C1       1.0000 0.74850  0.27940  0.75870  Biso   1.000  C
  C2       1.0000 0.24850  0.22060  0.25870  Biso   1.000  C
  C3       1.0000 0.25150  0.72060  0.24130  Biso   1.000  C
  C4       1.0000 0.75150  0.77940  0.74130  Biso   1.000  C
  H25      1.0000 0.75640  0.22190  0.73580  Biso   1.000  H
  H26      1.0000 0.25640  0.27810  0.23580  Biso   1.000  H
  H27      1.0000 0.24360  0.77810  0.26420  Biso   1.000  H
  H28      1.0000 0.74360  0.72190  0.76420  Biso   1.000  H
  C5       1.0000 0.82070  0.29690  0.80330  Biso   1.000  C
  C6       1.0000 0.32070  0.20310  0.30330  Biso   1.000  C
  C7       1.0000 0.17930  0.70310  0.19670  Biso   1.000  C
  C8       1.0000 0.67930  0.79690  0.69670  Biso   1.000  C
  H29      1.0000 0.87690  0.25260  0.80990  Biso   1.000  H
  H30      1.0000 0.37690  0.24740  0.30990  Biso   1.000  H
  H31      1.0000 0.12310  0.74740  0.19010  Biso   1.000  H
  H32      1.0000 0.62310  0.75260  0.69010  Biso   1.000  H
  C9       1.0000 0.80970  0.38090  0.83860  Biso   1.000  C
  C10      1.0000 0.30970  0.11910  0.33860  Biso   1.000  C
  C11      1.0000 0.19030  0.61910  0.16140  Biso   1.000  C
  C12      1.0000 0.69030  0.88090  0.66140  Biso   1.000  C
  C13      1.0000 0.72590  0.44350  0.82630  Biso   1.000  C
  C14      1.0000 0.22590  0.05650  0.32630  Biso   1.000  C
  C15      1.0000 0.27410  0.55650  0.17370  Biso   1.000  C
  C16      1.0000 0.77410  0.94350  0.67370  Biso   1.000  C
  H33      1.0000 0.71540  0.50020  0.84950  Biso   1.000  H
  H34      1.0000 0.21540  0.99980  0.34950  Biso   1.000  H
  H35      1.0000 0.28460  0.49980  0.15050  Biso   1.000  H
  H36      1.0000 0.78460  0.00020  0.65050  Biso   1.000  H
  C17      1.0000 0.65680  0.42320  0.77990  Biso   1.000  C
  C18      1.0000 0.15680  0.07680  0.27990  Biso   1.000  C
  C19      1.0000 0.34320  0.57680  0.22010  Biso   1.000  C
  C20      1.0000 0.84320  0.92320  0.72010  Biso   1.000  C
  H37      1.0000 0.60140  0.46780  0.77170  Biso   1.000  H
  H38      1.0000 0.10140  0.03220  0.27170  Biso   1.000  H
  H39      1.0000 0.39860  0.53220  0.22830  Biso   1.000  H
  H40      1.0000 0.89860  0.96780  0.72830  Biso   1.000  H
  C21      1.0000 0.88190  0.40470  0.89100  Biso   1.000  C
  C22      1.0000 0.38190  0.09530  0.39100  Biso   1.000  C
  C23      1.0000 0.11810  0.59530  0.10900  Biso   1.000  C
  C24      1.0000 0.61810  0.90470  0.60900  Biso   1.000  C
  C25      1.0000 0.04840  0.38010  0.94290  Biso   1.000  C
  C26      1.0000 0.54840  0.11990  0.44290  Biso   1.000  C
  C27      1.0000 0.95160  0.61990  0.05710  Biso   1.000  C
  C28      1.0000 0.45160  0.88010  0.55710  Biso   1.000  C
  H41      1.0000 0.09110  0.32100  0.95280  Biso   1.000  H
  H42      1.0000 0.59110  0.17900  0.45280  Biso   1.000  H
  H43      1.0000 0.90890  0.67900  0.04720  Biso   1.000  H
  H44      1.0000 0.40890  0.82100  0.54720  Biso   1.000  H
  H45      1.0000 0.01210  0.39990  0.97730  Biso   1.000  H
  H46      1.0000 0.51210  0.10010  0.47730  Biso   1.000  H
  H47      1.0000 0.98790  0.60010  0.02270  Biso   1.000  H
  H48      1.0000 0.48790  0.89990  0.52270  Biso   1.000  H
  C29      1.0000 0.11930  0.46620  0.92540  Biso   1.000  C
  C30      1.0000 0.61930  0.03380  0.42540  Biso   1.000  C
  C31      1.0000 0.88070  0.53380  0.07460  Biso   1.000  C
  C32      1.0000 0.38070  0.96620  0.57460  Biso   1.000  C
  H49      1.0000 0.07650  0.52060  0.90860  Biso   1.000  H
  H50      1.0000 0.57650  0.97940  0.40860  Biso   1.000  H
  H51      1.0000 0.92350  0.47940  0.09140  Biso   1.000  H
  H52      1.0000 0.42350  0.02060  0.59140  Biso   1.000  H
  H53      1.0000 0.15680  0.49260  0.95980  Biso   1.000  H
  H54      1.0000 0.65680  0.00740  0.45980  Biso   1.000  H
  H55      1.0000 0.84320  0.50740  0.04020  Biso   1.000  H
  H56      1.0000 0.34320  0.99260  0.54020  Biso   1.000  H
  C33      1.0000 0.18520  0.45110  0.82770  Biso   1.000  C
  C34      1.0000 0.68520  0.04890  0.32770  Biso   1.000  C
  C35      1.0000 0.81480  0.54890  0.17230  Biso   1.000  C
  C36      1.0000 0.31480  0.95110  0.67230  Biso   1.000  C
  C37      1.0000 0.27370  0.41190  0.79160  Biso   1.000  C
  C38      1.0000 0.77370  0.08810  0.29160  Biso   1.000  C
  C39      1.0000 0.72630  0.58810  0.20840  Biso   1.000  C
  C40      1.0000 0.22630  0.91190  0.70840  Biso   1.000  C
  C41      1.0000 0.33540  0.32850  0.80770  Biso   1.000  C
  C42      1.0000 0.83540  0.17150  0.30770  Biso   1.000  C
  C43      1.0000 0.66460  0.67150  0.19230  Biso   1.000  C
  C44      1.0000 0.16460  0.82850  0.69230  Biso   1.000  C
  H57      1.0000 0.32200  0.29240  0.84130  Biso   1.000  H
  H58      1.0000 0.82200  0.20760  0.34130  Biso   1.000  H
  H59      1.0000 0.67800  0.70760  0.15870  Biso   1.000  H
  H60      1.0000 0.17800  0.79240  0.65870  Biso   1.000  H
  C45      1.0000 0.41590  0.29970  0.77400  Biso   1.000  C
  C46      1.0000 0.91590  0.20030  0.27400  Biso   1.000  C
  C47      1.0000 0.58410  0.70030  0.22600  Biso   1.000  C
  C48      1.0000 0.08410  0.79970  0.72600  Biso   1.000  C
  H61      1.0000 0.45570  0.24310  0.78510  Biso   1.000  H
  H62      1.0000 0.95570  0.25690  0.28510  Biso   1.000  H
  H63      1.0000 0.54430  0.75690  0.21490  Biso   1.000  H
  H64      1.0000 0.04430  0.74310  0.71490  Biso   1.000  H
  C49      1.0000 0.37790  0.42740  0.70980  Biso   1.000  C
  C50      1.0000 0.87790  0.07260  0.20980  Biso   1.000  C
  C51      1.0000 0.62210  0.57260  0.29020  Biso   1.000  C
  C52      1.0000 0.12210  0.92740  0.79020  Biso   1.000  C
  H65      1.0000 0.39130  0.46170  0.67560  Biso   1.000  H
  H66      1.0000 0.89130  0.03830  0.17560  Biso   1.000  H
  H67      1.0000 0.60870  0.53830  0.32440  Biso   1.000  H
  H68      1.0000 0.10870  0.96170  0.82440  Biso   1.000  H
  C53      1.0000 0.29590  0.45910  0.74100  Biso   1.000  C
  C54      1.0000 0.79590  0.04090  0.24100  Biso   1.000  C
  C55      1.0000 0.70410  0.54090  0.25900  Biso   1.000  C
  C56      1.0000 0.20410  0.95910  0.75900  Biso   1.000  C
  H69      1.0000 0.25480  0.51350  0.72780  Biso   1.000  H
  H70      1.0000 0.75480  0.98650  0.22780  Biso   1.000  H
  H71      1.0000 0.74520  0.48650  0.27220  Biso   1.000  H
  H72      1.0000 0.24520  0.01350  0.77220  Biso   1.000  H
  C57      1.0000 0.37260  0.24950  0.60790  Biso   1.000  C
  C58      1.0000 0.87260  0.25050  0.10790  Biso   1.000  C
  C59      1.0000 0.62740  0.75050  0.39210  Biso   1.000  C
  C60      1.0000 0.12740  0.74950  0.89210  Biso   1.000  C
  H73      1.0000 0.35550  0.21870  0.64260  Biso   1.000  H
  H74      1.0000 0.85550  0.28130  0.14260  Biso   1.000  H
  H75      1.0000 0.64450  0.78130  0.35740  Biso   1.000  H
  H76      1.0000 0.14450  0.71870  0.85740  Biso   1.000  H
  C61      1.0000 0.30280  0.24200  0.56120  Biso   1.000  C
  C62      1.0000 0.80280  0.25800  0.06120  Biso   1.000  C
  C63      1.0000 0.69720  0.75800  0.43880  Biso   1.000  C
  C64      1.0000 0.19720  0.74200  0.93880  Biso   1.000  C
  H77      1.0000 0.24020  0.20650  0.56440  Biso   1.000  H
  H78      1.0000 0.74020  0.29350  0.06440  Biso   1.000  H
  H79      1.0000 0.75980  0.79350  0.43560  Biso   1.000  H
  H80      1.0000 0.25980  0.70650  0.93560  Biso   1.000  H
  C65      1.0000 0.32580  0.28780  0.50890  Biso   1.000  C
  C66      1.0000 0.82580  0.21220  0.00890  Biso   1.000  C
  C67      1.0000 0.67420  0.71220  0.49110  Biso   1.000  C
  C68      1.0000 0.17420  0.78780  0.99110  Biso   1.000  C
  C69      1.0000 0.42090  0.33830  0.50750  Biso   1.000  C
  C70      1.0000 0.92090  0.16170  0.00750  Biso   1.000  C
  C71      1.0000 0.57910  0.66170  0.49250  Biso   1.000  C
  C72      1.0000 0.07910  0.83830  0.99250  Biso   1.000  C
  H81      1.0000 0.43970  0.36990  0.47340  Biso   1.000  H
  H82      1.0000 0.93970  0.13010  0.97340  Biso   1.000  H
  H83      1.0000 0.56030  0.63010  0.52660  Biso   1.000  H
  H84      1.0000 0.06030  0.86990  0.02660  Biso   1.000  H
  C73      1.0000 0.48740  0.34210  0.55570  Biso   1.000  C
  C74      1.0000 0.98740  0.15790  0.05570  Biso   1.000  C
  C75      1.0000 0.51260  0.65790  0.44430  Biso   1.000  C
  C76      1.0000 0.01260  0.84210  0.94430  Biso   1.000  C
  H85      1.0000 0.55110  0.37600  0.55340  Biso   1.000  H
  H86      1.0000 0.05110  0.12400  0.05340  Biso   1.000  H
  H87      1.0000 0.44890  0.62400  0.44660  Biso   1.000  H
  H88      1.0000 0.94890  0.87600  0.94660  Biso   1.000  H
  C77      1.0000 0.25030  0.29010  0.45620  Biso   1.000  C
  C78      1.0000 0.75030  0.20990  0.95620  Biso   1.000  C
  C79      1.0000 0.74970  0.70990  0.54380  Biso   1.000  C
  C80      1.0000 0.24970  0.79010  0.04380  Biso   1.000  C
  C81      1.0000 0.08740  0.22430  0.41120  Biso   1.000  C
  C82      1.0000 0.58740  0.27570  0.91120  Biso   1.000  C
  C83      1.0000 0.91260  0.77570  0.58880  Biso   1.000  C
  C84      1.0000 0.41260  0.72430  0.08880  Biso   1.000  C
  H89      1.0000 0.05000  0.16010  0.41110  Biso   1.000  H
  H90      1.0000 0.55000  0.33990  0.91110  Biso   1.000  H
  H91      1.0000 0.95000  0.83990  0.58890  Biso   1.000  H
  H92      1.0000 0.45000  0.66010  0.08890  Biso   1.000  H
  H93      1.0000 0.11570  0.23350  0.37320  Biso   1.000  H
  H94      1.0000 0.61570  0.26650  0.87320  Biso   1.000  H
  H95      1.0000 0.88430  0.76650  0.62680  Biso   1.000  H
  H96      1.0000 0.38430  0.73350  0.12680  Biso   1.000  H
  C85      1.0000 0.01140  0.31090  0.42320  Biso   1.000  C
  C86      1.0000 0.51140  0.18910  0.92320  Biso   1.000  C
  C87      1.0000 0.98860  0.68910  0.57680  Biso   1.000  C
  C88      1.0000 0.48860  0.81090  0.07680  Biso   1.000  C
  H97      1.0000 0.04920  0.37480  0.42180  Biso   1.000  H
  H98      1.0000 0.54920  0.12520  0.92180  Biso   1.000  H
  H99      1.0000 0.95080  0.62520  0.57820  Biso   1.000  H
  H100     1.0000 0.45080  0.87480  0.07820  Biso   1.000  H
  H101     1.0000 0.95650  0.31210  0.39260  Biso   1.000  H
  H102     1.0000 0.45650  0.18790  0.89260  Biso   1.000  H
  H103     1.0000 0.04350  0.68790  0.60740  Biso   1.000  H
  H104     1.0000 0.54350  0.81210  0.10740  Biso   1.000  H
  C89      1.0000 0.88660  0.23760  0.48750  Biso   1.000  C
  C90      1.0000 0.38660  0.26240  0.98750  Biso   1.000  C
  C91      1.0000 0.11340  0.76240  0.51250  Biso   1.000  C
  C92      1.0000 0.61340  0.73760  0.01250  Biso   1.000  C
  C93      1.0000 0.82600  0.25140  0.54140  Biso   1.000  C
  C94      1.0000 0.32600  0.24860  0.04140  Biso   1.000  C
  C95      1.0000 0.17400  0.74860  0.45860  Biso   1.000  C
  C96      1.0000 0.67400  0.75140  0.95860  Biso   1.000  C
  C97      1.0000 0.75790  0.17570  0.55670  Biso   1.000  C
  C98      1.0000 0.25790  0.32430  0.05670  Biso   1.000  C
  C99      1.0000 0.24210  0.82430  0.44330  Biso   1.000  C
  C100     1.0000 0.74210  0.67570  0.94330  Biso   1.000  C
  H105     1.0000 0.75870  0.11310  0.53800  Biso   1.000  H
  H106     1.0000 0.25870  0.38690  0.03800  Biso   1.000  H
  H107     1.0000 0.24130  0.88690  0.46200  Biso   1.000  H
  H108     1.0000 0.74130  0.61310  0.96200  Biso   1.000  H
  C101     1.0000 0.68970  0.19320  0.59920  Biso   1.000  C
  C102     1.0000 0.18970  0.30680  0.09920  Biso   1.000  C
  C103     1.0000 0.31030  0.80680  0.40080  Biso   1.000  C
  C104     1.0000 0.81030  0.69320  0.90080  Biso   1.000  C
  H109     1.0000 0.64400  0.14140  0.60900  Biso   1.000  H
  H110     1.0000 0.14400  0.35860  0.10900  Biso   1.000  H
  H111     1.0000 0.35600  0.85860  0.39100  Biso   1.000  H
  H112     1.0000 0.85600  0.64140  0.89100  Biso   1.000  H
  C105     1.0000 0.75520  0.35250  0.61600  Biso   1.000  C
  C106     1.0000 0.25520  0.14750  0.11600  Biso   1.000  C
  C107     1.0000 0.24480  0.64750  0.38400  Biso   1.000  C
  C108     1.0000 0.74480  0.85250  0.88400  Biso   1.000  C
  H113     1.0000 0.75730  0.41200  0.63780  Biso   1.000  H
  H114     1.0000 0.25730  0.08800  0.13780  Biso   1.000  H
  H115     1.0000 0.24270  0.58800  0.36220  Biso   1.000  H
  H116     1.0000 0.74270  0.91200  0.86220  Biso   1.000  H
  C109     1.0000 0.82340  0.34030  0.57340  Biso   1.000  C
  C110     1.0000 0.32340  0.15970  0.07340  Biso   1.000  C
  C111     1.0000 0.17660  0.65970  0.42660  Biso   1.000  C
  C112     1.0000 0.67660  0.84030  0.92660  Biso   1.000  C
  H117     1.0000 0.86950  0.39280  0.56530  Biso   1.000  H
  H118     1.0000 0.36950  0.10720  0.06530  Biso   1.000  H
  H119     1.0000 0.13050  0.60720  0.43470  Biso   1.000  H
  H120     1.0000 0.63050  0.89280  0.93470  Biso   1.000  H
  Cl1      1.0000 0.69060  0.41480  0.42429  Biso   1.000  Cl
  Cl2      1.0000 0.19060  0.08520  0.92429  Biso   1.000  Cl
  Cl3      1.0000 0.30940  0.58520  0.57571  Biso   1.000  Cl
  Cl4      1.0000 0.80940  0.91480  0.07571  Biso   1.000  Cl
  O21      1.0000 0.75380  0.47710  0.46700  Biso   1.000  O
  O22      1.0000 0.25380  0.02290  0.96700  Biso   1.000  O
  O23      1.0000 0.24620  0.52290  0.53300  Biso   1.000  O
  O24      1.0000 0.74620  0.97710  0.03300  Biso   1.000  O
  O25      1.0000 0.66990  0.33750  0.45740  Biso   1.000  O
  O26      1.0000 0.16990  0.16250  0.95740  Biso   1.000  O
  O27      1.0000 0.33010  0.66250  0.54260  Biso   1.000  O
  O28      1.0000 0.83010  0.83750  0.04260  Biso   1.000  O
  O29      1.0000 0.58480  0.44180  0.41090  Biso   1.000  O
  O30      1.0000 0.08480  0.05820  0.91090  Biso   1.000  O
  O31      1.0000 0.41520  0.55820  0.58910  Biso   1.000  O
  O32      1.0000 0.91520  0.94180  0.08910  Biso   1.000  O
  O33      1.0000 0.75220  0.39630  0.37960  Biso   1.000  O
  O34      1.0000 0.25220  0.10370  0.87960  Biso   1.000  O
  O35      1.0000 0.24780  0.60370  0.62040  Biso   1.000  O
  O36      1.0000 0.74780  0.89630  0.12040  Biso   1.000  O
  Cl5      1.0000 0.04090  0.15910  0.66378  Biso   1.000  Cl
  Cl6      1.0000 0.54090  0.34090  0.16378  Biso   1.000  Cl
  Cl7      1.0000 0.95910  0.84090  0.33622  Biso   1.000  Cl
  Cl8      1.0000 0.45910  0.65910  0.83622  Biso   1.000  Cl
  O37      1.0000 0.04820  0.21610  0.61170  Biso   1.000  O
  O38      1.0000 0.54820  0.28390  0.11170  Biso   1.000  O
  O39      1.0000 0.95180  0.78390  0.38830  Biso   1.000  O
  O40      1.0000 0.45180  0.71610  0.88830  Biso   1.000  O
  O41      1.0000 0.02430  0.05590  0.64850  Biso   1.000  O
  O42      1.0000 0.52430  0.44410  0.14850  Biso   1.000  O
  O43      1.0000 0.97570  0.94410  0.35150  Biso   1.000  O
  O44      1.0000 0.47570  0.55590  0.85150  Biso   1.000  O
  O45      1.0000 0.96010  0.19240  0.69220  Biso   1.000  O
  O46      1.0000 0.46010  0.30760  0.19220  Biso   1.000  O
  O47      1.0000 0.03990  0.80760  0.30780  Biso   1.000  O
  O48      1.0000 0.53990  0.69240  0.80780  Biso   1.000  O
  O49      1.0000 0.13320  0.17080  0.69250  Biso   1.000  O
  O50      1.0000 0.63320  0.32920  0.19250  Biso   1.000  O
  O51      1.0000 0.86680  0.82920  0.30750  Biso   1.000  O
  O52      1.0000 0.36680  0.67080  0.80750  Biso   1.000  O
  O53      1.0000 0.89050  0.94850  0.47510  Biso   1.000  O
  O54      1.0000 0.39050  0.55150  0.97510  Biso   1.000  O
  O55      1.0000 0.10950  0.05150  0.52490  Biso   1.000  O
  O56      1.0000 0.60950  0.44850  0.02490  Biso   1.000  O
  O57      1.0000 0.99210  0.56510  0.30860  Biso   1.000  O
  O58      1.0000 0.49210  0.93490  0.80860  Biso   1.000  O
  O59      1.0000 0.00790  0.43490  0.69140  Biso   1.000  O
  O60      1.0000 0.50790  0.06510  0.19140  Biso   1.000  O
  O61      1.0000 0.56860  0.29290  0.31990  Biso   1.000  O
  O62      1.0000 0.06860  0.20710  0.81990  Biso   1.000  O
  O63      1.0000 0.43140  0.70710  0.68010  Biso   1.000  O
  O64      1.0000 0.93140  0.79290  0.18010  Biso   1.000  O
  O65      1.0000 0.14960  0.42620  0.30990  Biso   1.000  O
  O66      1.0000 0.64960  0.07380  0.80990  Biso   1.000  O
  O67      1.0000 0.85040  0.57380  0.69010  Biso   1.000  O
  O68      1.0000 0.35040  0.92620  0.19010  Biso   1.000  O
  O69      1.0000 0.06520  0.43630  0.56690  Biso   1.000  O
  O70      1.0000 0.56520  0.06370  0.06690  Biso   1.000  O
  O71      1.0000 0.93480  0.56370  0.43310  Biso   1.000  O
  O72      1.0000 0.43480  0.93630  0.93310  Biso   1.000  O
  O73      1.0000 0.91120  0.01950  0.85040  Biso   1.000  O
  O74      1.0000 0.41120  0.48050  0.35040  Biso   1.000  O
  O75      1.0000 0.08880  0.98050  0.14960  Biso   1.000  O
  O76      1.0000 0.58880  0.51950  0.64960  Biso   1.000  O
