data_image0
_cell_length_a       16.88
_cell_length_b       9.483
_cell_length_c       22.044
_cell_angle_alpha    90
_cell_angle_beta     90
_cell_angle_gamma    90

_symmetry_space_group_name_H-M    "P 1"
_symmetry_int_tables_number       1

loop_
  _symmetry_equiv_pos_as_xyz
  'x, y, z'

loop_
  _atom_site_label
  _atom_site_occupancy
  _atom_site_fract_x
  _atom_site_fract_y
  _atom_site_fract_z
  _atom_site_thermal_displace_type
  _atom_site_B_iso_or_equiv
  _atom_site_type_symbol
  Cu1      1.0000 0.86110  0.30105  0.49997  Biso   1.000  Cu
  Cu2      1.0000 0.13890  0.69895  0.99997  Biso   1.000  Cu
  Cu3      1.0000 0.36110  0.69895  0.49997  Biso   1.000  Cu
  Cu4      1.0000 0.63890  0.30105  0.99997  Biso   1.000  Cu
  N1       1.0000 0.79800  0.22300  0.42970  Biso   1.000  N
  N2       1.0000 0.20200  0.77700  0.92970  Biso   1.000  N
  N3       1.0000 0.29800  0.77700  0.42970  Biso   1.000  N
  N4       1.0000 0.70200  0.22300  0.92970  Biso   1.000  N
  C1       1.0000 0.77410  0.07200  0.44540  Biso   1.000  C
  C2       1.0000 0.22590  0.92800  0.94540  Biso   1.000  C
  C3       1.0000 0.27410  0.92800  0.44540  Biso   1.000  C
  C4       1.0000 0.72590  0.07200  0.94540  Biso   1.000  C
  H1       1.0000 0.77980  0.03470  0.48420  Biso   1.000  H
  H2       1.0000 0.22020  0.96530  0.98420  Biso   1.000  H
  H3       1.0000 0.27980  0.96530  0.48420  Biso   1.000  H
  H4       1.0000 0.72020  0.03470  0.98420  Biso   1.000  H
  C5       1.0000 0.74010  0.98700  0.39260  Biso   1.000  C
  C6       1.0000 0.25990  0.01300  0.89260  Biso   1.000  C
  C7       1.0000 0.24010  0.01300  0.39260  Biso   1.000  C
  C8       1.0000 0.75990  0.98700  0.89260  Biso   1.000  C
  H5       1.0000 0.74330  0.88960  0.38870  Biso   1.000  H
  H6       1.0000 0.25670  0.11040  0.88870  Biso   1.000  H
  H7       1.0000 0.24330  0.11040  0.38870  Biso   1.000  H
  H8       1.0000 0.75670  0.88960  0.88870  Biso   1.000  H
  C9       1.0000 0.70050  0.08400  0.34790  Biso   1.000  C
  C10      1.0000 0.29950  0.91600  0.84790  Biso   1.000  C
  C11      1.0000 0.20050  0.91600  0.34790  Biso   1.000  C
  C12      1.0000 0.79950  0.08400  0.84790  Biso   1.000  C
  C13      1.0000 0.71390  0.21300  0.35040  Biso   1.000  C
  C14      1.0000 0.28610  0.78700  0.85040  Biso   1.000  C
  C15      1.0000 0.21390  0.78700  0.35040  Biso   1.000  C
  C16      1.0000 0.78610  0.21300  0.85040  Biso   1.000  C
  H9       1.0000 0.68850  0.27060  0.32220  Biso   1.000  H
  H10      1.0000 0.31150  0.72940  0.82220  Biso   1.000  H
  H11      1.0000 0.18850  0.72940  0.32220  Biso   1.000  H
  H12      1.0000 0.81150  0.27060  0.82220  Biso   1.000  H
  C17      1.0000 0.76410  0.28000  0.39250  Biso   1.000  C
  C18      1.0000 0.23590  0.72000  0.89250  Biso   1.000  C
  C19      1.0000 0.26410  0.72000  0.39250  Biso   1.000  C
  C20      1.0000 0.73590  0.28000  0.89250  Biso   1.000  C
  H13      1.0000 0.77010  0.37730  0.38970  Biso   1.000  H
  H14      1.0000 0.22990  0.62270  0.88970  Biso   1.000  H
  H15      1.0000 0.27010  0.62270  0.38970  Biso   1.000  H
  H16      1.0000 0.72990  0.37730  0.88970  Biso   1.000  H
  N5       1.0000 0.79420  0.20500  0.44270  Biso   1.000  N
  N6       1.0000 0.20580  0.79500  0.94270  Biso   1.000  N
  N7       1.0000 0.29420  0.79500  0.44270  Biso   1.000  N
  N8       1.0000 0.70580  0.20500  0.94270  Biso   1.000  N
  C21      1.0000 0.81900  0.15400  0.39340  Biso   1.000  C
  C22      1.0000 0.18100  0.84600  0.89340  Biso   1.000  C
  C23      1.0000 0.31900  0.84600  0.39340  Biso   1.000  C
  C24      1.0000 0.68100  0.15400  0.89340  Biso   1.000  C
  H17      1.0000 0.87180  0.17400  0.38480  Biso   1.000  H
  H18      1.0000 0.12820  0.82600  0.88480  Biso   1.000  H
  H19      1.0000 0.37180  0.82600  0.38480  Biso   1.000  H
  H20      1.0000 0.62820  0.17400  0.88480  Biso   1.000  H
  C25      1.0000 0.77960  0.07200  0.34900  Biso   1.000  C
  C26      1.0000 0.22040  0.92800  0.84900  Biso   1.000  C
  C27      1.0000 0.27960  0.92800  0.34900  Biso   1.000  C
  C28      1.0000 0.72040  0.07200  0.84900  Biso   1.000  C
  H21      1.0000 0.80320  0.02830  0.31590  Biso   1.000  H
  H22      1.0000 0.19680  0.97170  0.81590  Biso   1.000  H
  H23      1.0000 0.30320  0.97170  0.31590  Biso   1.000  H
  H24      1.0000 0.69680  0.02830  0.81590  Biso   1.000  H
  C29      1.0000 0.69500  0.06900  0.36420  Biso   1.000  C
  C30      1.0000 0.30500  0.93100  0.86420  Biso   1.000  C
  C31      1.0000 0.19500  0.93100  0.36420  Biso   1.000  C
  C32      1.0000 0.80500  0.06900  0.86420  Biso   1.000  C
  C33      1.0000 0.66790  0.19100  0.38650  Biso   1.000  C
  C34      1.0000 0.33210  0.80900  0.88650  Biso   1.000  C
  C35      1.0000 0.16790  0.80900  0.38650  Biso   1.000  C
  C36      1.0000 0.83210  0.19100  0.88650  Biso   1.000  C
  H25      1.0000 0.62410  0.23480  0.36930  Biso   1.000  H
  H26      1.0000 0.37590  0.76520  0.86930  Biso   1.000  H
  H27      1.0000 0.12410  0.76520  0.36930  Biso   1.000  H
  H28      1.0000 0.87590  0.23480  0.86930  Biso   1.000  H
  C37      1.0000 0.70830  0.25100  0.43760  Biso   1.000  C
  C38      1.0000 0.29170  0.74900  0.93760  Biso   1.000  C
  C39      1.0000 0.20830  0.74900  0.43760  Biso   1.000  C
  C40      1.0000 0.79170  0.25100  0.93760  Biso   1.000  C
  H29      1.0000 0.68410  0.31200  0.46490  Biso   1.000  H
  H30      1.0000 0.31590  0.68800  0.96490  Biso   1.000  H
  H31      1.0000 0.18410  0.68800  0.46490  Biso   1.000  H
  H32      1.0000 0.81590  0.31200  0.96490  Biso   1.000  H
  C41      1.0000 0.64680  0.00280  0.30390  Biso   1.000  C
  C42      1.0000 0.35320  0.99720  0.80390  Biso   1.000  C
  C43      1.0000 0.14680  0.99720  0.30390  Biso   1.000  C
  C44      1.0000 0.85320  0.00280  0.80390  Biso   1.000  C
  O1       1.0000 0.65730  0.87050  0.29670  Biso   1.000  O
  O2       1.0000 0.34270  0.12950  0.79670  Biso   1.000  O
  O3       1.0000 0.15730  0.12950  0.29670  Biso   1.000  O
  O4       1.0000 0.84270  0.87050  0.79670  Biso   1.000  O
  O5       1.0000 0.34130  0.11850  0.20110  Biso   1.000  O
  O6       1.0000 0.65870  0.88150  0.70110  Biso   1.000  O
  O7       1.0000 0.84130  0.88150  0.20110  Biso   1.000  O
  O8       1.0000 0.15870  0.11850  0.70110  Biso   1.000  O
  N9       1.0000 0.59430  0.07650  0.28000  Biso   1.000  N
  N10      1.0000 0.40570  0.92350  0.78000  Biso   1.000  N
  N11      1.0000 0.09430  0.92350  0.28000  Biso   1.000  N
  N12      1.0000 0.90570  0.07650  0.78000  Biso   1.000  N
  H33      1.0000 0.58910  0.16330  0.29070  Biso   1.000  H
  H34      1.0000 0.41090  0.83670  0.79070  Biso   1.000  H
  H35      1.0000 0.08910  0.83670  0.29070  Biso   1.000  H
  H36      1.0000 0.91090  0.16330  0.79070  Biso   1.000  H
  N13      1.0000 0.40310  0.92270  0.22640  Biso   1.000  N
  N14      1.0000 0.59690  0.07730  0.72640  Biso   1.000  N
  N15      1.0000 0.90310  0.07730  0.22640  Biso   1.000  N
  N16      1.0000 0.09690  0.92270  0.72640  Biso   1.000  N
  H37      1.0000 0.40060  0.83220  0.22460  Biso   1.000  H
  H38      1.0000 0.59940  0.16780  0.72460  Biso   1.000  H
  H39      1.0000 0.90060  0.16780  0.22460  Biso   1.000  H
  H40      1.0000 0.09940  0.83220  0.72460  Biso   1.000  H
  C45      1.0000 0.54240  0.01870  0.23500  Biso   1.000  C
  C46      1.0000 0.45760  0.98130  0.73500  Biso   1.000  C
  C47      1.0000 0.04240  0.98130  0.23500  Biso   1.000  C
  C48      1.0000 0.95760  0.01870  0.73500  Biso   1.000  C
  H41      1.0000 0.56500  0.93360  0.21790  Biso   1.000  H
  H42      1.0000 0.43500  0.06640  0.71790  Biso   1.000  H
  H43      1.0000 0.06500  0.06640  0.21790  Biso   1.000  H
  H44      1.0000 0.93500  0.93360  0.71790  Biso   1.000  H
  H45      1.0000 0.53390  0.08610  0.20260  Biso   1.000  H
  H46      1.0000 0.46610  0.91390  0.70260  Biso   1.000  H
  H47      1.0000 0.03390  0.91390  0.20260  Biso   1.000  H
  H48      1.0000 0.96610  0.08610  0.70260  Biso   1.000  H
  C49      1.0000 0.46690  0.98670  0.26590  Biso   1.000  C
  C50      1.0000 0.53310  0.01330  0.76590  Biso   1.000  C
  C51      1.0000 0.96690  0.01330  0.26590  Biso   1.000  C
  C52      1.0000 0.03310  0.98670  0.76590  Biso   1.000  C
  H49      1.0000 0.44650  0.07330  0.28330  Biso   1.000  H
  H50      1.0000 0.55350  0.92670  0.78330  Biso   1.000  H
  H51      1.0000 0.94650  0.92670  0.28330  Biso   1.000  H
  H52      1.0000 0.05350  0.07330  0.78330  Biso   1.000  H
  H53      1.0000 0.47770  0.92240  0.29910  Biso   1.000  H
  H54      1.0000 0.52230  0.07760  0.79910  Biso   1.000  H
  H55      1.0000 0.97770  0.07760  0.29910  Biso   1.000  H
  H56      1.0000 0.02230  0.92240  0.79910  Biso   1.000  H
  C53      1.0000 0.34920  0.99780  0.19340  Biso   1.000  C
  C54      1.0000 0.65080  0.00220  0.69340  Biso   1.000  C
  C55      1.0000 0.84920  0.00220  0.19340  Biso   1.000  C
  C56      1.0000 0.15080  0.99780  0.69340  Biso   1.000  C
  C57      1.0000 0.29410  0.93500  0.15210  Biso   1.000  C
  C58      1.0000 0.70590  0.06500  0.65210  Biso   1.000  C
  C59      1.0000 0.79410  0.06500  0.15210  Biso   1.000  C
  C60      1.0000 0.20590  0.93500  0.65210  Biso   1.000  C
  C61      1.0000 0.33560  0.82400  0.10560  Biso   1.000  C
  C62      1.0000 0.66440  0.17600  0.60560  Biso   1.000  C
  C63      1.0000 0.83560  0.17600  0.10560  Biso   1.000  C
  C64      1.0000 0.16440  0.82400  0.60560  Biso   1.000  C
  H57      1.0000 0.39020  0.81400  0.10230  Biso   1.000  H
  H58      1.0000 0.60980  0.18600  0.60230  Biso   1.000  H
  H59      1.0000 0.89020  0.18600  0.10230  Biso   1.000  H
  H60      1.0000 0.10980  0.81400  0.60230  Biso   1.000  H
  C65      1.0000 0.28250  0.74780  0.07180  Biso   1.000  C
  C66      1.0000 0.71750  0.25220  0.57180  Biso   1.000  C
  C67      1.0000 0.78250  0.25220  0.07180  Biso   1.000  C
  C68      1.0000 0.21750  0.74780  0.57180  Biso   1.000  C
  H61      1.0000 0.29460  0.66070  0.05470  Biso   1.000  H
  H62      1.0000 0.70540  0.33930  0.55470  Biso   1.000  H
  H63      1.0000 0.79460  0.33930  0.05470  Biso   1.000  H
  H64      1.0000 0.20540  0.66070  0.55470  Biso   1.000  H
  N17      1.0000 0.20300  0.81790  0.06500  Biso   1.000  N
  N18      1.0000 0.79700  0.18210  0.56500  Biso   1.000  N
  N19      1.0000 0.70300  0.18210  0.06500  Biso   1.000  N
  N20      1.0000 0.29700  0.81790  0.56500  Biso   1.000  N
  C69      1.0000 0.17820  0.88430  0.10260  Biso   1.000  C
  C70      1.0000 0.82180  0.11570  0.60260  Biso   1.000  C
  C71      1.0000 0.67820  0.11570  0.10260  Biso   1.000  C
  C72      1.0000 0.32180  0.88430  0.60260  Biso   1.000  C
  H65      1.0000 0.12370  0.89310  0.10720  Biso   1.000  H
  H66      1.0000 0.87630  0.10690  0.60720  Biso   1.000  H
  H67      1.0000 0.62370  0.10690  0.10720  Biso   1.000  H
  H68      1.0000 0.37630  0.89310  0.60720  Biso   1.000  H
  C73      1.0000 0.22990  0.95410  0.14260  Biso   1.000  C
  C74      1.0000 0.77010  0.04590  0.64260  Biso   1.000  C
  C75      1.0000 0.72990  0.04590  0.14260  Biso   1.000  C
  C76      1.0000 0.27010  0.95410  0.64260  Biso   1.000  C
  H69      1.0000 0.20710  0.02740  0.16450  Biso   1.000  H
  H70      1.0000 0.79290  0.97260  0.66450  Biso   1.000  H
  H71      1.0000 0.70710  0.97260  0.16450  Biso   1.000  H
  H72      1.0000 0.29290  0.02740  0.66450  Biso   1.000  H
  C77      1.0000 0.30780  0.90800  0.14950  Biso   1.000  C
  C78      1.0000 0.69220  0.09200  0.64950  Biso   1.000  C
  C79      1.0000 0.80780  0.09200  0.14950  Biso   1.000  C
  C80      1.0000 0.19220  0.90800  0.64950  Biso   1.000  C
  C81      1.0000 0.27360  0.79050  0.15850  Biso   1.000  C
  C82      1.0000 0.72640  0.20950  0.65850  Biso   1.000  C
  C83      1.0000 0.77360  0.20950  0.15850  Biso   1.000  C
  C84      1.0000 0.22640  0.79050  0.65850  Biso   1.000  C
  H73      1.0000 0.28090  0.74110  0.19450  Biso   1.000  H
  H74      1.0000 0.71910  0.25890  0.69450  Biso   1.000  H
  H75      1.0000 0.78090  0.25890  0.19450  Biso   1.000  H
  H76      1.0000 0.21910  0.74110  0.69450  Biso   1.000  H
  C85      1.0000 0.22490  0.73800  0.11290  Biso   1.000  C
  C86      1.0000 0.77510  0.26200  0.61290  Biso   1.000  C
  C87      1.0000 0.72490  0.26200  0.11290  Biso   1.000  C
  C88      1.0000 0.27510  0.73800  0.61290  Biso   1.000  C
  H77      1.0000 0.19590  0.65980  0.12540  Biso   1.000  H
  H78      1.0000 0.80410  0.34020  0.62540  Biso   1.000  H
  H79      1.0000 0.69590  0.34020  0.12540  Biso   1.000  H
  H80      1.0000 0.30410  0.65980  0.62540  Biso   1.000  H
  N21      1.0000 0.21220  0.76800  0.06400  Biso   1.000  N
  N22      1.0000 0.78780  0.23200  0.56400  Biso   1.000  N
  N23      1.0000 0.71220  0.23200  0.06400  Biso   1.000  N
  N24      1.0000 0.28780  0.76800  0.56400  Biso   1.000  N
  C89      1.0000 0.21920  0.94300  0.06470  Biso   1.000  C
  C90      1.0000 0.78080  0.05700  0.56470  Biso   1.000  C
  C91      1.0000 0.71920  0.05700  0.06470  Biso   1.000  C
  C92      1.0000 0.28080  0.94300  0.56470  Biso   1.000  C
  H81      1.0000 0.18490  0.99840  0.04190  Biso   1.000  H
  H82      1.0000 0.81510  0.00160  0.54190  Biso   1.000  H
  H83      1.0000 0.68490  0.00160  0.04190  Biso   1.000  H
  H84      1.0000 0.31510  0.99840  0.54190  Biso   1.000  H
  C93      1.0000 0.27380  0.99900  0.09780  Biso   1.000  C
  C94      1.0000 0.72620  0.00100  0.59780  Biso   1.000  C
  C95      1.0000 0.77380  0.00100  0.09780  Biso   1.000  C
  C96      1.0000 0.22620  0.99900  0.59780  Biso   1.000  C
  H85      1.0000 0.29190  0.08970  0.09080  Biso   1.000  H
  H86      1.0000 0.70810  0.91030  0.59080  Biso   1.000  H
  H87      1.0000 0.79190  0.91030  0.09080  Biso   1.000  H
  H88      1.0000 0.20810  0.08970  0.59080  Biso   1.000  H
  O9       1.0000 0.08680  0.62560  0.72810  Biso   1.000  O
  O10      1.0000 0.91320  0.37440  0.22810  Biso   1.000  O
  O11      1.0000 0.58680  0.37440  0.72810  Biso   1.000  O
  O12      1.0000 0.41320  0.62560  0.22810  Biso   1.000  O
  O13      1.0000 0.41180  0.62630  0.77710  Biso   1.000  O
  O14      1.0000 0.58820  0.37370  0.27710  Biso   1.000  O
  O15      1.0000 0.91180  0.37370  0.77710  Biso   1.000  O
  O16      1.0000 0.08820  0.62630  0.27710  Biso   1.000  O
  N25      1.0000 0.93810  0.36300  0.56180  Biso   1.000  N
  N26      1.0000 0.06190  0.63700  0.06180  Biso   1.000  N
  N27      1.0000 0.43810  0.63700  0.56180  Biso   1.000  N
  N28      1.0000 0.56190  0.36300  0.06180  Biso   1.000  N
  C97      1.0000 0.95370  0.49400  0.57170  Biso   1.000  C
  C98      1.0000 0.04630  0.50600  0.07170  Biso   1.000  C
  C99      1.0000 0.45370  0.50600  0.57170  Biso   1.000  C
  C100     1.0000 0.54630  0.49400  0.07170  Biso   1.000  C
  H89      1.0000 0.93630  0.55460  0.54130  Biso   1.000  H
  H90      1.0000 0.06370  0.44540  0.04130  Biso   1.000  H
  H91      1.0000 0.43630  0.44540  0.54130  Biso   1.000  H
  H92      1.0000 0.56370  0.55460  0.04130  Biso   1.000  H
  C101     1.0000 0.99420  0.56600  0.62270  Biso   1.000  C
  C102     1.0000 0.00580  0.43400  0.12270  Biso   1.000  C
  C103     1.0000 0.49420  0.43400  0.62270  Biso   1.000  C
  C104     1.0000 0.50580  0.56600  0.12270  Biso   1.000  C
  H93      1.0000 0.99000  0.66270  0.63020  Biso   1.000  H
  H94      1.0000 0.01000  0.33730  0.13020  Biso   1.000  H
  H95      1.0000 0.49000  0.33730  0.63020  Biso   1.000  H
  H96      1.0000 0.51000  0.66270  0.13020  Biso   1.000  H
  C105     1.0000 0.03470  0.48400  0.65490  Biso   1.000  C
  C106     1.0000 0.96530  0.51600  0.15490  Biso   1.000  C
  C107     1.0000 0.53470  0.51600  0.65490  Biso   1.000  C
  C108     1.0000 0.46530  0.48400  0.15490  Biso   1.000  C
  C109     1.0000 0.03200  0.31600  0.63890  Biso   1.000  C
  C110     1.0000 0.96800  0.68400  0.13890  Biso   1.000  C
  C111     1.0000 0.53200  0.68400  0.63890  Biso   1.000  C
  C112     1.0000 0.46800  0.31600  0.13890  Biso   1.000  C
  H97      1.0000 0.06430  0.25020  0.65800  Biso   1.000  H
  H98      1.0000 0.93570  0.74980  0.15800  Biso   1.000  H
  H99      1.0000 0.56430  0.74980  0.65800  Biso   1.000  H
  H100     1.0000 0.43570  0.25020  0.15800  Biso   1.000  H
  C113     1.0000 0.98030  0.28100  0.59680  Biso   1.000  C
  C114     1.0000 0.01970  0.71900  0.09680  Biso   1.000  C
  C115     1.0000 0.48030  0.71900  0.59680  Biso   1.000  C
  C116     1.0000 0.51970  0.28100  0.09680  Biso   1.000  C
  H101     1.0000 0.97280  0.18510  0.59120  Biso   1.000  H
  H102     1.0000 0.02720  0.81490  0.09120  Biso   1.000  H
  H103     1.0000 0.47280  0.81490  0.59120  Biso   1.000  H
  H104     1.0000 0.52720  0.18510  0.09120  Biso   1.000  H
  N29      1.0000 0.56860  0.39600  0.06610  Biso   1.000  N
  N30      1.0000 0.43140  0.60400  0.56610  Biso   1.000  N
  N31      1.0000 0.06860  0.60400  0.06610  Biso   1.000  N
  N32      1.0000 0.93140  0.39600  0.56610  Biso   1.000  N
  C117     1.0000 0.57830  0.50460  0.09740  Biso   1.000  C
  C118     1.0000 0.42170  0.49540  0.59740  Biso   1.000  C
  C119     1.0000 0.07830  0.49540  0.09740  Biso   1.000  C
  C120     1.0000 0.92170  0.50460  0.59740  Biso   1.000  C
  H105     1.0000 0.61400  0.57470  0.08620  Biso   1.000  H
  H106     1.0000 0.38600  0.42530  0.58620  Biso   1.000  H
  H107     1.0000 0.11400  0.42530  0.08620  Biso   1.000  H
  H108     1.0000 0.88600  0.57470  0.58620  Biso   1.000  H
  C121     1.0000 0.53610  0.51400  0.14590  Biso   1.000  C
  C122     1.0000 0.46390  0.48600  0.64590  Biso   1.000  C
  C123     1.0000 0.03610  0.48600  0.14590  Biso   1.000  C
  C124     1.0000 0.96390  0.51400  0.64590  Biso   1.000  C
  H109     1.0000 0.55510  0.56430  0.17920  Biso   1.000  H
  H110     1.0000 0.44490  0.43570  0.67920  Biso   1.000  H
  H111     1.0000 0.05510  0.43570  0.17920  Biso   1.000  H
  H112     1.0000 0.94490  0.56430  0.67920  Biso   1.000  H
  C125     1.0000 0.45390  0.44300  0.14850  Biso   1.000  C
  C126     1.0000 0.54610  0.55700  0.64850  Biso   1.000  C
  C127     1.0000 0.95390  0.55700  0.14850  Biso   1.000  C
  C128     1.0000 0.04610  0.44300  0.64850  Biso   1.000  C
  C129     1.0000 0.44160  0.35100  0.11360  Biso   1.000  C
  C130     1.0000 0.55840  0.64900  0.61360  Biso   1.000  C
  C131     1.0000 0.94160  0.64900  0.11360  Biso   1.000  C
  C132     1.0000 0.05840  0.35100  0.61360  Biso   1.000  C
  H113     1.0000 0.39570  0.29930  0.12050  Biso   1.000  H
  H114     1.0000 0.60430  0.70070  0.62050  Biso   1.000  H
  H115     1.0000 0.89570  0.70070  0.12050  Biso   1.000  H
  H116     1.0000 0.10430  0.29930  0.62050  Biso   1.000  H
  C133     1.0000 0.48530  0.31000  0.06410  Biso   1.000  C
  C134     1.0000 0.51470  0.69000  0.56410  Biso   1.000  C
  C135     1.0000 0.98530  0.69000  0.06410  Biso   1.000  C
  C136     1.0000 0.01470  0.31000  0.56410  Biso   1.000  C
  H117     1.0000 0.47000  0.24520  0.03470  Biso   1.000  H
  H118     1.0000 0.53000  0.75480  0.53470  Biso   1.000  H
  H119     1.0000 0.97000  0.75480  0.03470  Biso   1.000  H
  H120     1.0000 0.03000  0.24520  0.53470  Biso   1.000  H
  N33      1.0000 0.15110  0.42120  0.71800  Biso   1.000  N
  N34      1.0000 0.84890  0.57880  0.21800  Biso   1.000  N
  N35      1.0000 0.65110  0.57880  0.71800  Biso   1.000  N
  N36      1.0000 0.34890  0.42120  0.21800  Biso   1.000  N
  H121     1.0000 0.15110  0.33950  0.70110  Biso   1.000  H
  H122     1.0000 0.84890  0.66050  0.20110  Biso   1.000  H
  H123     1.0000 0.65110  0.66050  0.70110  Biso   1.000  H
  H124     1.0000 0.34890  0.33950  0.20110  Biso   1.000  H
  N37      1.0000 0.35220  0.41410  0.78130  Biso   1.000  N
  N38      1.0000 0.64780  0.58590  0.28130  Biso   1.000  N
  N39      1.0000 0.85220  0.58590  0.78130  Biso   1.000  N
  N40      1.0000 0.14780  0.41410  0.28130  Biso   1.000  N
  H125     1.0000 0.35310  0.33420  0.79970  Biso   1.000  H
  H126     1.0000 0.64690  0.66580  0.29970  Biso   1.000  H
  H127     1.0000 0.85310  0.66580  0.79970  Biso   1.000  H
  H128     1.0000 0.14690  0.33420  0.29970  Biso   1.000  H
  C137     1.0000 0.09870  0.50820  0.70050  Biso   1.000  C
  C138     1.0000 0.90130  0.49180  0.20050  Biso   1.000  C
  C139     1.0000 0.59870  0.49180  0.70050  Biso   1.000  C
  C140     1.0000 0.40130  0.50820  0.20050  Biso   1.000  C
  C141     1.0000 0.20930  0.44620  0.76280  Biso   1.000  C
  C142     1.0000 0.79070  0.55380  0.26280  Biso   1.000  C
  C143     1.0000 0.70930  0.55380  0.76280  Biso   1.000  C
  C144     1.0000 0.29070  0.44620  0.26280  Biso   1.000  C
  H129     1.0000 0.20170  0.53900  0.78040  Biso   1.000  H
  H130     1.0000 0.79830  0.46100  0.28040  Biso   1.000  H
  H131     1.0000 0.70170  0.46100  0.78040  Biso   1.000  H
  H132     1.0000 0.29830  0.53900  0.28040  Biso   1.000  H
  H133     1.0000 0.20450  0.37690  0.79500  Biso   1.000  H
  H134     1.0000 0.79550  0.62310  0.29500  Biso   1.000  H
  H135     1.0000 0.70450  0.62310  0.79500  Biso   1.000  H
  H136     1.0000 0.29550  0.37690  0.29500  Biso   1.000  H
  C145     1.0000 0.29060  0.43690  0.73460  Biso   1.000  C
  C146     1.0000 0.70940  0.56310  0.23460  Biso   1.000  C
  C147     1.0000 0.79060  0.56310  0.73460  Biso   1.000  C
  C148     1.0000 0.20940  0.43690  0.23460  Biso   1.000  C
  H137     1.0000 0.30180  0.52340  0.71280  Biso   1.000  H
  H138     1.0000 0.69820  0.47660  0.21280  Biso   1.000  H
  H139     1.0000 0.80180  0.47660  0.71280  Biso   1.000  H
  H140     1.0000 0.19820  0.52340  0.21280  Biso   1.000  H
  H141     1.0000 0.29180  0.35970  0.70580  Biso   1.000  H
  H142     1.0000 0.70820  0.64030  0.20580  Biso   1.000  H
  H143     1.0000 0.79180  0.64030  0.70580  Biso   1.000  H
  H144     1.0000 0.20820  0.35970  0.20580  Biso   1.000  H
  C149     1.0000 0.40690  0.51110  0.79670  Biso   1.000  C
  C150     1.0000 0.59310  0.48890  0.29670  Biso   1.000  C
  C151     1.0000 0.90690  0.48890  0.79670  Biso   1.000  C
  C152     1.0000 0.09310  0.51110  0.29670  Biso   1.000  C
  C153     1.0000 0.46000  0.46200  0.84170  Biso   1.000  C
  C154     1.0000 0.54000  0.53800  0.34170  Biso   1.000  C
  C155     1.0000 0.96000  0.53800  0.84170  Biso   1.000  C
  C156     1.0000 0.04000  0.46200  0.34170  Biso   1.000  C
  C157     1.0000 0.48320  0.33300  0.84730  Biso   1.000  C
  C158     1.0000 0.51680  0.66700  0.34730  Biso   1.000  C
  C159     1.0000 0.98320  0.66700  0.84730  Biso   1.000  C
  C160     1.0000 0.01680  0.33300  0.34730  Biso   1.000  C
  H145     1.0000 0.46600  0.26670  0.81930  Biso   1.000  H
  H146     1.0000 0.53400  0.73330  0.31930  Biso   1.000  H
  H147     1.0000 0.96600  0.73330  0.81930  Biso   1.000  H
  H148     1.0000 0.03400  0.26670  0.31930  Biso   1.000  H
  C161     1.0000 0.53750  0.28800  0.89830  Biso   1.000  C
  C162     1.0000 0.46250  0.71200  0.39830  Biso   1.000  C
  C163     1.0000 0.03750  0.71200  0.89830  Biso   1.000  C
  C164     1.0000 0.96250  0.28800  0.39830  Biso   1.000  C
  H149     1.0000 0.54910  0.19310  0.90460  Biso   1.000  H
  H150     1.0000 0.45090  0.80690  0.40460  Biso   1.000  H
  H151     1.0000 0.04910  0.80690  0.90460  Biso   1.000  H
  H152     1.0000 0.95090  0.19310  0.40460  Biso   1.000  H
  N41      1.0000 0.57030  0.39400  0.93650  Biso   1.000  N
  N42      1.0000 0.42970  0.60600  0.43650  Biso   1.000  N
  N43      1.0000 0.07030  0.60600  0.93650  Biso   1.000  N
  N44      1.0000 0.92970  0.39400  0.43650  Biso   1.000  N
  C165     1.0000 0.55550  0.52150  0.92590  Biso   1.000  C
  C166     1.0000 0.44450  0.47850  0.42590  Biso   1.000  C
  C167     1.0000 0.05550  0.47850  0.92590  Biso   1.000  C
  C168     1.0000 0.94450  0.52150  0.42590  Biso   1.000  C
  H153     1.0000 0.58330  0.59250  0.94570  Biso   1.000  H
  H154     1.0000 0.41670  0.40750  0.44570  Biso   1.000  H
  H155     1.0000 0.08330  0.40750  0.94570  Biso   1.000  H
  H156     1.0000 0.91670  0.59250  0.44570  Biso   1.000  H
  C169     1.0000 0.49950  0.55300  0.88600  Biso   1.000  C
  C170     1.0000 0.50050  0.44700  0.38600  Biso   1.000  C
  C171     1.0000 0.99950  0.44700  0.88600  Biso   1.000  C
  C172     1.0000 0.00050  0.55300  0.38600  Biso   1.000  C
  H157     1.0000 0.48280  0.64680  0.88620  Biso   1.000  H
  H158     1.0000 0.51720  0.35320  0.38620  Biso   1.000  H
  H159     1.0000 0.98280  0.35320  0.88620  Biso   1.000  H
  H160     1.0000 0.01720  0.64680  0.38620  Biso   1.000  H
  C173     1.0000 0.03800  0.46400  0.35180  Biso   1.000  C
  C174     1.0000 0.96200  0.53600  0.85180  Biso   1.000  C
  C175     1.0000 0.53800  0.53600  0.35180  Biso   1.000  C
  C176     1.0000 0.46200  0.46400  0.85180  Biso   1.000  C
  C177     1.0000 0.97360  0.54100  0.35660  Biso   1.000  C
  C178     1.0000 0.02640  0.45900  0.85660  Biso   1.000  C
  C179     1.0000 0.47360  0.45900  0.35660  Biso   1.000  C
  C180     1.0000 0.52640  0.54100  0.85660  Biso   1.000  C
  H161     1.0000 0.96440  0.62780  0.33840  Biso   1.000  H
  H162     1.0000 0.03560  0.37220  0.83840  Biso   1.000  H
  H163     1.0000 0.46440  0.37220  0.33840  Biso   1.000  H
  H164     1.0000 0.53560  0.62780  0.83840  Biso   1.000  H
  C181     1.0000 0.91560  0.45900  0.39820  Biso   1.000  C
  C182     1.0000 0.08440  0.54100  0.89820  Biso   1.000  C
  C183     1.0000 0.41560  0.54100  0.39820  Biso   1.000  C
  C184     1.0000 0.58440  0.45900  0.89820  Biso   1.000  C
  H165     1.0000 0.86230  0.48330  0.39770  Biso   1.000  H
  H166     1.0000 0.13770  0.51670  0.89770  Biso   1.000  H
  H167     1.0000 0.36230  0.51670  0.39770  Biso   1.000  H
  H168     1.0000 0.63770  0.48330  0.89770  Biso   1.000  H
  N45      1.0000 0.93970  0.35100  0.43590  Biso   1.000  N
  N46      1.0000 0.06030  0.64900  0.93590  Biso   1.000  N
  N47      1.0000 0.43970  0.64900  0.43590  Biso   1.000  N
  N48      1.0000 0.56030  0.35100  0.93590  Biso   1.000  N
  C185     1.0000 0.00440  0.31700  0.43220  Biso   1.000  C
  C186     1.0000 0.99560  0.68300  0.93220  Biso   1.000  C
  C187     1.0000 0.50440  0.68300  0.43220  Biso   1.000  C
  C188     1.0000 0.49560  0.31700  0.93220  Biso   1.000  C
  H169     1.0000 0.01930  0.24440  0.45800  Biso   1.000  H
  H170     1.0000 0.98070  0.75560  0.95800  Biso   1.000  H
  H171     1.0000 0.51930  0.75560  0.45800  Biso   1.000  H
  H172     1.0000 0.48070  0.24440  0.95800  Biso   1.000  H
  C189     1.0000 0.06590  0.37000  0.39360  Biso   1.000  C
  C190     1.0000 0.93410  0.63000  0.89360  Biso   1.000  C
  C191     1.0000 0.56590  0.63000  0.39360  Biso   1.000  C
  C192     1.0000 0.43410  0.37000  0.89360  Biso   1.000  C
  H173     1.0000 0.11880  0.34330  0.39670  Biso   1.000  H
  H174     1.0000 0.88120  0.65670  0.89670  Biso   1.000  H
  H175     1.0000 0.61880  0.65670  0.39670  Biso   1.000  H
  H176     1.0000 0.38120  0.34330  0.89670  Biso   1.000  H
  O17      1.0000 0.78710  0.51320  0.50130  Biso   1.000  O
  O18      1.0000 0.21290  0.48680  0.00130  Biso   1.000  O
  O19      1.0000 0.28710  0.48680  0.50130  Biso   1.000  O
  O20      1.0000 0.71290  0.51320  0.00130  Biso   1.000  O
  Cl1      1.0000 0.72510  0.60110  0.47610  Biso   1.000  Cl
  Cl2      1.0000 0.27490  0.39890  0.97610  Biso   1.000  Cl
  Cl3      1.0000 0.22510  0.39890  0.47610  Biso   1.000  Cl
  Cl4      1.0000 0.77490  0.60110  0.97610  Biso   1.000  Cl
  O21      1.0000 0.71500  0.72680  0.51160  Biso   1.000  O
  O22      1.0000 0.28500  0.27320  0.01160  Biso   1.000  O
  O23      1.0000 0.21500  0.27320  0.51160  Biso   1.000  O
  O24      1.0000 0.78500  0.72680  0.01160  Biso   1.000  O
  O25      1.0000 0.65260  0.52000  0.47370  Biso   1.000  O
  O26      1.0000 0.34740  0.48000  0.97370  Biso   1.000  O
  O27      1.0000 0.15260  0.48000  0.47370  Biso   1.000  O
  O28      1.0000 0.84740  0.52000  0.97370  Biso   1.000  O
  O29      1.0000 0.74760  0.63080  0.41420  Biso   1.000  O
  O30      1.0000 0.25240  0.36920  0.91420  Biso   1.000  O
  O31      1.0000 0.24760  0.36920  0.41420  Biso   1.000  O
  O32      1.0000 0.75240  0.63080  0.91420  Biso   1.000  O
  Cl5      1.0000 0.73060  0.61820  0.52020  Biso   1.000  Cl
  Cl6      1.0000 0.26940  0.38180  0.02020  Biso   1.000  Cl
  Cl7      1.0000 0.23060  0.38180  0.52020  Biso   1.000  Cl
  Cl8      1.0000 0.76940  0.61820  0.02020  Biso   1.000  Cl
  O33      1.0000 0.74390  0.65300  0.58310  Biso   1.000  O
  O34      1.0000 0.25610  0.34700  0.08310  Biso   1.000  O
  O35      1.0000 0.24390  0.34700  0.58310  Biso   1.000  O
  O36      1.0000 0.75610  0.65300  0.08310  Biso   1.000  O
  O37      1.0000 0.65280  0.55800  0.51310  Biso   1.000  O
  O38      1.0000 0.34720  0.44200  0.01310  Biso   1.000  O
  O39      1.0000 0.15280  0.44200  0.51310  Biso   1.000  O
  O40      1.0000 0.84720  0.55800  0.01310  Biso   1.000  O
  O41      1.0000 0.73890  0.74230  0.48280  Biso   1.000  O
  O42      1.0000 0.26110  0.25770  0.98280  Biso   1.000  O
  O43      1.0000 0.23890  0.25770  0.48280  Biso   1.000  O
  O44      1.0000 0.76110  0.74230  0.98280  Biso   1.000  O
  O45      1.0000 0.94220  0.04430  0.50490  Biso   1.000  O
  O46      1.0000 0.05780  0.95570  0.00490  Biso   1.000  O
  O47      1.0000 0.44220  0.95570  0.50490  Biso   1.000  O
  O48      1.0000 0.55780  0.04430  0.00490  Biso   1.000  O
  Cl9      1.0000 0.99420  0.93260  0.48670  Biso   1.000  Cl
  Cl10     1.0000 0.00580  0.06740  0.98670  Biso   1.000  Cl
  Cl11     1.0000 0.49420  0.06740  0.48670  Biso   1.000  Cl
  Cl12     1.0000 0.50580  0.93260  0.98670  Biso   1.000  Cl
  O49      1.0000 0.97910  0.80320  0.51820  Biso   1.000  O
  O50      1.0000 0.02090  0.19680  0.01820  Biso   1.000  O
  O51      1.0000 0.47910  0.19680  0.51820  Biso   1.000  O
  O52      1.0000 0.52090  0.80320  0.01820  Biso   1.000  O
  O53      1.0000 0.07340  0.97980  0.50300  Biso   1.000  O
  O54      1.0000 0.92660  0.02020  0.00300  Biso   1.000  O
  O55      1.0000 0.57340  0.02020  0.50300  Biso   1.000  O
  O56      1.0000 0.42660  0.97980  0.00300  Biso   1.000  O
  O57      1.0000 0.98930  0.91270  0.42140  Biso   1.000  O
  O58      1.0000 0.01070  0.08730  0.92140  Biso   1.000  O
  O59      1.0000 0.48930  0.08730  0.42140  Biso   1.000  O
  O60      1.0000 0.51070  0.91270  0.92140  Biso   1.000  O
