data_image0
_cell_length_a       11.436
_cell_length_b       10.719
_cell_length_c       17.046
_cell_angle_alpha    90
_cell_angle_beta     104.726
_cell_angle_gamma    90

_symmetry_space_group_name_H-M    "P 1"
_symmetry_int_tables_number       1

loop_
  _symmetry_equiv_pos_as_xyz
  'x, y, z'

loop_
  _atom_site_label
  _atom_site_occupancy
  _atom_site_fract_x
  _atom_site_fract_y
  _atom_site_fract_z
  _atom_site_thermal_displace_type
  _atom_site_B_iso_or_equiv
  _atom_site_type_symbol
  C1       1.0000 0.71460  0.67770  0.13591  Biso   1.000  C
  C2       1.0000 0.21460  0.32230  0.63591  Biso   1.000  C
  C3       1.0000 0.28540  0.32230  0.86409  Biso   1.000  C
  C4       1.0000 0.78540  0.67770  0.36409  Biso   1.000  C
  C5       1.0000 0.65016  0.59060  0.16536  Biso   1.000  C
  C6       1.0000 0.15016  0.40940  0.66536  Biso   1.000  C
  C7       1.0000 0.34984  0.40940  0.83464  Biso   1.000  C
  C8       1.0000 0.84984  0.59060  0.33464  Biso   1.000  C
  C9       1.0000 0.52340  0.61240  0.13967  Biso   1.000  C
  C10      1.0000 0.02340  0.38760  0.63967  Biso   1.000  C
  C11      1.0000 0.47660  0.38760  0.86033  Biso   1.000  C
  C12      1.0000 0.97660  0.61240  0.36033  Biso   1.000  C
  H1       1.0000 0.46690  0.56040  0.15370  Biso   1.000  H
  H2       1.0000 0.96690  0.43960  0.65370  Biso   1.000  H
  H3       1.0000 0.53310  0.43960  0.84630  Biso   1.000  H
  H4       1.0000 0.03310  0.56040  0.34630  Biso   1.000  H
  C13      1.0000 0.49220  0.71530  0.09310  Biso   1.000  C
  C14      1.0000 0.99220  0.28470  0.59310  Biso   1.000  C
  C15      1.0000 0.50780  0.28470  0.90690  Biso   1.000  C
  C16      1.0000 0.00780  0.71530  0.40690  Biso   1.000  C
  C17      1.0000 0.84880  0.68680  0.14670  Biso   1.000  C
  C18      1.0000 0.34880  0.31320  0.64670  Biso   1.000  C
  C19      1.0000 0.15120  0.31320  0.85330  Biso   1.000  C
  C20      1.0000 0.65120  0.68680  0.35330  Biso   1.000  C
  H5       1.0000 0.88490  0.72780  0.19710  Biso   1.000  H
  H6       1.0000 0.38490  0.27220  0.69710  Biso   1.000  H
  H7       1.0000 0.11510  0.27220  0.80290  Biso   1.000  H
  H8       1.0000 0.61510  0.72780  0.30290  Biso   1.000  H
  H9       1.0000 0.86500  0.73380  0.10270  Biso   1.000  H
  H10      1.0000 0.36500  0.26620  0.60270  Biso   1.000  H
  H11      1.0000 0.13500  0.26620  0.89730  Biso   1.000  H
  H12      1.0000 0.63500  0.73380  0.39730  Biso   1.000  H
  H13      1.0000 0.88210  0.60450  0.14720  Biso   1.000  H
  H14      1.0000 0.38210  0.39550  0.64720  Biso   1.000  H
  H15      1.0000 0.11790  0.39550  0.85280  Biso   1.000  H
  H16      1.0000 0.61790  0.60450  0.35280  Biso   1.000  H
  S1       1.0000 0.62038  0.78561  0.07803  Biso   1.000  S
  S2       1.0000 0.12038  0.21439  0.57803  Biso   1.000  S
  S3       1.0000 0.37962  0.21439  0.92197  Biso   1.000  S
  S4       1.0000 0.87962  0.78561  0.42197  Biso   1.000  S
  C21      1.0000 0.70570  0.48560  0.21581  Biso   1.000  C
  C22      1.0000 0.20570  0.51440  0.71581  Biso   1.000  C
  C23      1.0000 0.29430  0.51440  0.78419  Biso   1.000  C
  C24      1.0000 0.79430  0.48560  0.28419  Biso   1.000  C
  C25      1.0000 0.65310  0.35220  0.19240  Biso   1.000  C
  C26      1.0000 0.15310  0.64780  0.69240  Biso   1.000  C
  C27      1.0000 0.34690  0.64780  0.80760  Biso   1.000  C
  C28      1.0000 0.84690  0.35220  0.30760  Biso   1.000  C
  F1       1.0000 0.54820  0.33930  0.21370  Biso   1.000  F
  F2       1.0000 0.04820  0.66070  0.71370  Biso   1.000  F
  F3       1.0000 0.45180  0.66070  0.78630  Biso   1.000  F
  F4       1.0000 0.95180  0.33930  0.28630  Biso   1.000  F
  F5       1.0000 0.63200  0.33180  0.11630  Biso   1.000  F
  F6       1.0000 0.13200  0.66820  0.61630  Biso   1.000  F
  F7       1.0000 0.36800  0.66820  0.88370  Biso   1.000  F
  F8       1.0000 0.86800  0.33180  0.38370  Biso   1.000  F
  C29      1.0000 0.68970  0.36100  0.18600  Biso   1.000  C
  C30      1.0000 0.18970  0.63900  0.68600  Biso   1.000  C
  C31      1.0000 0.31030  0.63900  0.81400  Biso   1.000  C
  C32      1.0000 0.81030  0.36100  0.31400  Biso   1.000  C
  F9       1.0000 0.72800  0.33350  0.11930  Biso   1.000  F
  F10      1.0000 0.22800  0.66650  0.61930  Biso   1.000  F
  F11      1.0000 0.27200  0.66650  0.88070  Biso   1.000  F
  F12      1.0000 0.77200  0.33350  0.38070  Biso   1.000  F
  F13      1.0000 0.56630  0.32900  0.16140  Biso   1.000  F
  F14      1.0000 0.06630  0.67100  0.66140  Biso   1.000  F
  F15      1.0000 0.43370  0.67100  0.83860  Biso   1.000  F
  F16      1.0000 0.93370  0.32900  0.33860  Biso   1.000  F
  C33      1.0000 0.73250  0.27120  0.24900  Biso   1.000  C
  C34      1.0000 0.23250  0.72880  0.74900  Biso   1.000  C
  C35      1.0000 0.26750  0.72880  0.75100  Biso   1.000  C
  C36      1.0000 0.76750  0.27120  0.25100  Biso   1.000  C
  F17      1.0000 0.67270  0.23760  0.30060  Biso   1.000  F
  F18      1.0000 0.17270  0.76240  0.80060  Biso   1.000  F
  F19      1.0000 0.32730  0.76240  0.69940  Biso   1.000  F
  F20      1.0000 0.82730  0.23760  0.19940  Biso   1.000  F
  F21      1.0000 0.78710  0.16720  0.22840  Biso   1.000  F
  F22      1.0000 0.28710  0.83280  0.72840  Biso   1.000  F
  F23      1.0000 0.21290  0.83280  0.77160  Biso   1.000  F
  F24      1.0000 0.71290  0.16720  0.27160  Biso   1.000  F
  C37      1.0000 0.37390  0.77330  0.06320  Biso   1.000  C
  C38      1.0000 0.87390  0.22670  0.56320  Biso   1.000  C
  C39      1.0000 0.62610  0.22670  0.93680  Biso   1.000  C
  C40      1.0000 0.12610  0.77330  0.43680  Biso   1.000  C
  C41      1.0000 0.27340  0.73080  0.08688  Biso   1.000  C
  C42      1.0000 0.77340  0.26920  0.58688  Biso   1.000  C
  C43      1.0000 0.72660  0.26920  0.91312  Biso   1.000  C
  C44      1.0000 0.22660  0.73080  0.41312  Biso   1.000  C
  H17      1.0000 0.27910  0.65910  0.11840  Biso   1.000  H
  H18      1.0000 0.77910  0.34090  0.61840  Biso   1.000  H
  H19      1.0000 0.72090  0.34090  0.88160  Biso   1.000  H
  H20      1.0000 0.22090  0.65910  0.38160  Biso   1.000  H
  C45      1.0000 0.16660  0.79340  0.06420  Biso   1.000  C
  C46      1.0000 0.66660  0.20660  0.56420  Biso   1.000  C
  C47      1.0000 0.83340  0.20660  0.93580  Biso   1.000  C
  C48      1.0000 0.33340  0.79340  0.43580  Biso   1.000  C
  H21      1.0000 0.10090  0.76280  0.08120  Biso   1.000  H
  H22      1.0000 0.60090  0.23720  0.58120  Biso   1.000  H
  H23      1.0000 0.89910  0.23720  0.91880  Biso   1.000  H
  H24      1.0000 0.39910  0.76280  0.41880  Biso   1.000  H
  C49      1.0000 0.24540  0.93430  0.99236  Biso   1.000  C
  C50      1.0000 0.74540  0.06570  0.49236  Biso   1.000  C
  C51      1.0000 0.75460  0.06570  0.00764  Biso   1.000  C
  C52      1.0000 0.25460  0.93430  0.50764  Biso   1.000  C
  H25      1.0000 0.23600  0.00340  0.95830  Biso   1.000  H
  H26      1.0000 0.73600  0.99660  0.45830  Biso   1.000  H
  H27      1.0000 0.76400  0.99660  0.04170  Biso   1.000  H
  H28      1.0000 0.26400  0.00340  0.54170  Biso   1.000  H
  C53      1.0000 0.35520  0.87650  0.01293  Biso   1.000  C
  C54      1.0000 0.85520  0.12350  0.51293  Biso   1.000  C
  C55      1.0000 0.64480  0.12350  0.98707  Biso   1.000  C
  C56      1.0000 0.14480  0.87650  0.48707  Biso   1.000  C
  H29      1.0000 0.41810  0.90680  0.99290  Biso   1.000  H
  H30      1.0000 0.91810  0.09320  0.49290  Biso   1.000  H
  H31      1.0000 0.58190  0.09320  0.00710  Biso   1.000  H
  H32      1.0000 0.08190  0.90680  0.50710  Biso   1.000  H
  N1       1.0000 0.15116  0.89698  0.01849  Biso   1.000  N
  N2       1.0000 0.65116  0.10302  0.51849  Biso   1.000  N
  N3       1.0000 0.84884  0.10302  0.98151  Biso   1.000  N
  N4       1.0000 0.34884  0.89698  0.48151  Biso   1.000  N
  Cu1      1.0000 0.00000  0.00000  0.00000  Biso   1.000  Cu
  Cu2      1.0000 0.50000  0.00000  0.50000  Biso   1.000  Cu
  C57      1.0000 0.11910  0.22870  0.09794  Biso   1.000  C
  C58      1.0000 0.61910  0.77130  0.59794  Biso   1.000  C
  C59      1.0000 0.88090  0.77130  0.90206  Biso   1.000  C
  C60      1.0000 0.38090  0.22870  0.40206  Biso   1.000  C
  C61      1.0000 0.09800  0.17760  0.16845  Biso   1.000  C
  C62      1.0000 0.59800  0.82240  0.66845  Biso   1.000  C
  C63      1.0000 0.90200  0.82240  0.83155  Biso   1.000  C
  C64      1.0000 0.40200  0.17760  0.33155  Biso   1.000  C
  H33      1.0000 0.11750  0.22580  0.21530  Biso   1.000  H
  H34      1.0000 0.61750  0.77420  0.71530  Biso   1.000  H
  H35      1.0000 0.88250  0.77420  0.78470  Biso   1.000  H
  H36      1.0000 0.38250  0.22580  0.28470  Biso   1.000  H
  C65      1.0000 0.05040  0.06130  0.17336  Biso   1.000  C
  C66      1.0000 0.55040  0.93870  0.67336  Biso   1.000  C
  C67      1.0000 0.94960  0.93870  0.82664  Biso   1.000  C
  C68      1.0000 0.44960  0.06130  0.32664  Biso   1.000  C
  O1       1.0000 0.10500  0.18110  0.03123  Biso   1.000  O
  O2       1.0000 0.60500  0.81890  0.53123  Biso   1.000  O
  O3       1.0000 0.89500  0.81890  0.96877  Biso   1.000  O
  O4       1.0000 0.39500  0.18110  0.46877  Biso   1.000  O
  O5       1.0000 0.00856  0.98413  0.11824  Biso   1.000  O
  O6       1.0000 0.50856  0.01587  0.61824  Biso   1.000  O
  O7       1.0000 0.99144  0.01587  0.88176  Biso   1.000  O
  O8       1.0000 0.49144  0.98413  0.38176  Biso   1.000  O
  C69      1.0000 0.16830  0.36340  0.10420  Biso   1.000  C
  C70      1.0000 0.66830  0.63660  0.60420  Biso   1.000  C
  C71      1.0000 0.83170  0.63660  0.89580  Biso   1.000  C
  C72      1.0000 0.33170  0.36340  0.39580  Biso   1.000  C
  F25      1.0000 0.17100  0.41250  0.03640  Biso   1.000  F
  F26      1.0000 0.67100  0.58750  0.53640  Biso   1.000  F
  F27      1.0000 0.82900  0.58750  0.96360  Biso   1.000  F
  F28      1.0000 0.32900  0.41250  0.46360  Biso   1.000  F
  F29      1.0000 0.27320  0.37500  0.15020  Biso   1.000  F
  F30      1.0000 0.77320  0.62500  0.65020  Biso   1.000  F
  F31      1.0000 0.72680  0.62500  0.84980  Biso   1.000  F
  F32      1.0000 0.22680  0.37500  0.34980  Biso   1.000  F
  F33      1.0000 0.10470  0.43590  0.14320  Biso   1.000  F
  F34      1.0000 0.60470  0.56410  0.64320  Biso   1.000  F
  F35      1.0000 0.89530  0.56410  0.85680  Biso   1.000  F
  F36      1.0000 0.39530  0.43590  0.35680  Biso   1.000  F
  F37      1.0000 0.18600  0.41330  0.17010  Biso   1.000  F
  F38      1.0000 0.68600  0.58670  0.67010  Biso   1.000  F
  F39      1.0000 0.81400  0.58670  0.82990  Biso   1.000  F
  F40      1.0000 0.31400  0.41330  0.32990  Biso   1.000  F
  F41      1.0000 0.09290  0.43260  0.05430  Biso   1.000  F
  F42      1.0000 0.59290  0.56740  0.55430  Biso   1.000  F
  F43      1.0000 0.90710  0.56740  0.94570  Biso   1.000  F
  F44      1.0000 0.40710  0.43260  0.44570  Biso   1.000  F
  F45      1.0000 0.27190  0.36590  0.08320  Biso   1.000  F
  F46      1.0000 0.77190  0.63410  0.58320  Biso   1.000  F
  F47      1.0000 0.72810  0.63410  0.91680  Biso   1.000  F
  F48      1.0000 0.22810  0.36590  0.41680  Biso   1.000  F
  C73      1.0000 0.05030  0.01140  0.25660  Biso   1.000  C
  C74      1.0000 0.55030  0.98860  0.75660  Biso   1.000  C
  C75      1.0000 0.94970  0.98860  0.74340  Biso   1.000  C
  C76      1.0000 0.44970  0.01140  0.24340  Biso   1.000  C
  F49      1.0000 0.07910  0.09300  0.31578  Biso   1.000  F
  F50      1.0000 0.57910  0.90700  0.81578  Biso   1.000  F
  F51      1.0000 0.92090  0.90700  0.68422  Biso   1.000  F
  F52      1.0000 0.42090  0.09300  0.18422  Biso   1.000  F
  F53      1.0000 0.94260  0.97210  0.25882  Biso   1.000  F
  F54      1.0000 0.44260  0.02790  0.75882  Biso   1.000  F
  F55      1.0000 0.05740  0.02790  0.74118  Biso   1.000  F
  F56      1.0000 0.55740  0.97210  0.24118  Biso   1.000  F
  F57      1.0000 0.11780  0.91480  0.27352  Biso   1.000  F
  F58      1.0000 0.61780  0.08520  0.77352  Biso   1.000  F
  F59      1.0000 0.88220  0.08520  0.72648  Biso   1.000  F
  F60      1.0000 0.38220  0.91480  0.22648  Biso   1.000  F
