data_image0
_cell_length_a       9.6921
_cell_length_b       15.309
_cell_length_c       11.093
_cell_angle_alpha    90
_cell_angle_beta     91.312
_cell_angle_gamma    90

_symmetry_space_group_name_H-M    "P 1"
_symmetry_int_tables_number       1

loop_
  _symmetry_equiv_pos_as_xyz
  'x, y, z'

loop_
  _atom_site_label
  _atom_site_occupancy
  _atom_site_fract_x
  _atom_site_fract_y
  _atom_site_fract_z
  _atom_site_thermal_displace_type
  _atom_site_B_iso_or_equiv
  _atom_site_type_symbol
  Cu1      1.0000 0.07676  0.56862  0.89404  Biso   1.000  Cu
  Cu2      1.0000 0.57676  0.93138  0.39404  Biso   1.000  Cu
  Cu3      1.0000 0.92324  0.43138  0.10596  Biso   1.000  Cu
  Cu4      1.0000 0.42324  0.06862  0.60596  Biso   1.000  Cu
  Cl1      1.0000 0.26925  0.58188  0.78056  Biso   1.000  Cl
  Cl2      1.0000 0.76925  0.91812  0.28056  Biso   1.000  Cl
  Cl3      1.0000 0.73075  0.41812  0.21944  Biso   1.000  Cl
  Cl4      1.0000 0.23075  0.08188  0.71944  Biso   1.000  Cl
  Cl5      1.0000 0.13640  0.42402  0.01475  Biso   1.000  Cl
  Cl6      1.0000 0.63640  0.07598  0.51475  Biso   1.000  Cl
  Cl7      1.0000 0.86360  0.57598  0.98525  Biso   1.000  Cl
  Cl8      1.0000 0.36360  0.92402  0.48525  Biso   1.000  Cl
  N1       1.0000 0.83360  0.51307  0.60414  Biso   1.000  N
  N2       1.0000 0.33360  0.98693  0.10414  Biso   1.000  N
  N3       1.0000 0.16640  0.48693  0.39586  Biso   1.000  N
  N4       1.0000 0.66640  0.01307  0.89586  Biso   1.000  N
  N5       1.0000 0.88790  0.55941  0.69617  Biso   1.000  N
  N6       1.0000 0.38790  0.94059  0.19617  Biso   1.000  N
  N7       1.0000 0.11210  0.44059  0.30383  Biso   1.000  N
  N8       1.0000 0.61210  0.05941  0.80383  Biso   1.000  N
  N9       1.0000 0.98120  0.51076  0.75210  Biso   1.000  N
  N10      1.0000 0.48120  0.98924  0.25210  Biso   1.000  N
  N11      1.0000 0.01880  0.48924  0.24790  Biso   1.000  N
  N12      1.0000 0.51880  0.01076  0.74790  Biso   1.000  N
  C1       1.0000 0.98940  0.43095  0.69490  Biso   1.000  C
  C2       1.0000 0.48940  0.06905  0.19490  Biso   1.000  C
  C3       1.0000 0.01060  0.56905  0.30510  Biso   1.000  C
  C4       1.0000 0.51060  0.93095  0.80510  Biso   1.000  C
  C5       1.0000 0.07500  0.35813  0.71520  Biso   1.000  C
  C6       1.0000 0.57500  0.14187  0.21520  Biso   1.000  C
  C7       1.0000 0.92500  0.64187  0.28480  Biso   1.000  C
  C8       1.0000 0.42500  0.85813  0.78480  Biso   1.000  C
  H1       1.0000 0.13940  0.35640  0.77860  Biso   1.000  H
  H2       1.0000 0.63940  0.14360  0.27860  Biso   1.000  H
  H3       1.0000 0.86060  0.64360  0.22140  Biso   1.000  H
  H4       1.0000 0.36060  0.85640  0.72140  Biso   1.000  H
  C9       1.0000 0.05830  0.28947  0.63620  Biso   1.000  C
  C10      1.0000 0.55830  0.21053  0.13620  Biso   1.000  C
  C11      1.0000 0.94170  0.71053  0.36380  Biso   1.000  C
  C12      1.0000 0.44170  0.78947  0.86380  Biso   1.000  C
  H5       1.0000 0.11450  0.24060  0.64550  Biso   1.000  H
  H6       1.0000 0.61450  0.25940  0.14550  Biso   1.000  H
  H7       1.0000 0.88550  0.75940  0.35450  Biso   1.000  H
  H8       1.0000 0.38550  0.74060  0.85450  Biso   1.000  H
  C13      1.0000 0.95880  0.29085  0.54170  Biso   1.000  C
  C14      1.0000 0.45880  0.20915  0.04170  Biso   1.000  C
  C15      1.0000 0.04120  0.70915  0.45830  Biso   1.000  C
  C16      1.0000 0.54120  0.79085  0.95830  Biso   1.000  C
  H9       1.0000 0.94960  0.24190  0.49240  Biso   1.000  H
  H10      1.0000 0.44960  0.25810  0.99240  Biso   1.000  H
  H11      1.0000 0.05040  0.75810  0.50760  Biso   1.000  H
  H12      1.0000 0.55040  0.74190  0.00760  Biso   1.000  H
  C17      1.0000 0.87500  0.36126  0.51930  Biso   1.000  C
  C18      1.0000 0.37500  0.13874  0.01930  Biso   1.000  C
  C19      1.0000 0.12500  0.63874  0.48070  Biso   1.000  C
  C20      1.0000 0.62500  0.86126  0.98070  Biso   1.000  C
  H13      1.0000 0.81040  0.36220  0.45610  Biso   1.000  H
  H14      1.0000 0.31040  0.13780  0.95610  Biso   1.000  H
  H15      1.0000 0.18960  0.63780  0.54390  Biso   1.000  H
  H16      1.0000 0.68960  0.86220  0.04390  Biso   1.000  H
  C21      1.0000 0.89360  0.43222  0.59890  Biso   1.000  C
  C22      1.0000 0.39360  0.06778  0.09890  Biso   1.000  C
  C23      1.0000 0.10640  0.56778  0.40110  Biso   1.000  C
  C24      1.0000 0.60640  0.93222  0.90110  Biso   1.000  C
  N13      1.0000 0.66100  0.73317  0.63211  Biso   1.000  N
  N14      1.0000 0.16100  0.76683  0.13211  Biso   1.000  N
  N15      1.0000 0.33900  0.26683  0.36789  Biso   1.000  N
  N16      1.0000 0.83900  0.23317  0.86789  Biso   1.000  N
  N17      1.0000 0.59060  0.77440  0.54252  Biso   1.000  N
  N18      1.0000 0.09060  0.72560  0.04252  Biso   1.000  N
  N19      1.0000 0.40940  0.22560  0.45748  Biso   1.000  N
  N20      1.0000 0.90940  0.27440  0.95748  Biso   1.000  N
  N21      1.0000 0.65670  0.84720  0.51802  Biso   1.000  N
  N22      1.0000 0.15670  0.65280  0.01802  Biso   1.000  N
  N23      1.0000 0.34330  0.15280  0.48198  Biso   1.000  N
  N24      1.0000 0.84330  0.34720  0.98198  Biso   1.000  N
  C25      1.0000 0.77300  0.85424  0.59140  Biso   1.000  C
  C26      1.0000 0.27300  0.64576  0.09140  Biso   1.000  C
  C27      1.0000 0.22700  0.14576  0.40860  Biso   1.000  C
  C28      1.0000 0.72700  0.35424  0.90860  Biso   1.000  C
  C29      1.0000 0.87930  0.91605  0.59730  Biso   1.000  C
  C30      1.0000 0.37930  0.58395  0.09730  Biso   1.000  C
  C31      1.0000 0.12070  0.08395  0.40270  Biso   1.000  C
  C32      1.0000 0.62070  0.41605  0.90270  Biso   1.000  C
  H17      1.0000 0.87970  0.96460  0.54700  Biso   1.000  H
  H18      1.0000 0.37970  0.53540  0.04700  Biso   1.000  H
  H19      1.0000 0.12030  0.03540  0.45300  Biso   1.000  H
  H20      1.0000 0.62030  0.46460  0.95300  Biso   1.000  H
  C33      1.0000 0.98310  0.90132  0.68100  Biso   1.000  C
  C34      1.0000 0.48310  0.59868  0.18100  Biso   1.000  C
  C35      1.0000 0.01690  0.09868  0.31900  Biso   1.000  C
  C36      1.0000 0.51690  0.40132  0.81900  Biso   1.000  C
  H21      1.0000 0.05660  0.94030  0.68610  Biso   1.000  H
  H22      1.0000 0.55660  0.55970  0.18610  Biso   1.000  H
  H23      1.0000 0.94340  0.05970  0.31390  Biso   1.000  H
  H24      1.0000 0.44340  0.44030  0.81390  Biso   1.000  H
  C37      1.0000 0.98180  0.82881  0.75970  Biso   1.000  C
  C38      1.0000 0.48180  0.67119  0.25970  Biso   1.000  C
  C39      1.0000 0.01820  0.17119  0.24030  Biso   1.000  C
  C40      1.0000 0.51820  0.32881  0.74030  Biso   1.000  C
  H25      1.0000 0.05350  0.82240  0.81620  Biso   1.000  H
  H26      1.0000 0.55350  0.67760  0.31620  Biso   1.000  H
  H27      1.0000 0.94650  0.17760  0.18380  Biso   1.000  H
  H28      1.0000 0.44650  0.32240  0.68380  Biso   1.000  H
  C41      1.0000 0.87880  0.76759  0.75580  Biso   1.000  C
  C42      1.0000 0.37880  0.73241  0.25580  Biso   1.000  C
  C43      1.0000 0.12120  0.23241  0.24420  Biso   1.000  C
  C44      1.0000 0.62120  0.26759  0.74420  Biso   1.000  C
  H29      1.0000 0.87770  0.72030  0.80840  Biso   1.000  H
  H30      1.0000 0.37770  0.77970  0.30840  Biso   1.000  H
  H31      1.0000 0.12230  0.27970  0.19160  Biso   1.000  H
  H32      1.0000 0.62230  0.22030  0.69160  Biso   1.000  H
  C45      1.0000 0.77500  0.78081  0.66731  Biso   1.000  C
  C46      1.0000 0.27500  0.71919  0.16731  Biso   1.000  C
  C47      1.0000 0.22500  0.21919  0.33269  Biso   1.000  C
  C48      1.0000 0.72500  0.28081  0.83269  Biso   1.000  C
  C49      1.0000 0.60720  0.65081  0.68070  Biso   1.000  C
  C50      1.0000 0.10720  0.84919  0.18070  Biso   1.000  C
  C51      1.0000 0.39280  0.34919  0.31930  Biso   1.000  C
  C52      1.0000 0.89280  0.15081  0.81930  Biso   1.000  C
  H33      1.0000 0.51640  0.66120  0.71260  Biso   1.000  H
  H34      1.0000 0.01640  0.83880  0.21260  Biso   1.000  H
  H35      1.0000 0.48360  0.33880  0.28740  Biso   1.000  H
  H36      1.0000 0.98360  0.16120  0.78740  Biso   1.000  H
  H37      1.0000 0.66710  0.63170  0.74680  Biso   1.000  H
  H38      1.0000 0.16710  0.86830  0.24680  Biso   1.000  H
  H39      1.0000 0.33290  0.36830  0.25320  Biso   1.000  H
  H40      1.0000 0.83290  0.13170  0.75320  Biso   1.000  H
  C53      1.0000 0.59720  0.57852  0.58700  Biso   1.000  C
  C54      1.0000 0.09720  0.92148  0.08700  Biso   1.000  C
  C55      1.0000 0.40280  0.42148  0.41300  Biso   1.000  C
  C56      1.0000 0.90280  0.07852  0.91300  Biso   1.000  C
  H41      1.0000 0.52940  0.59570  0.52580  Biso   1.000  H
  H42      1.0000 0.02940  0.90430  0.02580  Biso   1.000  H
  H43      1.0000 0.47060  0.40430  0.47420  Biso   1.000  H
  H44      1.0000 0.97060  0.09570  0.97420  Biso   1.000  H
  H45      1.0000 0.56250  0.52640  0.62580  Biso   1.000  H
  H46      1.0000 0.06250  0.97360  0.12580  Biso   1.000  H
  H47      1.0000 0.43750  0.47360  0.37420  Biso   1.000  H
  H48      1.0000 0.93750  0.02640  0.87420  Biso   1.000  H
  C57      1.0000 0.73070  0.55459  0.52390  Biso   1.000  C
  C58      1.0000 0.23070  0.94541  0.02390  Biso   1.000  C
  C59      1.0000 0.26930  0.44541  0.47610  Biso   1.000  C
  C60      1.0000 0.76930  0.05459  0.97610  Biso   1.000  C
  H49      1.0000 0.70900  0.51520  0.45760  Biso   1.000  H
  H50      1.0000 0.20900  0.98480  0.95760  Biso   1.000  H
  H51      1.0000 0.29100  0.48480  0.54240  Biso   1.000  H
  H52      1.0000 0.79100  0.01520  0.04240  Biso   1.000  H
  H53      1.0000 0.77040  0.60720  0.49030  Biso   1.000  H
  H54      1.0000 0.27040  0.89280  0.99030  Biso   1.000  H
  H55      1.0000 0.22960  0.39280  0.50970  Biso   1.000  H
  H56      1.0000 0.72960  0.10720  0.00970  Biso   1.000  H
