data_image0
_cell_length_a       8.738
_cell_length_b       10.188
_cell_length_c       10.76
_cell_angle_alpha    63.08
_cell_angle_beta     83.713
_cell_angle_gamma    76.77

_symmetry_space_group_name_H-M    "P 1"
_symmetry_int_tables_number       1

loop_
  _symmetry_equiv_pos_as_xyz
  'x, y, z'

loop_
  _atom_site_label
  _atom_site_occupancy
  _atom_site_fract_x
  _atom_site_fract_y
  _atom_site_fract_z
  _atom_site_thermal_displace_type
  _atom_site_B_iso_or_equiv
  _atom_site_type_symbol
  Cu1      1.0000 0.60872  0.15668  0.18812  Biso   1.000  Cu
  Cu2      1.0000 0.39128  0.84332  0.81188  Biso   1.000  Cu
  N1       1.0000 0.38490  0.18580  0.25030  Biso   1.000  N
  N2       1.0000 0.61510  0.81420  0.74970  Biso   1.000  N
  C1       1.0000 0.28000  0.31040  0.17830  Biso   1.000  C
  C2       1.0000 0.72000  0.68960  0.82170  Biso   1.000  C
  H1       1.0000 0.31360  0.38570  0.09830  Biso   1.000  H
  H2       1.0000 0.68640  0.61430  0.90170  Biso   1.000  H
  C3       1.0000 0.12570  0.33210  0.21680  Biso   1.000  C
  C4       1.0000 0.87430  0.66790  0.78320  Biso   1.000  C
  H3       1.0000 0.05620  0.42020  0.16330  Biso   1.000  H
  H4       1.0000 0.94380  0.57980  0.83670  Biso   1.000  H
  C5       1.0000 0.07330  0.22180  0.33630  Biso   1.000  C
  C6       1.0000 0.92670  0.77820  0.66370  Biso   1.000  C
  H5       1.0000 0.96830  0.23370  0.36360  Biso   1.000  H
  H6       1.0000 0.03170  0.76630  0.63640  Biso   1.000  H
  C7       1.0000 0.18050  0.09470  0.41310  Biso   1.000  C
  C8       1.0000 0.81950  0.90530  0.58690  Biso   1.000  C
  H7       1.0000 0.15020  0.01860  0.49440  Biso   1.000  H
  H8       1.0000 0.84980  0.98140  0.50560  Biso   1.000  H
  C9       1.0000 0.33250  0.08270  0.36730  Biso   1.000  C
  C10      1.0000 0.66750  0.91730  0.63270  Biso   1.000  C
  H9       1.0000 0.40480  0.99710  0.42110  Biso   1.000  H
  H10      1.0000 0.59520  0.00290  0.57890  Biso   1.000  H
  N3       1.0000 0.83450  0.13490  0.12530  Biso   1.000  N
  N4       1.0000 0.16550  0.86510  0.87470  Biso   1.000  N
  C11      1.0000 0.94470  0.01400  0.19700  Biso   1.000  C
  C12      1.0000 0.05530  0.98600  0.80300  Biso   1.000  C
  H11      1.0000 0.91530  0.93790  0.27870  Biso   1.000  H
  H12      1.0000 0.08470  0.06210  0.72130  Biso   1.000  H
  C13      1.0000 0.09820  0.99810  0.15520  Biso   1.000  C
  C14      1.0000 0.90180  0.00190  0.84480  Biso   1.000  C
  H13      1.0000 0.17040  0.91200  0.20800  Biso   1.000  H
  H14      1.0000 0.82960  0.08800  0.79200  Biso   1.000  H
  C15      1.0000 0.14660  0.10850  0.03550  Biso   1.000  C
  C16      1.0000 0.85340  0.89150  0.96450  Biso   1.000  C
  H15      1.0000 0.25120  0.09990  0.00670  Biso   1.000  H
  H16      1.0000 0.74880  0.90010  0.99330  Biso   1.000  H
  C17      1.0000 0.03490  0.23160  0.96010  Biso   1.000  C
  C18      1.0000 0.96510  0.76840  0.03990  Biso   1.000  C
  H17      1.0000 0.06210  0.30840  0.87780  Biso   1.000  H
  H18      1.0000 0.93790  0.69160  0.12220  Biso   1.000  H
  C19      1.0000 0.88090  0.24060  0.00800  Biso   1.000  C
  C20      1.0000 0.11910  0.75940  0.99200  Biso   1.000  C
  H19      1.0000 0.80620  0.32470  0.95560  Biso   1.000  H
  H20      1.0000 0.19380  0.67530  0.04440  Biso   1.000  H
  O1       1.0000 0.66470  0.22950  0.32870  Biso   1.000  O
  O2       1.0000 0.33530  0.77050  0.67130  Biso   1.000  O
  O3       1.0000 0.58460  0.45130  0.15000  Biso   1.000  O
  O4       1.0000 0.41540  0.54870  0.85000  Biso   1.000  O
  O5       1.0000 0.64280  0.92580  0.31120  Biso   1.000  O
  O6       1.0000 0.35720  0.07420  0.68880  Biso   1.000  O
  O7       1.0000 0.51770  0.89150  0.16250  Biso   1.000  O
  O8       1.0000 0.48230  0.10850  0.83750  Biso   1.000  O
  O9       1.0000 0.62490  0.59720  0.28880  Biso   1.000  O
  O10      1.0000 0.37510  0.40280  0.71120  Biso   1.000  O
  O11      1.0000 0.82840  0.38960  0.66870  Biso   1.000  O
  O12      1.0000 0.17160  0.61040  0.33130  Biso   1.000  O
  C21      1.0000 0.63340  0.37040  0.27070  Biso   1.000  C
  C22      1.0000 0.36660  0.62960  0.72930  Biso   1.000  C
  C23      1.0000 0.66410  0.44430  0.35750  Biso   1.000  C
  C24      1.0000 0.33590  0.55570  0.64250  Biso   1.000  C
  C25      1.0000 0.72650  0.37320  0.48370  Biso   1.000  C
  C26      1.0000 0.27350  0.62680  0.51630  Biso   1.000  C
  H21      1.0000 0.74670  0.26870  0.52790  Biso   1.000  H
  H22      1.0000 0.25330  0.73130  0.47210  Biso   1.000  H
  C27      1.0000 0.76450  0.45260  0.55550  Biso   1.000  C
  C28      1.0000 0.23550  0.54740  0.44450  Biso   1.000  C
  C29      1.0000 0.71820  0.61410  0.47680  Biso   1.000  C
  C30      1.0000 0.28180  0.38590  0.52320  Biso   1.000  C
  H23      1.0000 0.73540  0.67460  0.51550  Biso   1.000  H
  H24      1.0000 0.26460  0.32540  0.48450  Biso   1.000  H
  C31      1.0000 0.65230  0.67970  0.35190  Biso   1.000  C
  C32      1.0000 0.34770  0.32030  0.64810  Biso   1.000  C
  C33      1.0000 0.59770  0.84660  0.26560  Biso   1.000  C
  C34      1.0000 0.40230  0.15340  0.73440  Biso   1.000  C
  O13      1.0000 0.54080  0.24910  0.98560  Biso   1.000  O
  O14      1.0000 0.45920  0.75090  0.01440  Biso   1.000  O
  H25      1.0000 0.53000  0.18600  0.96000  Biso   1.000  H
  H26      1.0000 0.47000  0.81400  0.04000  Biso   1.000  H
  H27      1.0000 0.50200  0.33700  0.93700  Biso   1.000  H
  H28      1.0000 0.49800  0.66300  0.06300  Biso   1.000  H
