data_image0
_cell_length_a       36.819
_cell_length_b       8.5131
_cell_length_c       22.168
_cell_angle_alpha    90
_cell_angle_beta     123.341
_cell_angle_gamma    90

_symmetry_space_group_name_H-M    "P 1"
_symmetry_int_tables_number       1

loop_
  _symmetry_equiv_pos_as_xyz
  'x, y, z'

loop_
  _atom_site_label
  _atom_site_occupancy
  _atom_site_fract_x
  _atom_site_fract_y
  _atom_site_fract_z
  _atom_site_thermal_displace_type
  _atom_site_B_iso_or_equiv
  _atom_site_type_symbol
  Cu1      1.0000 0.16969  0.56501  0.34338  Biso   1.000  Cu
  Cu2      1.0000 0.83031  0.56501  0.15662  Biso   1.000  Cu
  Cu3      1.0000 0.66969  0.06501  0.34338  Biso   1.000  Cu
  Cu4      1.0000 0.33031  0.06501  0.15662  Biso   1.000  Cu
  Cu5      1.0000 0.83031  0.43499  0.65662  Biso   1.000  Cu
  Cu6      1.0000 0.16969  0.43499  0.84338  Biso   1.000  Cu
  Cu7      1.0000 0.33031  0.93499  0.65662  Biso   1.000  Cu
  Cu8      1.0000 0.66969  0.93499  0.84338  Biso   1.000  Cu
  O1       1.0000 0.48140  0.82560  0.41280  Biso   1.000  O
  O2       1.0000 0.51860  0.82560  0.08720  Biso   1.000  O
  O3       1.0000 0.98140  0.32560  0.41280  Biso   1.000  O
  O4       1.0000 0.01860  0.32560  0.08720  Biso   1.000  O
  O5       1.0000 0.51860  0.17440  0.58720  Biso   1.000  O
  O6       1.0000 0.48140  0.17440  0.91280  Biso   1.000  O
  O7       1.0000 0.01860  0.67440  0.58720  Biso   1.000  O
  O8       1.0000 0.98140  0.67440  0.91280  Biso   1.000  O
  O9       1.0000 0.61654  0.01350  0.33560  Biso   1.000  O
  O10      1.0000 0.38346  0.01350  0.16440  Biso   1.000  O
  O11      1.0000 0.11654  0.51350  0.33560  Biso   1.000  O
  O12      1.0000 0.88346  0.51350  0.16440  Biso   1.000  O
  O13      1.0000 0.38346  0.98650  0.66440  Biso   1.000  O
  O14      1.0000 0.61654  0.98650  0.83560  Biso   1.000  O
  O15      1.0000 0.88346  0.48650  0.66440  Biso   1.000  O
  O16      1.0000 0.11654  0.48650  0.83560  Biso   1.000  O
  O17      1.0000 0.66297  0.93590  0.44760  Biso   1.000  O
  O18      1.0000 0.33703  0.93590  0.05240  Biso   1.000  O
  O19      1.0000 0.16297  0.43590  0.44760  Biso   1.000  O
  O20      1.0000 0.83703  0.43590  0.05240  Biso   1.000  O
  O21      1.0000 0.33703  0.06410  0.55240  Biso   1.000  O
  O22      1.0000 0.66297  0.06410  0.94760  Biso   1.000  O
  O23      1.0000 0.83703  0.56410  0.55240  Biso   1.000  O
  O24      1.0000 0.16297  0.56410  0.94760  Biso   1.000  O
  O25      1.0000 0.13550  0.67470  0.23110  Biso   1.000  O
  O26      1.0000 0.86450  0.67470  0.26890  Biso   1.000  O
  O27      1.0000 0.63550  0.17470  0.23110  Biso   1.000  O
  O28      1.0000 0.36450  0.17470  0.26890  Biso   1.000  O
  O29      1.0000 0.86450  0.32530  0.76890  Biso   1.000  O
  O30      1.0000 0.13550  0.32530  0.73110  Biso   1.000  O
  O31      1.0000 0.36450  0.82530  0.76890  Biso   1.000  O
  O32      1.0000 0.63550  0.82530  0.73110  Biso   1.000  O
  N1       1.0000 0.22952  0.59660  0.37620  Biso   1.000  N
  N2       1.0000 0.77048  0.59660  0.12380  Biso   1.000  N
  N3       1.0000 0.72952  0.09660  0.37620  Biso   1.000  N
  N4       1.0000 0.27048  0.09660  0.12380  Biso   1.000  N
  N5       1.0000 0.77048  0.40340  0.62380  Biso   1.000  N
  N6       1.0000 0.22952  0.40340  0.87620  Biso   1.000  N
  N7       1.0000 0.27048  0.90340  0.62380  Biso   1.000  N
  N8       1.0000 0.72952  0.90340  0.87620  Biso   1.000  N
  N9       1.0000 0.18233  0.35640  0.31350  Biso   1.000  N
  N10      1.0000 0.81767  0.35640  0.18650  Biso   1.000  N
  N11      1.0000 0.68233  0.85640  0.31350  Biso   1.000  N
  N12      1.0000 0.31767  0.85640  0.18650  Biso   1.000  N
  N13      1.0000 0.81767  0.64360  0.68650  Biso   1.000  N
  N14      1.0000 0.18233  0.64360  0.81350  Biso   1.000  N
  N15      1.0000 0.31767  0.14360  0.68650  Biso   1.000  N
  N16      1.0000 0.68233  0.14360  0.81350  Biso   1.000  N
  N17      1.0000 0.17973  0.78120  0.38870  Biso   1.000  N
  N18      1.0000 0.82027  0.78120  0.11130  Biso   1.000  N
  N19      1.0000 0.67973  0.28120  0.38870  Biso   1.000  N
  N20      1.0000 0.32027  0.28120  0.11130  Biso   1.000  N
  N21      1.0000 0.82027  0.21880  0.61130  Biso   1.000  N
  N22      1.0000 0.17973  0.21880  0.88870  Biso   1.000  N
  N23      1.0000 0.32027  0.71880  0.61130  Biso   1.000  N
  N24      1.0000 0.67973  0.71880  0.88870  Biso   1.000  N
  C1       1.0000 0.55940  0.82160  0.46910  Biso   1.000  C
  C2       1.0000 0.44060  0.82160  0.03090  Biso   1.000  C
  C3       1.0000 0.05940  0.32160  0.46910  Biso   1.000  C
  C4       1.0000 0.94060  0.32160  0.03090  Biso   1.000  C
  C5       1.0000 0.44060  0.17840  0.53090  Biso   1.000  C
  C6       1.0000 0.55940  0.17840  0.96910  Biso   1.000  C
  C7       1.0000 0.94060  0.67840  0.53090  Biso   1.000  C
  C8       1.0000 0.05940  0.67840  0.96910  Biso   1.000  C
  H1       1.0000 0.56440  0.77780  0.51150  Biso   1.000  H
  H2       1.0000 0.43560  0.77780  0.98850  Biso   1.000  H
  H3       1.0000 0.06440  0.27780  0.51150  Biso   1.000  H
  H4       1.0000 0.93560  0.27780  0.98850  Biso   1.000  H
  H5       1.0000 0.43560  0.22220  0.48850  Biso   1.000  H
  H6       1.0000 0.56440  0.22220  0.01150  Biso   1.000  H
  H7       1.0000 0.93560  0.72220  0.48850  Biso   1.000  H
  H8       1.0000 0.06440  0.72220  0.01150  Biso   1.000  H
  C9       1.0000 0.25020  0.48480  0.36330  Biso   1.000  C
  C10      1.0000 0.74980  0.48480  0.13670  Biso   1.000  C
  C11      1.0000 0.75020  0.98480  0.36330  Biso   1.000  C
  C12      1.0000 0.24980  0.98480  0.13670  Biso   1.000  C
  C13      1.0000 0.74980  0.51520  0.63670  Biso   1.000  C
  C14      1.0000 0.25020  0.51520  0.86330  Biso   1.000  C
  C15      1.0000 0.24980  0.01520  0.63670  Biso   1.000  C
  C16      1.0000 0.75020  0.01520  0.86330  Biso   1.000  C
  C17      1.0000 0.22300  0.34370  0.32820  Biso   1.000  C
  C18      1.0000 0.77700  0.34370  0.17180  Biso   1.000  C
  C19      1.0000 0.72300  0.84370  0.32820  Biso   1.000  C
  C20      1.0000 0.27700  0.84370  0.17180  Biso   1.000  C
  C21      1.0000 0.77700  0.65630  0.67180  Biso   1.000  C
  C22      1.0000 0.22300  0.65630  0.82820  Biso   1.000  C
  C23      1.0000 0.27700  0.15630  0.67180  Biso   1.000  C
  C24      1.0000 0.72300  0.15630  0.82820  Biso   1.000  C
  C25      1.0000 0.15400  0.23780  0.27860  Biso   1.000  C
  C26      1.0000 0.84600  0.23780  0.22140  Biso   1.000  C
  C27      1.0000 0.65400  0.73780  0.27860  Biso   1.000  C
  C28      1.0000 0.34600  0.73780  0.22140  Biso   1.000  C
  C29      1.0000 0.84600  0.76220  0.72140  Biso   1.000  C
  C30      1.0000 0.15400  0.76220  0.77860  Biso   1.000  C
  C31      1.0000 0.34600  0.26220  0.72140  Biso   1.000  C
  C32      1.0000 0.65400  0.26220  0.77860  Biso   1.000  C
  H9       1.0000 0.12580  0.24730  0.26720  Biso   1.000  H
  H10      1.0000 0.87420  0.24730  0.23280  Biso   1.000  H
  H11      1.0000 0.62580  0.74730  0.26720  Biso   1.000  H
  H12      1.0000 0.37420  0.74730  0.23280  Biso   1.000  H
  H13      1.0000 0.87420  0.75270  0.73280  Biso   1.000  H
  H14      1.0000 0.12580  0.75270  0.76720  Biso   1.000  H
  H15      1.0000 0.37420  0.25270  0.73280  Biso   1.000  H
  H16      1.0000 0.62580  0.25270  0.76720  Biso   1.000  H
  C33      1.0000 0.16580  0.10420  0.25950  Biso   1.000  C
  C34      1.0000 0.83420  0.10420  0.24050  Biso   1.000  C
  C35      1.0000 0.66580  0.60420  0.25950  Biso   1.000  C
  C36      1.0000 0.33420  0.60420  0.24050  Biso   1.000  C
  C37      1.0000 0.83420  0.89580  0.74050  Biso   1.000  C
  C38      1.0000 0.16580  0.89580  0.75950  Biso   1.000  C
  C39      1.0000 0.33420  0.39580  0.74050  Biso   1.000  C
  C40      1.0000 0.66580  0.39580  0.75950  Biso   1.000  C
  H17      1.0000 0.14580  0.02350  0.23560  Biso   1.000  H
  H18      1.0000 0.85420  0.02350  0.26440  Biso   1.000  H
  H19      1.0000 0.64580  0.52350  0.23560  Biso   1.000  H
  H20      1.0000 0.35420  0.52350  0.26440  Biso   1.000  H
  H21      1.0000 0.85420  0.97650  0.76440  Biso   1.000  H
  H22      1.0000 0.14580  0.97650  0.73560  Biso   1.000  H
  H23      1.0000 0.35420  0.47650  0.76440  Biso   1.000  H
  H24      1.0000 0.64580  0.47650  0.73560  Biso   1.000  H
  C41      1.0000 0.20700  0.09040  0.27560  Biso   1.000  C
  C42      1.0000 0.79300  0.09040  0.22440  Biso   1.000  C
  C43      1.0000 0.70700  0.59040  0.27560  Biso   1.000  C
  C44      1.0000 0.29300  0.59040  0.22440  Biso   1.000  C
  C45      1.0000 0.79300  0.90960  0.72440  Biso   1.000  C
  C46      1.0000 0.20700  0.90960  0.77560  Biso   1.000  C
  C47      1.0000 0.29300  0.40960  0.72440  Biso   1.000  C
  C48      1.0000 0.70700  0.40960  0.77560  Biso   1.000  C
  H25      1.0000 0.21540  0.99950  0.26310  Biso   1.000  H
  H26      1.0000 0.78460  0.99950  0.23690  Biso   1.000  H
  H27      1.0000 0.71540  0.49950  0.26310  Biso   1.000  H
  H28      1.0000 0.28460  0.49950  0.23690  Biso   1.000  H
  H29      1.0000 0.78460  0.00050  0.73690  Biso   1.000  H
  H30      1.0000 0.21540  0.00050  0.76310  Biso   1.000  H
  H31      1.0000 0.28460  0.50050  0.73690  Biso   1.000  H
  H32      1.0000 0.71540  0.50050  0.76310  Biso   1.000  H
  C49      1.0000 0.23700  0.21250  0.31100  Biso   1.000  C
  C50      1.0000 0.76300  0.21250  0.18900  Biso   1.000  C
  C51      1.0000 0.73700  0.71250  0.31100  Biso   1.000  C
  C52      1.0000 0.26300  0.71250  0.18900  Biso   1.000  C
  C53      1.0000 0.76300  0.78750  0.68900  Biso   1.000  C
  C54      1.0000 0.23700  0.78750  0.81100  Biso   1.000  C
  C55      1.0000 0.26300  0.28750  0.68900  Biso   1.000  C
  C56      1.0000 0.73700  0.28750  0.81100  Biso   1.000  C
  H33      1.0000 0.26530  0.20480  0.32240  Biso   1.000  H
  H34      1.0000 0.73470  0.20480  0.17760  Biso   1.000  H
  H35      1.0000 0.76530  0.70480  0.32240  Biso   1.000  H
  H36      1.0000 0.23470  0.70480  0.17760  Biso   1.000  H
  H37      1.0000 0.73470  0.79520  0.67760  Biso   1.000  H
  H38      1.0000 0.26530  0.79520  0.82240  Biso   1.000  H
  H39      1.0000 0.23470  0.29520  0.67760  Biso   1.000  H
  H40      1.0000 0.76530  0.29520  0.82240  Biso   1.000  H
  C57      1.0000 0.29170  0.51020  0.38050  Biso   1.000  C
  C58      1.0000 0.70830  0.51020  0.11950  Biso   1.000  C
  C59      1.0000 0.79170  0.01020  0.38050  Biso   1.000  C
  C60      1.0000 0.20830  0.01020  0.11950  Biso   1.000  C
  C61      1.0000 0.70830  0.48980  0.61950  Biso   1.000  C
  C62      1.0000 0.29170  0.48980  0.88050  Biso   1.000  C
  C63      1.0000 0.20830  0.98980  0.61950  Biso   1.000  C
  C64      1.0000 0.79170  0.98980  0.88050  Biso   1.000  C
  H41      1.0000 0.30620  0.43140  0.37280  Biso   1.000  H
  H42      1.0000 0.69380  0.43140  0.12720  Biso   1.000  H
  H43      1.0000 0.80620  0.93140  0.37280  Biso   1.000  H
  H44      1.0000 0.19380  0.93140  0.12720  Biso   1.000  H
  H45      1.0000 0.69380  0.56860  0.62720  Biso   1.000  H
  H46      1.0000 0.30620  0.56860  0.87280  Biso   1.000  H
  H47      1.0000 0.19380  0.06860  0.62720  Biso   1.000  H
  H48      1.0000 0.80620  0.06860  0.87280  Biso   1.000  H
  C65      1.0000 0.31210  0.65330  0.40940  Biso   1.000  C
  C66      1.0000 0.68790  0.65330  0.09060  Biso   1.000  C
  C67      1.0000 0.81210  0.15330  0.40940  Biso   1.000  C
  C68      1.0000 0.18790  0.15330  0.09060  Biso   1.000  C
  C69      1.0000 0.68790  0.34670  0.59060  Biso   1.000  C
  C70      1.0000 0.31210  0.34670  0.90940  Biso   1.000  C
  C71      1.0000 0.18790  0.84670  0.59060  Biso   1.000  C
  C72      1.0000 0.81210  0.84670  0.90940  Biso   1.000  C
  C73      1.0000 0.35500  0.68680  0.42300  Biso   1.000  C
  C74      1.0000 0.64500  0.68680  0.07700  Biso   1.000  C
  C75      1.0000 0.85500  0.18680  0.42300  Biso   1.000  C
  C76      1.0000 0.14500  0.18680  0.07700  Biso   1.000  C
  C77      1.0000 0.64500  0.31320  0.57700  Biso   1.000  C
  C78      1.0000 0.35500  0.31320  0.92300  Biso   1.000  C
  C79      1.0000 0.14500  0.81320  0.57700  Biso   1.000  C
  C80      1.0000 0.85500  0.81320  0.92300  Biso   1.000  C
  C81      1.0000 0.36430  0.83030  0.40500  Biso   1.000  C
  C82      1.0000 0.63570  0.83030  0.09500  Biso   1.000  C
  C83      1.0000 0.86430  0.33030  0.40500  Biso   1.000  C
  C84      1.0000 0.13570  0.33030  0.09500  Biso   1.000  C
  C85      1.0000 0.63570  0.16970  0.59500  Biso   1.000  C
  C86      1.0000 0.36430  0.16970  0.90500  Biso   1.000  C
  C87      1.0000 0.13570  0.66970  0.59500  Biso   1.000  C
  C88      1.0000 0.86430  0.66970  0.90500  Biso   1.000  C
  H49      1.0000 0.34350  0.90980  0.38600  Biso   1.000  H
  H50      1.0000 0.65650  0.90980  0.11400  Biso   1.000  H
  H51      1.0000 0.84350  0.40980  0.38600  Biso   1.000  H
  H52      1.0000 0.15650  0.40980  0.11400  Biso   1.000  H
  H53      1.0000 0.65650  0.09020  0.61400  Biso   1.000  H
  H54      1.0000 0.34350  0.09020  0.88600  Biso   1.000  H
  H55      1.0000 0.15650  0.59020  0.61400  Biso   1.000  H
  H56      1.0000 0.84350  0.59020  0.88600  Biso   1.000  H
  C89      1.0000 0.40460  0.85520  0.41530  Biso   1.000  C
  C90      1.0000 0.59540  0.85520  0.08470  Biso   1.000  C
  C91      1.0000 0.90460  0.35520  0.41530  Biso   1.000  C
  C92      1.0000 0.09540  0.35520  0.08470  Biso   1.000  C
  C93      1.0000 0.59540  0.14480  0.58470  Biso   1.000  C
  C94      1.0000 0.40460  0.14480  0.91530  Biso   1.000  C
  C95      1.0000 0.09540  0.64480  0.58470  Biso   1.000  C
  C96      1.0000 0.90460  0.64480  0.91530  Biso   1.000  C
  H57      1.0000 0.40970  0.94700  0.39830  Biso   1.000  H
  H58      1.0000 0.59030  0.94700  0.10170  Biso   1.000  H
  H59      1.0000 0.90970  0.44700  0.39830  Biso   1.000  H
  H60      1.0000 0.09030  0.44700  0.10170  Biso   1.000  H
  H61      1.0000 0.59030  0.05300  0.60170  Biso   1.000  H
  H62      1.0000 0.40970  0.05300  0.89830  Biso   1.000  H
  H63      1.0000 0.09030  0.55300  0.60170  Biso   1.000  H
  H64      1.0000 0.90970  0.55300  0.89830  Biso   1.000  H
  C97      1.0000 0.43730  0.74440  0.45070  Biso   1.000  C
  C98      1.0000 0.56270  0.74440  0.04930  Biso   1.000  C
  C99      1.0000 0.93730  0.24440  0.45070  Biso   1.000  C
  C100     1.0000 0.06270  0.24440  0.04930  Biso   1.000  C
  C101     1.0000 0.56270  0.25560  0.54930  Biso   1.000  C
  C102     1.0000 0.43730  0.25560  0.95070  Biso   1.000  C
  C103     1.0000 0.06270  0.75560  0.54930  Biso   1.000  C
  C104     1.0000 0.93730  0.75560  0.95070  Biso   1.000  C
  C105     1.0000 0.48350  0.77130  0.46940  Biso   1.000  C
  C106     1.0000 0.51650  0.77130  0.03060  Biso   1.000  C
  C107     1.0000 0.98350  0.27130  0.46940  Biso   1.000  C
  C108     1.0000 0.01650  0.27130  0.03060  Biso   1.000  C
  C109     1.0000 0.51650  0.22870  0.53060  Biso   1.000  C
  C110     1.0000 0.48350  0.22870  0.96940  Biso   1.000  C
  C111     1.0000 0.01650  0.72870  0.53060  Biso   1.000  C
  C112     1.0000 0.98350  0.72870  0.96940  Biso   1.000  C
  H65      1.0000 0.49850  0.84570  0.50890  Biso   1.000  H
  H66      1.0000 0.50150  0.84570  0.99110  Biso   1.000  H
  H67      1.0000 0.99850  0.34570  0.50890  Biso   1.000  H
  H68      1.0000 0.00150  0.34570  0.99110  Biso   1.000  H
  H69      1.0000 0.50150  0.15430  0.49110  Biso   1.000  H
  H70      1.0000 0.49850  0.15430  0.00890  Biso   1.000  H
  H71      1.0000 0.00150  0.65430  0.49110  Biso   1.000  H
  H72      1.0000 0.99850  0.65430  0.00890  Biso   1.000  H
  H73      1.0000 0.49960  0.67330  0.48440  Biso   1.000  H
  H74      1.0000 0.50040  0.67330  0.01560  Biso   1.000  H
  H75      1.0000 0.99960  0.17330  0.48440  Biso   1.000  H
  H76      1.0000 0.00040  0.17330  0.01560  Biso   1.000  H
  H77      1.0000 0.50040  0.32670  0.51560  Biso   1.000  H
  H78      1.0000 0.49960  0.32670  0.98440  Biso   1.000  H
  H79      1.0000 0.00040  0.82670  0.51560  Biso   1.000  H
  H80      1.0000 0.99960  0.82670  0.98440  Biso   1.000  H
  C113     1.0000 0.42780  0.60330  0.46900  Biso   1.000  C
  C114     1.0000 0.57220  0.60330  0.03100  Biso   1.000  C
  C115     1.0000 0.92780  0.10330  0.46900  Biso   1.000  C
  C116     1.0000 0.07220  0.10330  0.03100  Biso   1.000  C
  C117     1.0000 0.57220  0.39670  0.53100  Biso   1.000  C
  C118     1.0000 0.42780  0.39670  0.96900  Biso   1.000  C
  C119     1.0000 0.07220  0.89670  0.53100  Biso   1.000  C
  C120     1.0000 0.92780  0.89670  0.96900  Biso   1.000  C
  H81      1.0000 0.44930  0.52700  0.49200  Biso   1.000  H
  H82      1.0000 0.55070  0.52700  0.00800  Biso   1.000  H
  H83      1.0000 0.94930  0.02700  0.49200  Biso   1.000  H
  H84      1.0000 0.05070  0.02700  0.00800  Biso   1.000  H
  H85      1.0000 0.55070  0.47300  0.50800  Biso   1.000  H
  H86      1.0000 0.44930  0.47300  0.99200  Biso   1.000  H
  H87      1.0000 0.05070  0.97300  0.50800  Biso   1.000  H
  H88      1.0000 0.94930  0.97300  0.99200  Biso   1.000  H
  C121     1.0000 0.38710  0.57410  0.45350  Biso   1.000  C
  C122     1.0000 0.61290  0.57410  0.04650  Biso   1.000  C
  C123     1.0000 0.88710  0.07410  0.45350  Biso   1.000  C
  C124     1.0000 0.11290  0.07410  0.04650  Biso   1.000  C
  C125     1.0000 0.61290  0.42590  0.54650  Biso   1.000  C
  C126     1.0000 0.38710  0.42590  0.95350  Biso   1.000  C
  C127     1.0000 0.11290  0.92590  0.54650  Biso   1.000  C
  C128     1.0000 0.88710  0.92590  0.95350  Biso   1.000  C
  H89      1.0000 0.38080  0.47570  0.46390  Biso   1.000  H
  H90      1.0000 0.61920  0.47570  0.03610  Biso   1.000  H
  H91      1.0000 0.88080  0.97570  0.46390  Biso   1.000  H
  H92      1.0000 0.11920  0.97570  0.03610  Biso   1.000  H
  H93      1.0000 0.61920  0.52430  0.53610  Biso   1.000  H
  H94      1.0000 0.38080  0.52430  0.96390  Biso   1.000  H
  H95      1.0000 0.11920  0.02430  0.53610  Biso   1.000  H
  H96      1.0000 0.88080  0.02430  0.96390  Biso   1.000  H
  C129     1.0000 0.28970  0.76690  0.42320  Biso   1.000  C
  C130     1.0000 0.71030  0.76690  0.07680  Biso   1.000  C
  C131     1.0000 0.78970  0.26690  0.42320  Biso   1.000  C
  C132     1.0000 0.21030  0.26690  0.07680  Biso   1.000  C
  C133     1.0000 0.71030  0.23310  0.57680  Biso   1.000  C
  C134     1.0000 0.28970  0.23310  0.92320  Biso   1.000  C
  C135     1.0000 0.21030  0.73310  0.57680  Biso   1.000  C
  C136     1.0000 0.78970  0.73310  0.92320  Biso   1.000  C
  H97      1.0000 0.30260  0.86300  0.44370  Biso   1.000  H
  H98      1.0000 0.69740  0.86300  0.05630  Biso   1.000  H
  H99      1.0000 0.80260  0.36300  0.44370  Biso   1.000  H
  H100     1.0000 0.19740  0.36300  0.05630  Biso   1.000  H
  H101     1.0000 0.69740  0.13700  0.55630  Biso   1.000  H
  H102     1.0000 0.30260  0.13700  0.94370  Biso   1.000  H
  H103     1.0000 0.19740  0.63700  0.55630  Biso   1.000  H
  H104     1.0000 0.80260  0.63700  0.94370  Biso   1.000  H
  C137     1.0000 0.24841  0.73400  0.40590  Biso   1.000  C
  C138     1.0000 0.75159  0.73400  0.09410  Biso   1.000  C
  C139     1.0000 0.74841  0.23400  0.40590  Biso   1.000  C
  C140     1.0000 0.25159  0.23400  0.09410  Biso   1.000  C
  C141     1.0000 0.75159  0.26600  0.59410  Biso   1.000  C
  C142     1.0000 0.24841  0.26600  0.90590  Biso   1.000  C
  C143     1.0000 0.25159  0.76600  0.59410  Biso   1.000  C
  C144     1.0000 0.74841  0.76600  0.90590  Biso   1.000  C
  C145     1.0000 0.21958  0.84050  0.41430  Biso   1.000  C
  C146     1.0000 0.78042  0.84050  0.08570  Biso   1.000  C
  C147     1.0000 0.71958  0.34050  0.41430  Biso   1.000  C
  C148     1.0000 0.28042  0.34050  0.08570  Biso   1.000  C
  C149     1.0000 0.78042  0.15950  0.58570  Biso   1.000  C
  C150     1.0000 0.21958  0.15950  0.91430  Biso   1.000  C
  C151     1.0000 0.28042  0.65950  0.58570  Biso   1.000  C
  C152     1.0000 0.71958  0.65950  0.91430  Biso   1.000  C
  C153     1.0000 0.15090  0.86980  0.39240  Biso   1.000  C
  C154     1.0000 0.84910  0.86980  0.10760  Biso   1.000  C
  C155     1.0000 0.65090  0.36980  0.39240  Biso   1.000  C
  C156     1.0000 0.34910  0.36980  0.10760  Biso   1.000  C
  C157     1.0000 0.84910  0.13020  0.60760  Biso   1.000  C
  C158     1.0000 0.15090  0.13020  0.89240  Biso   1.000  C
  C159     1.0000 0.34910  0.63020  0.60760  Biso   1.000  C
  C160     1.0000 0.65090  0.63020  0.89240  Biso   1.000  C
  H105     1.0000 0.12310  0.83040  0.37350  Biso   1.000  H
  H106     1.0000 0.87690  0.83040  0.12650  Biso   1.000  H
  H107     1.0000 0.62310  0.33040  0.37350  Biso   1.000  H
  H108     1.0000 0.37690  0.33040  0.12650  Biso   1.000  H
  H109     1.0000 0.87690  0.16960  0.62650  Biso   1.000  H
  H110     1.0000 0.12310  0.16960  0.87350  Biso   1.000  H
  H111     1.0000 0.37690  0.66960  0.62650  Biso   1.000  H
  H112     1.0000 0.62310  0.66960  0.87350  Biso   1.000  H
  C161     1.0000 0.16080  0.01590  0.42290  Biso   1.000  C
  C162     1.0000 0.83920  0.01590  0.07710  Biso   1.000  C
  C163     1.0000 0.66080  0.51590  0.42290  Biso   1.000  C
  C164     1.0000 0.33920  0.51590  0.07710  Biso   1.000  C
  C165     1.0000 0.83920  0.98410  0.57710  Biso   1.000  C
  C166     1.0000 0.16080  0.98410  0.92290  Biso   1.000  C
  C167     1.0000 0.33920  0.48410  0.57710  Biso   1.000  C
  C168     1.0000 0.66080  0.48410  0.92290  Biso   1.000  C
  H113     1.0000 0.14020  0.07460  0.42480  Biso   1.000  H
  H114     1.0000 0.85980  0.07460  0.07520  Biso   1.000  H
  H115     1.0000 0.64020  0.57460  0.42480  Biso   1.000  H
  H116     1.0000 0.35980  0.57460  0.07520  Biso   1.000  H
  H117     1.0000 0.85980  0.92540  0.57520  Biso   1.000  H
  H118     1.0000 0.14020  0.92540  0.92480  Biso   1.000  H
  H119     1.0000 0.35980  0.42540  0.57520  Biso   1.000  H
  H120     1.0000 0.64020  0.42540  0.92480  Biso   1.000  H
  C169     1.0000 0.20190  0.07450  0.45090  Biso   1.000  C
  C170     1.0000 0.79810  0.07450  0.04910  Biso   1.000  C
  C171     1.0000 0.70190  0.57450  0.45090  Biso   1.000  C
  C172     1.0000 0.29810  0.57450  0.04910  Biso   1.000  C
  C173     1.0000 0.79810  0.92550  0.54910  Biso   1.000  C
  C174     1.0000 0.20190  0.92550  0.95090  Biso   1.000  C
  C175     1.0000 0.29810  0.42550  0.54910  Biso   1.000  C
  C176     1.0000 0.70190  0.42550  0.95090  Biso   1.000  C
  H121     1.0000 0.20930  0.17350  0.47210  Biso   1.000  H
  H122     1.0000 0.79070  0.17350  0.02790  Biso   1.000  H
  H123     1.0000 0.70930  0.67350  0.47210  Biso   1.000  H
  H124     1.0000 0.29070  0.67350  0.02790  Biso   1.000  H
  H125     1.0000 0.79070  0.82650  0.52790  Biso   1.000  H
  H126     1.0000 0.20930  0.82650  0.97210  Biso   1.000  H
  H127     1.0000 0.29070  0.32650  0.52790  Biso   1.000  H
  H128     1.0000 0.70930  0.32650  0.97210  Biso   1.000  H
  C177     1.0000 0.23190  0.98630  0.44730  Biso   1.000  C
  C178     1.0000 0.76810  0.98630  0.05270  Biso   1.000  C
  C179     1.0000 0.73190  0.48630  0.44730  Biso   1.000  C
  C180     1.0000 0.26810  0.48630  0.05270  Biso   1.000  C
  C181     1.0000 0.76810  0.01370  0.55270  Biso   1.000  C
  C182     1.0000 0.23190  0.01370  0.94730  Biso   1.000  C
  C183     1.0000 0.26810  0.51370  0.55270  Biso   1.000  C
  C184     1.0000 0.73190  0.51370  0.94730  Biso   1.000  C
  H129     1.0000 0.26000  0.02370  0.46670  Biso   1.000  H
  H130     1.0000 0.74000  0.02370  0.03330  Biso   1.000  H
  H131     1.0000 0.76000  0.52370  0.46670  Biso   1.000  H
  H132     1.0000 0.24000  0.52370  0.03330  Biso   1.000  H
  H133     1.0000 0.74000  0.97630  0.53330  Biso   1.000  H
  H134     1.0000 0.26000  0.97630  0.96670  Biso   1.000  H
  H135     1.0000 0.24000  0.47630  0.53330  Biso   1.000  H
  H136     1.0000 0.76000  0.47630  0.96670  Biso   1.000  H
  C185     1.0000 0.62620  0.95820  0.39700  Biso   1.000  C
  C186     1.0000 0.37380  0.95820  0.10300  Biso   1.000  C
  C187     1.0000 0.12620  0.45820  0.39700  Biso   1.000  C
  C188     1.0000 0.87380  0.45820  0.10300  Biso   1.000  C
  C189     1.0000 0.37380  0.04180  0.60300  Biso   1.000  C
  C190     1.0000 0.62620  0.04180  0.89700  Biso   1.000  C
  C191     1.0000 0.87380  0.54180  0.60300  Biso   1.000  C
  C192     1.0000 0.12620  0.54180  0.89700  Biso   1.000  C
  C193     1.0000 0.58840  0.91990  0.40240  Biso   1.000  C
  C194     1.0000 0.41160  0.91990  0.09760  Biso   1.000  C
  C195     1.0000 0.08840  0.41990  0.40240  Biso   1.000  C
  C196     1.0000 0.91160  0.41990  0.09760  Biso   1.000  C
  C197     1.0000 0.41160  0.08010  0.59760  Biso   1.000  C
  C198     1.0000 0.58840  0.08010  0.90240  Biso   1.000  C
  C199     1.0000 0.91160  0.58010  0.59760  Biso   1.000  C
  C200     1.0000 0.08840  0.58010  0.90240  Biso   1.000  C
  C201     1.0000 0.54730  0.95790  0.34640  Biso   1.000  C
  C202     1.0000 0.45270  0.95790  0.15360  Biso   1.000  C
  C203     1.0000 0.04730  0.45790  0.34640  Biso   1.000  C
  C204     1.0000 0.95270  0.45790  0.15360  Biso   1.000  C
  C205     1.0000 0.45270  0.04210  0.65360  Biso   1.000  C
  C206     1.0000 0.54730  0.04210  0.84640  Biso   1.000  C
  C207     1.0000 0.95270  0.54210  0.65360  Biso   1.000  C
  C208     1.0000 0.04730  0.54210  0.84640  Biso   1.000  C
  H137     1.0000 0.54300  0.00700  0.30550  Biso   1.000  H
  H138     1.0000 0.45700  0.00700  0.19450  Biso   1.000  H
  H139     1.0000 0.04300  0.50700  0.30550  Biso   1.000  H
  H140     1.0000 0.95700  0.50700  0.19450  Biso   1.000  H
  H141     1.0000 0.45700  0.99300  0.69450  Biso   1.000  H
  H142     1.0000 0.54300  0.99300  0.80550  Biso   1.000  H
  H143     1.0000 0.95700  0.49300  0.69450  Biso   1.000  H
  H144     1.0000 0.04300  0.49300  0.80550  Biso   1.000  H
  C209     1.0000 0.59380  0.85720  0.46250  Biso   1.000  C
  C210     1.0000 0.40620  0.85720  0.03750  Biso   1.000  C
  C211     1.0000 0.09380  0.35720  0.46250  Biso   1.000  C
  C212     1.0000 0.90620  0.35720  0.03750  Biso   1.000  C
  C213     1.0000 0.40620  0.14280  0.53750  Biso   1.000  C
  C214     1.0000 0.59380  0.14280  0.96250  Biso   1.000  C
  C215     1.0000 0.90620  0.64280  0.53750  Biso   1.000  C
  C216     1.0000 0.09380  0.64280  0.96250  Biso   1.000  C
  H145     1.0000 0.62190  0.83680  0.50140  Biso   1.000  H
  H146     1.0000 0.37810  0.83680  0.99860  Biso   1.000  H
  H147     1.0000 0.12190  0.33680  0.50140  Biso   1.000  H
  H148     1.0000 0.87810  0.33680  0.99860  Biso   1.000  H
  H149     1.0000 0.37810  0.16320  0.49860  Biso   1.000  H
  H150     1.0000 0.62190  0.16320  0.00140  Biso   1.000  H
  H151     1.0000 0.87810  0.66320  0.49860  Biso   1.000  H
  H152     1.0000 0.12190  0.66320  0.00140  Biso   1.000  H
  N25      1.0000 0.15320  0.70240  0.19770  Biso   1.000  N
  N26      1.0000 0.84680  0.70240  0.30230  Biso   1.000  N
  N27      1.0000 0.65320  0.20240  0.19770  Biso   1.000  N
  N28      1.0000 0.34680  0.20240  0.30230  Biso   1.000  N
  N29      1.0000 0.84680  0.29760  0.80230  Biso   1.000  N
  N30      1.0000 0.15320  0.29760  0.69770  Biso   1.000  N
  N31      1.0000 0.34680  0.79760  0.80230  Biso   1.000  N
  N32      1.0000 0.65320  0.79760  0.69770  Biso   1.000  N
  O33      1.0000 0.18970  0.67470  0.22420  Biso   1.000  O
  O34      1.0000 0.81030  0.67470  0.27580  Biso   1.000  O
  O35      1.0000 0.68970  0.17470  0.22420  Biso   1.000  O
  O36      1.0000 0.31030  0.17470  0.27580  Biso   1.000  O
  O37      1.0000 0.81030  0.32530  0.77580  Biso   1.000  O
  O38      1.0000 0.18970  0.32530  0.72420  Biso   1.000  O
  O39      1.0000 0.31030  0.82530  0.77580  Biso   1.000  O
  O40      1.0000 0.68970  0.82530  0.72420  Biso   1.000  O
  O41      1.0000 0.13450  0.75860  0.14010  Biso   1.000  O
  O42      1.0000 0.86550  0.75860  0.35990  Biso   1.000  O
  O43      1.0000 0.63450  0.25860  0.14010  Biso   1.000  O
  O44      1.0000 0.36550  0.25860  0.35990  Biso   1.000  O
  O45      1.0000 0.86550  0.24140  0.85990  Biso   1.000  O
  O46      1.0000 0.13450  0.24140  0.64010  Biso   1.000  O
  O47      1.0000 0.36550  0.74140  0.85990  Biso   1.000  O
  O48      1.0000 0.63450  0.74140  0.64010  Biso   1.000  O
  C217     1.0000 0.51940  0.85120  0.41390  Biso   1.000  C
  C218     1.0000 0.48060  0.85120  0.08610  Biso   1.000  C
  C219     1.0000 0.01940  0.35120  0.41390  Biso   1.000  C
  C220     1.0000 0.98060  0.35120  0.08610  Biso   1.000  C
  C221     1.0000 0.48060  0.14880  0.58610  Biso   1.000  C
  C222     1.0000 0.51940  0.14880  0.91390  Biso   1.000  C
  C223     1.0000 0.98060  0.64880  0.58610  Biso   1.000  C
  C224     1.0000 0.01940  0.64880  0.91390  Biso   1.000  C
  C225     1.0000 0.51210  0.92270  0.35120  Biso   1.000  C
  C226     1.0000 0.48790  0.92270  0.14880  Biso   1.000  C
  C227     1.0000 0.01210  0.42270  0.35120  Biso   1.000  C
  C228     1.0000 0.98790  0.42270  0.14880  Biso   1.000  C
  C229     1.0000 0.48790  0.07730  0.64880  Biso   1.000  C
  C230     1.0000 0.51210  0.07730  0.85120  Biso   1.000  C
  C231     1.0000 0.98790  0.57730  0.64880  Biso   1.000  C
  C232     1.0000 0.01210  0.57730  0.85120  Biso   1.000  C
  H153     1.0000 0.48390  0.94630  0.31310  Biso   1.000  H
  H154     1.0000 0.51610  0.94630  0.18690  Biso   1.000  H
  H155     1.0000 0.98390  0.44630  0.31310  Biso   1.000  H
  H156     1.0000 0.01610  0.44630  0.18690  Biso   1.000  H
  H157     1.0000 0.51610  0.05370  0.68690  Biso   1.000  H
  H158     1.0000 0.48390  0.05370  0.81310  Biso   1.000  H
  H159     1.0000 0.01610  0.55370  0.68690  Biso   1.000  H
  H160     1.0000 0.98390  0.55370  0.81310  Biso   1.000  H
