data_image0
_cell_length_a       7.6655
_cell_length_b       13.1032
_cell_length_c       11.183
_cell_angle_alpha    90
_cell_angle_beta     90
_cell_angle_gamma    90

_symmetry_space_group_name_H-M    "P 1"
_symmetry_int_tables_number       1

loop_
  _symmetry_equiv_pos_as_xyz
  'x, y, z'

loop_
  _atom_site_label
  _atom_site_occupancy
  _atom_site_fract_x
  _atom_site_fract_y
  _atom_site_fract_z
  _atom_site_thermal_displace_type
  _atom_site_B_iso_or_equiv
  _atom_site_type_symbol
  Cu1      1.0000 0.50000  0.50000  0.31675  Biso   1.000  Cu
  Cu2      1.0000 0.00000  0.00000  0.68325  Biso   1.000  Cu
  N1       1.0000 0.50000  0.50000  0.13180  Biso   1.000  N
  N2       1.0000 0.00000  0.00000  0.86820  Biso   1.000  N
  N3       1.0000 0.50000  0.50000  0.49930  Biso   1.000  N
  N4       1.0000 0.00000  0.00000  0.50070  Biso   1.000  N
  O1       1.0000 0.97760  0.36530  0.35710  Biso   1.000  O
  O2       1.0000 0.02240  0.63470  0.35710  Biso   1.000  O
  O3       1.0000 0.47760  0.13470  0.64290  Biso   1.000  O
  O4       1.0000 0.52240  0.86530  0.64290  Biso   1.000  O
  O5       1.0000 0.25480  0.39735  0.32000  Biso   1.000  O
  O6       1.0000 0.74520  0.60265  0.32000  Biso   1.000  O
  O7       1.0000 0.75480  0.10265  0.68000  Biso   1.000  O
  O8       1.0000 0.24520  0.89735  0.68000  Biso   1.000  O
  O9       1.0000 0.63712  0.37055  0.31555  Biso   1.000  O
  O10      1.0000 0.36288  0.62945  0.31555  Biso   1.000  O
  O11      1.0000 0.13712  0.12945  0.68445  Biso   1.000  O
  O12      1.0000 0.86288  0.87055  0.68445  Biso   1.000  O
  H1       1.0000 0.73980  0.38730  0.30900  Biso   1.000  H
  H2       1.0000 0.26020  0.61270  0.30900  Biso   1.000  H
  H3       1.0000 0.23980  0.11270  0.69100  Biso   1.000  H
  H4       1.0000 0.76020  0.88730  0.69100  Biso   1.000  H
  H5       1.0000 0.60910  0.31730  0.34900  Biso   1.000  H
  H6       1.0000 0.39090  0.68270  0.34900  Biso   1.000  H
  H7       1.0000 0.10910  0.18270  0.65100  Biso   1.000  H
  H8       1.0000 0.89090  0.81730  0.65100  Biso   1.000  H
  C1       1.0000 0.47210  0.58543  0.06940  Biso   1.000  C
  C2       1.0000 0.52790  0.41457  0.06940  Biso   1.000  C
  C3       1.0000 0.97210  0.91457  0.93060  Biso   1.000  C
  C4       1.0000 0.02790  0.08543  0.93060  Biso   1.000  C
  H9       1.0000 0.45210  0.64580  0.11100  Biso   1.000  H
  H10      1.0000 0.54790  0.35420  0.11100  Biso   1.000  H
  H11      1.0000 0.95210  0.85420  0.88900  Biso   1.000  H
  H12      1.0000 0.04790  0.14580  0.88900  Biso   1.000  H
  C5       1.0000 0.47140  0.58808  0.94600  Biso   1.000  C
  C6       1.0000 0.52860  0.41192  0.94600  Biso   1.000  C
  C7       1.0000 0.97140  0.91192  0.05400  Biso   1.000  C
  C8       1.0000 0.02860  0.08808  0.05400  Biso   1.000  C
  H13      1.0000 0.45160  0.64940  0.90640  Biso   1.000  H
  H14      1.0000 0.54840  0.35060  0.90640  Biso   1.000  H
  H15      1.0000 0.95160  0.85060  0.09360  Biso   1.000  H
  H16      1.0000 0.04840  0.14940  0.09360  Biso   1.000  H
  C9       1.0000 0.50000  0.50000  0.88100  Biso   1.000  C
  C10      1.0000 0.00000  0.00000  0.11900  Biso   1.000  C
  C11      1.0000 0.50000  0.50000  0.74880  Biso   1.000  C
  C12      1.0000 0.00000  0.00000  0.25120  Biso   1.000  C
  C13      1.0000 0.57540  0.57890  0.68500  Biso   1.000  C
  C14      1.0000 0.42460  0.42110  0.68500  Biso   1.000  C
  C15      1.0000 0.07540  0.92110  0.31500  Biso   1.000  C
  C16      1.0000 0.92460  0.07890  0.31500  Biso   1.000  C
  H17      1.0000 0.62650  0.63350  0.72500  Biso   1.000  H
  H18      1.0000 0.37350  0.36650  0.72500  Biso   1.000  H
  H19      1.0000 0.12650  0.86650  0.27500  Biso   1.000  H
  H20      1.0000 0.87350  0.13350  0.27500  Biso   1.000  H
  C17      1.0000 0.57430  0.57620  0.56090  Biso   1.000  C
  C18      1.0000 0.42570  0.42380  0.56090  Biso   1.000  C
  C19      1.0000 0.07430  0.92380  0.43910  Biso   1.000  C
  C20      1.0000 0.92570  0.07620  0.43910  Biso   1.000  C
  H21      1.0000 0.62710  0.62920  0.51900  Biso   1.000  H
  H22      1.0000 0.37290  0.37080  0.51900  Biso   1.000  H
  H23      1.0000 0.12710  0.87080  0.48100  Biso   1.000  H
  H24      1.0000 0.87290  0.12920  0.48100  Biso   1.000  H
  C21      1.0000 0.09840  0.40125  0.29620  Biso   1.000  C
  C22      1.0000 0.90160  0.59875  0.29620  Biso   1.000  C
  C23      1.0000 0.59840  0.09875  0.70380  Biso   1.000  C
  C24      1.0000 0.40160  0.90125  0.70380  Biso   1.000  C
  C25      1.0000 0.04430  0.45391  0.18090  Biso   1.000  C
  C26      1.0000 0.95570  0.54609  0.18090  Biso   1.000  C
  C27      1.0000 0.54430  0.04609  0.81910  Biso   1.000  C
  C28      1.0000 0.45570  0.95391  0.81910  Biso   1.000  C
  C29      1.0000 0.08450  0.40900  0.07320  Biso   1.000  C
  C30      1.0000 0.91550  0.59100  0.07320  Biso   1.000  C
  C31      1.0000 0.58450  0.09100  0.92680  Biso   1.000  C
  C32      1.0000 0.41550  0.90900  0.92680  Biso   1.000  C
  C33      1.0000 0.04210  0.45370  0.96670  Biso   1.000  C
  C34      1.0000 0.95790  0.54630  0.96670  Biso   1.000  C
  C35      1.0000 0.54210  0.04630  0.03330  Biso   1.000  C
  C36      1.0000 0.45790  0.95370  0.03330  Biso   1.000  C
  F1       1.0000 0.16610  0.31801  0.06980  Biso   1.000  F
  F2       1.0000 0.83390  0.68199  0.06980  Biso   1.000  F
  F3       1.0000 0.66610  0.18199  0.93020  Biso   1.000  F
  F4       1.0000 0.33390  0.81801  0.93020  Biso   1.000  F
  F5       1.0000 0.08310  0.40880  0.86200  Biso   1.000  F
  F6       1.0000 0.91690  0.59120  0.86200  Biso   1.000  F
  F7       1.0000 0.58310  0.09120  0.13800  Biso   1.000  F
  F8       1.0000 0.41690  0.90880  0.13800  Biso   1.000  F
  O13      1.0000 0.52470  0.19817  0.41522  Biso   1.000  O
  O14      1.0000 0.47530  0.80183  0.41522  Biso   1.000  O
  O15      1.0000 0.02470  0.30183  0.58478  Biso   1.000  O
  O16      1.0000 0.97530  0.69817  0.58478  Biso   1.000  O
  H25      1.0000 0.53080  0.18530  0.48690  Biso   1.000  H
  H26      1.0000 0.46920  0.81470  0.48690  Biso   1.000  H
  H27      1.0000 0.03080  0.31470  0.51310  Biso   1.000  H
  H28      1.0000 0.96920  0.68530  0.51310  Biso   1.000  H
  C37      1.0000 0.36950  0.15550  0.36770  Biso   1.000  C
  C38      1.0000 0.63050  0.84450  0.36770  Biso   1.000  C
  C39      1.0000 0.86950  0.34450  0.63230  Biso   1.000  C
  C40      1.0000 0.13050  0.65550  0.63230  Biso   1.000  C
  H29      1.0000 0.27290  0.17260  0.41850  Biso   1.000  H
  H30      1.0000 0.72710  0.82740  0.41850  Biso   1.000  H
  H31      1.0000 0.77290  0.32740  0.58150  Biso   1.000  H
  H32      1.0000 0.22710  0.67260  0.58150  Biso   1.000  H
  H33      1.0000 0.38120  0.08270  0.36340  Biso   1.000  H
  H34      1.0000 0.61880  0.91730  0.36340  Biso   1.000  H
  H35      1.0000 0.88120  0.41730  0.63660  Biso   1.000  H
  H36      1.0000 0.11880  0.58270  0.63660  Biso   1.000  H
  H37      1.0000 0.34950  0.18240  0.28900  Biso   1.000  H
  H38      1.0000 0.65050  0.81760  0.28900  Biso   1.000  H
  H39      1.0000 0.84950  0.31760  0.71100  Biso   1.000  H
  H40      1.0000 0.15050  0.68240  0.71100  Biso   1.000  H
