data_image0
_cell_length_a       11.899
_cell_length_b       21.435
_cell_length_c       16.727
_cell_angle_alpha    90
_cell_angle_beta     108.64
_cell_angle_gamma    90

_symmetry_space_group_name_H-M    "P 1"
_symmetry_int_tables_number       1

loop_
  _symmetry_equiv_pos_as_xyz
  'x, y, z'

loop_
  _atom_site_label
  _atom_site_occupancy
  _atom_site_fract_x
  _atom_site_fract_y
  _atom_site_fract_z
  _atom_site_thermal_displace_type
  _atom_site_B_iso_or_equiv
  _atom_site_type_symbol
  Cu1      1.0000 0.00000  0.02844  0.25000  Biso   1.000  Cu
  Cu2      1.0000 0.50000  0.52844  0.25000  Biso   1.000  Cu
  Cu3      1.0000 0.00000  0.97156  0.75000  Biso   1.000  Cu
  Cu4      1.0000 0.50000  0.47156  0.75000  Biso   1.000  Cu
  Cu5      1.0000 0.87174  0.91062  0.22681  Biso   1.000  Cu
  Cu6      1.0000 0.37174  0.41062  0.22681  Biso   1.000  Cu
  Cu7      1.0000 0.87174  0.08938  0.72681  Biso   1.000  Cu
  Cu8      1.0000 0.37174  0.58938  0.72681  Biso   1.000  Cu
  Cu9      1.0000 0.12826  0.08938  0.77319  Biso   1.000  Cu
  Cu10     1.0000 0.62826  0.58938  0.77319  Biso   1.000  Cu
  Cu11     1.0000 0.12826  0.91062  0.27319  Biso   1.000  Cu
  Cu12     1.0000 0.62826  0.41062  0.27319  Biso   1.000  Cu
  Cu13     1.0000 0.75000  0.25000  0.00000  Biso   1.000  Cu
  Cu14     1.0000 0.25000  0.75000  0.00000  Biso   1.000  Cu
  Cu15     1.0000 0.75000  0.75000  0.50000  Biso   1.000  Cu
  Cu16     1.0000 0.25000  0.25000  0.50000  Biso   1.000  Cu
  N1       1.0000 0.99280  0.09980  0.15550  Biso   1.000  N
  N2       1.0000 0.49280  0.59980  0.15550  Biso   1.000  N
  N3       1.0000 0.99280  0.90020  0.65550  Biso   1.000  N
  N4       1.0000 0.49280  0.40020  0.65550  Biso   1.000  N
  N5       1.0000 0.00720  0.90020  0.84450  Biso   1.000  N
  N6       1.0000 0.50720  0.40020  0.84450  Biso   1.000  N
  N7       1.0000 0.00720  0.09980  0.34450  Biso   1.000  N
  N8       1.0000 0.50720  0.59980  0.34450  Biso   1.000  N
  C1       1.0000 0.90110  0.13550  0.11670  Biso   1.000  C
  C2       1.0000 0.40110  0.63550  0.11670  Biso   1.000  C
  C3       1.0000 0.90110  0.86450  0.61670  Biso   1.000  C
  C4       1.0000 0.40110  0.36450  0.61670  Biso   1.000  C
  C5       1.0000 0.09890  0.86450  0.88330  Biso   1.000  C
  C6       1.0000 0.59890  0.36450  0.88330  Biso   1.000  C
  C7       1.0000 0.09890  0.13550  0.38330  Biso   1.000  C
  C8       1.0000 0.59890  0.63550  0.38330  Biso   1.000  C
  N9       1.0000 0.90310  0.18840  0.07210  Biso   1.000  N
  N10      1.0000 0.40310  0.68840  0.07210  Biso   1.000  N
  N11      1.0000 0.90310  0.81160  0.57210  Biso   1.000  N
  N12      1.0000 0.40310  0.31160  0.57210  Biso   1.000  N
  N13      1.0000 0.09690  0.81160  0.92790  Biso   1.000  N
  N14      1.0000 0.59690  0.31160  0.92790  Biso   1.000  N
  N15      1.0000 0.09690  0.18840  0.42790  Biso   1.000  N
  N16      1.0000 0.59690  0.68840  0.42790  Biso   1.000  N
  C9       1.0000 0.01010  0.20550  0.07060  Biso   1.000  C
  C10      1.0000 0.51010  0.70550  0.07060  Biso   1.000  C
  C11      1.0000 0.01010  0.79450  0.57060  Biso   1.000  C
  C12      1.0000 0.51010  0.29450  0.57060  Biso   1.000  C
  C13      1.0000 0.98990  0.79450  0.92940  Biso   1.000  C
  C14      1.0000 0.48990  0.29450  0.92940  Biso   1.000  C
  C15      1.0000 0.98990  0.20550  0.42940  Biso   1.000  C
  C16      1.0000 0.48990  0.70550  0.42940  Biso   1.000  C
  H1       1.0000 0.01760  0.24260  0.04180  Biso   1.000  H
  H2       1.0000 0.51760  0.74260  0.04180  Biso   1.000  H
  H3       1.0000 0.01760  0.75740  0.54180  Biso   1.000  H
  H4       1.0000 0.51760  0.25740  0.54180  Biso   1.000  H
  H5       1.0000 0.98240  0.75740  0.95820  Biso   1.000  H
  H6       1.0000 0.48240  0.25740  0.95820  Biso   1.000  H
  H7       1.0000 0.98240  0.24260  0.45820  Biso   1.000  H
  H8       1.0000 0.48240  0.74260  0.45820  Biso   1.000  H
  C17      1.0000 0.10780  0.17160  0.10860  Biso   1.000  C
  C18      1.0000 0.60780  0.67160  0.10860  Biso   1.000  C
  C19      1.0000 0.10780  0.82840  0.60860  Biso   1.000  C
  C20      1.0000 0.60780  0.32840  0.60860  Biso   1.000  C
  C21      1.0000 0.89220  0.82840  0.89140  Biso   1.000  C
  C22      1.0000 0.39220  0.32840  0.89140  Biso   1.000  C
  C23      1.0000 0.89220  0.17160  0.39140  Biso   1.000  C
  C24      1.0000 0.39220  0.67160  0.39140  Biso   1.000  C
  H9       1.0000 0.18260  0.18480  0.10570  Biso   1.000  H
  H10      1.0000 0.68260  0.68480  0.10570  Biso   1.000  H
  H11      1.0000 0.18260  0.81520  0.60570  Biso   1.000  H
  H12      1.0000 0.68260  0.31520  0.60570  Biso   1.000  H
  H13      1.0000 0.81740  0.81520  0.89430  Biso   1.000  H
  H14      1.0000 0.31740  0.31520  0.89430  Biso   1.000  H
  H15      1.0000 0.81740  0.18480  0.39430  Biso   1.000  H
  H16      1.0000 0.31740  0.68480  0.39430  Biso   1.000  H
  C25      1.0000 0.09990  0.11900  0.15100  Biso   1.000  C
  C26      1.0000 0.59990  0.61900  0.15100  Biso   1.000  C
  C27      1.0000 0.09990  0.88100  0.65100  Biso   1.000  C
  C28      1.0000 0.59990  0.38100  0.65100  Biso   1.000  C
  C29      1.0000 0.90010  0.88100  0.84900  Biso   1.000  C
  C30      1.0000 0.40010  0.38100  0.84900  Biso   1.000  C
  C31      1.0000 0.90010  0.11900  0.34900  Biso   1.000  C
  C32      1.0000 0.40010  0.61900  0.34900  Biso   1.000  C
  H17      1.0000 0.16920  0.09520  0.17780  Biso   1.000  H
  H18      1.0000 0.66920  0.59520  0.17780  Biso   1.000  H
  H19      1.0000 0.16920  0.90480  0.67780  Biso   1.000  H
  H20      1.0000 0.66920  0.40480  0.67780  Biso   1.000  H
  H21      1.0000 0.83080  0.90480  0.82220  Biso   1.000  H
  H22      1.0000 0.33080  0.40480  0.82220  Biso   1.000  H
  H23      1.0000 0.83080  0.09520  0.32220  Biso   1.000  H
  H24      1.0000 0.33080  0.59520  0.32220  Biso   1.000  H
  N17      1.0000 0.79430  0.11700  0.11940  Biso   1.000  N
  N18      1.0000 0.29430  0.61700  0.11940  Biso   1.000  N
  N19      1.0000 0.79430  0.88300  0.61940  Biso   1.000  N
  N20      1.0000 0.29430  0.38300  0.61940  Biso   1.000  N
  N21      1.0000 0.20570  0.88300  0.88060  Biso   1.000  N
  N22      1.0000 0.70570  0.38300  0.88060  Biso   1.000  N
  N23      1.0000 0.20570  0.11700  0.38060  Biso   1.000  N
  N24      1.0000 0.70570  0.61700  0.38060  Biso   1.000  N
  H25      1.0000 0.78810  0.08240  0.14610  Biso   1.000  H
  H26      1.0000 0.28810  0.58240  0.14610  Biso   1.000  H
  H27      1.0000 0.78810  0.91760  0.64610  Biso   1.000  H
  H28      1.0000 0.28810  0.41760  0.64610  Biso   1.000  H
  H29      1.0000 0.21190  0.91760  0.85390  Biso   1.000  H
  H30      1.0000 0.71190  0.41760  0.85390  Biso   1.000  H
  H31      1.0000 0.21190  0.08240  0.35390  Biso   1.000  H
  H32      1.0000 0.71190  0.58240  0.35390  Biso   1.000  H
  H33      1.0000 0.73080  0.13930  0.09440  Biso   1.000  H
  H34      1.0000 0.23080  0.63930  0.09440  Biso   1.000  H
  H35      1.0000 0.73080  0.86070  0.59440  Biso   1.000  H
  H36      1.0000 0.23080  0.36070  0.59440  Biso   1.000  H
  H37      1.0000 0.26920  0.86070  0.90560  Biso   1.000  H
  H38      1.0000 0.76920  0.36070  0.90560  Biso   1.000  H
  H39      1.0000 0.26920  0.13930  0.40560  Biso   1.000  H
  H40      1.0000 0.76920  0.63930  0.40560  Biso   1.000  H
  N25      1.0000 0.74990  0.88790  0.11580  Biso   1.000  N
  N26      1.0000 0.24990  0.38790  0.11580  Biso   1.000  N
  N27      1.0000 0.74990  0.11210  0.61580  Biso   1.000  N
  N28      1.0000 0.24990  0.61210  0.61580  Biso   1.000  N
  N29      1.0000 0.25010  0.11210  0.88420  Biso   1.000  N
  N30      1.0000 0.75010  0.61210  0.88420  Biso   1.000  N
  N31      1.0000 0.25010  0.88790  0.38420  Biso   1.000  N
  N32      1.0000 0.75010  0.38790  0.38420  Biso   1.000  N
  C33      1.0000 0.74890  0.83470  0.07240  Biso   1.000  C
  C34      1.0000 0.24890  0.33470  0.07240  Biso   1.000  C
  C35      1.0000 0.74890  0.16530  0.57240  Biso   1.000  C
  C36      1.0000 0.24890  0.66530  0.57240  Biso   1.000  C
  C37      1.0000 0.25110  0.16530  0.92760  Biso   1.000  C
  C38      1.0000 0.75110  0.66530  0.92760  Biso   1.000  C
  C39      1.0000 0.25110  0.83470  0.42760  Biso   1.000  C
  C40      1.0000 0.75110  0.33470  0.42760  Biso   1.000  C
  N33      1.0000 0.66720  0.82230  0.99730  Biso   1.000  N
  N34      1.0000 0.16720  0.32230  0.99730  Biso   1.000  N
  N35      1.0000 0.66720  0.17770  0.49730  Biso   1.000  N
  N36      1.0000 0.16720  0.67770  0.49730  Biso   1.000  N
  N37      1.0000 0.33280  0.17770  0.00270  Biso   1.000  N
  N38      1.0000 0.83280  0.67770  0.00270  Biso   1.000  N
  N39      1.0000 0.33280  0.82230  0.50270  Biso   1.000  N
  N40      1.0000 0.83280  0.32230  0.50270  Biso   1.000  N
  C41      1.0000 0.58700  0.86590  0.96590  Biso   1.000  C
  C42      1.0000 0.08700  0.36590  0.96590  Biso   1.000  C
  C43      1.0000 0.58700  0.13410  0.46590  Biso   1.000  C
  C44      1.0000 0.08700  0.63410  0.46590  Biso   1.000  C
  C45      1.0000 0.41300  0.13410  0.03410  Biso   1.000  C
  C46      1.0000 0.91300  0.63410  0.03410  Biso   1.000  C
  C47      1.0000 0.41300  0.86590  0.53410  Biso   1.000  C
  C48      1.0000 0.91300  0.36590  0.53410  Biso   1.000  C
  H41      1.0000 0.52850  0.85800  0.91300  Biso   1.000  H
  H42      1.0000 0.02850  0.35800  0.91300  Biso   1.000  H
  H43      1.0000 0.52850  0.14200  0.41300  Biso   1.000  H
  H44      1.0000 0.02850  0.64200  0.41300  Biso   1.000  H
  H45      1.0000 0.47150  0.14200  0.08700  Biso   1.000  H
  H46      1.0000 0.97150  0.64200  0.08700  Biso   1.000  H
  H47      1.0000 0.47150  0.85800  0.58700  Biso   1.000  H
  H48      1.0000 0.97150  0.35800  0.58700  Biso   1.000  H
  C49      1.0000 0.58240  0.92210  0.00490  Biso   1.000  C
  C50      1.0000 0.08240  0.42210  0.00490  Biso   1.000  C
  C51      1.0000 0.58240  0.07790  0.50490  Biso   1.000  C
  C52      1.0000 0.08240  0.57790  0.50490  Biso   1.000  C
  C53      1.0000 0.41760  0.07790  0.99510  Biso   1.000  C
  C54      1.0000 0.91760  0.57790  0.99510  Biso   1.000  C
  C55      1.0000 0.41760  0.92210  0.49510  Biso   1.000  C
  C56      1.0000 0.91760  0.42210  0.49510  Biso   1.000  C
  H49      1.0000 0.52400  0.95280  0.98040  Biso   1.000  H
  H50      1.0000 0.02400  0.45280  0.98040  Biso   1.000  H
  H51      1.0000 0.52400  0.04720  0.48040  Biso   1.000  H
  H52      1.0000 0.02400  0.54720  0.48040  Biso   1.000  H
  H53      1.0000 0.47600  0.04720  0.01960  Biso   1.000  H
  H54      1.0000 0.97600  0.54720  0.01960  Biso   1.000  H
  H55      1.0000 0.47600  0.95280  0.51960  Biso   1.000  H
  H56      1.0000 0.97600  0.45280  0.51960  Biso   1.000  H
  C57      1.0000 0.66680  0.93030  0.08060  Biso   1.000  C
  C58      1.0000 0.16680  0.43030  0.08060  Biso   1.000  C
  C59      1.0000 0.66680  0.06970  0.58060  Biso   1.000  C
  C60      1.0000 0.16680  0.56970  0.58060  Biso   1.000  C
  C61      1.0000 0.33320  0.06970  0.91940  Biso   1.000  C
  C62      1.0000 0.83320  0.56970  0.91940  Biso   1.000  C
  C63      1.0000 0.33320  0.93030  0.41940  Biso   1.000  C
  C64      1.0000 0.83320  0.43030  0.41940  Biso   1.000  C
  H57      1.0000 0.66690  0.96820  0.11010  Biso   1.000  H
  H58      1.0000 0.16690  0.46820  0.11010  Biso   1.000  H
  H59      1.0000 0.66690  0.03180  0.61010  Biso   1.000  H
  H60      1.0000 0.16690  0.53180  0.61010  Biso   1.000  H
  H61      1.0000 0.33310  0.03180  0.88990  Biso   1.000  H
  H62      1.0000 0.83310  0.53180  0.88990  Biso   1.000  H
  H63      1.0000 0.33310  0.96820  0.38990  Biso   1.000  H
  H64      1.0000 0.83310  0.46820  0.38990  Biso   1.000  H
  N41      1.0000 0.83130  0.79340  0.10390  Biso   1.000  N
  N42      1.0000 0.33130  0.29340  0.10390  Biso   1.000  N
  N43      1.0000 0.83130  0.20660  0.60390  Biso   1.000  N
  N44      1.0000 0.33130  0.70660  0.60390  Biso   1.000  N
  N45      1.0000 0.16870  0.20660  0.89610  Biso   1.000  N
  N46      1.0000 0.66870  0.70660  0.89610  Biso   1.000  N
  N47      1.0000 0.16870  0.79340  0.39610  Biso   1.000  N
  N48      1.0000 0.66870  0.29340  0.39610  Biso   1.000  N
  H65      1.0000 0.83250  0.75860  0.07620  Biso   1.000  H
  H66      1.0000 0.33250  0.25860  0.07620  Biso   1.000  H
  H67      1.0000 0.83250  0.24140  0.57620  Biso   1.000  H
  H68      1.0000 0.33250  0.74140  0.57620  Biso   1.000  H
  H69      1.0000 0.16750  0.24140  0.92380  Biso   1.000  H
  H70      1.0000 0.66750  0.74140  0.92380  Biso   1.000  H
  H71      1.0000 0.16750  0.75860  0.42380  Biso   1.000  H
  H72      1.0000 0.66750  0.25860  0.42380  Biso   1.000  H
  H73      1.0000 0.88590  0.80020  0.15290  Biso   1.000  H
  H74      1.0000 0.38590  0.30020  0.15290  Biso   1.000  H
  H75      1.0000 0.88590  0.19980  0.65290  Biso   1.000  H
  H76      1.0000 0.38590  0.69980  0.65290  Biso   1.000  H
  H77      1.0000 0.11410  0.19980  0.84710  Biso   1.000  H
  H78      1.0000 0.61410  0.69980  0.84710  Biso   1.000  H
  H79      1.0000 0.11410  0.80020  0.34710  Biso   1.000  H
  H80      1.0000 0.61410  0.30020  0.34710  Biso   1.000  H
  N49      1.0000 0.71090  0.82650  0.39530  Biso   1.000  N
  N50      1.0000 0.21090  0.32650  0.39530  Biso   1.000  N
  N51      1.0000 0.71090  0.17350  0.89530  Biso   1.000  N
  N52      1.0000 0.21090  0.67350  0.89530  Biso   1.000  N
  N53      1.0000 0.28910  0.17350  0.60470  Biso   1.000  N
  N54      1.0000 0.78910  0.67350  0.60470  Biso   1.000  N
  N55      1.0000 0.28910  0.82650  0.10470  Biso   1.000  N
  N56      1.0000 0.78910  0.32650  0.10470  Biso   1.000  N
  C65      1.0000 0.77480  0.83780  0.34020  Biso   1.000  C
  C66      1.0000 0.27480  0.33780  0.34020  Biso   1.000  C
  C67      1.0000 0.77480  0.16220  0.84020  Biso   1.000  C
  C68      1.0000 0.27480  0.66220  0.84020  Biso   1.000  C
  C69      1.0000 0.22520  0.16220  0.65980  Biso   1.000  C
  C70      1.0000 0.72520  0.66220  0.65980  Biso   1.000  C
  C71      1.0000 0.22520  0.83780  0.15980  Biso   1.000  C
  C72      1.0000 0.72520  0.33780  0.15980  Biso   1.000  C
  N57      1.0000 0.76900  0.88960  0.29700  Biso   1.000  N
  N58      1.0000 0.26900  0.38960  0.29700  Biso   1.000  N
  N59      1.0000 0.76900  0.11040  0.79700  Biso   1.000  N
  N60      1.0000 0.26900  0.61040  0.79700  Biso   1.000  N
  N61      1.0000 0.23100  0.11040  0.70300  Biso   1.000  N
  N62      1.0000 0.73100  0.61040  0.70300  Biso   1.000  N
  N63      1.0000 0.23100  0.88960  0.20300  Biso   1.000  N
  N64      1.0000 0.73100  0.38960  0.20300  Biso   1.000  N
  C73      1.0000 0.69210  0.93460  0.30380  Biso   1.000  C
  C74      1.0000 0.19210  0.43460  0.30380  Biso   1.000  C
  C75      1.0000 0.69210  0.06540  0.80380  Biso   1.000  C
  C76      1.0000 0.19210  0.56540  0.80380  Biso   1.000  C
  C77      1.0000 0.30790  0.06540  0.69620  Biso   1.000  C
  C78      1.0000 0.80790  0.56540  0.69620  Biso   1.000  C
  C79      1.0000 0.30790  0.93460  0.19620  Biso   1.000  C
  C80      1.0000 0.80790  0.43460  0.19620  Biso   1.000  C
  H81      1.0000 0.68790  0.97270  0.27400  Biso   1.000  H
  H82      1.0000 0.18790  0.47270  0.27400  Biso   1.000  H
  H83      1.0000 0.68790  0.02730  0.77400  Biso   1.000  H
  H84      1.0000 0.18790  0.52730  0.77400  Biso   1.000  H
  H85      1.0000 0.31210  0.02730  0.72600  Biso   1.000  H
  H86      1.0000 0.81210  0.52730  0.72600  Biso   1.000  H
  H87      1.0000 0.31210  0.97270  0.22600  Biso   1.000  H
  H88      1.0000 0.81210  0.47270  0.22600  Biso   1.000  H
  C81      1.0000 0.62090  0.92580  0.35250  Biso   1.000  C
  C82      1.0000 0.12090  0.42580  0.35250  Biso   1.000  C
  C83      1.0000 0.62090  0.07420  0.85250  Biso   1.000  C
  C84      1.0000 0.12090  0.57420  0.85250  Biso   1.000  C
  C85      1.0000 0.37910  0.07420  0.64750  Biso   1.000  C
  C86      1.0000 0.87910  0.57420  0.64750  Biso   1.000  C
  C87      1.0000 0.37910  0.92580  0.14750  Biso   1.000  C
  C88      1.0000 0.87910  0.42580  0.14750  Biso   1.000  C
  H89      1.0000 0.56480  0.95620  0.35630  Biso   1.000  H
  H90      1.0000 0.06480  0.45620  0.35630  Biso   1.000  H
  H91      1.0000 0.56480  0.04380  0.85630  Biso   1.000  H
  H92      1.0000 0.06480  0.54380  0.85630  Biso   1.000  H
  H93      1.0000 0.43520  0.04380  0.64370  Biso   1.000  H
  H94      1.0000 0.93520  0.54380  0.64370  Biso   1.000  H
  H95      1.0000 0.43520  0.95620  0.14370  Biso   1.000  H
  H96      1.0000 0.93520  0.45620  0.14370  Biso   1.000  H
  C89      1.0000 0.63500  0.87080  0.39550  Biso   1.000  C
  C90      1.0000 0.13500  0.37080  0.39550  Biso   1.000  C
  C91      1.0000 0.63500  0.12920  0.89550  Biso   1.000  C
  C92      1.0000 0.13500  0.62920  0.89550  Biso   1.000  C
  C93      1.0000 0.36500  0.12920  0.60450  Biso   1.000  C
  C94      1.0000 0.86500  0.62920  0.60450  Biso   1.000  C
  C95      1.0000 0.36500  0.87080  0.10450  Biso   1.000  C
  C96      1.0000 0.86500  0.37080  0.10450  Biso   1.000  C
  H97      1.0000 0.58490  0.86390  0.42890  Biso   1.000  H
  H98      1.0000 0.08490  0.36390  0.42890  Biso   1.000  H
  H99      1.0000 0.58490  0.13610  0.92890  Biso   1.000  H
  H100     1.0000 0.08490  0.63610  0.92890  Biso   1.000  H
  H101     1.0000 0.41510  0.13610  0.57110  Biso   1.000  H
  H102     1.0000 0.91510  0.63610  0.57110  Biso   1.000  H
  H103     1.0000 0.41510  0.86390  0.07110  Biso   1.000  H
  H104     1.0000 0.91510  0.36390  0.07110  Biso   1.000  H
  N65      1.0000 0.84900  0.79280  0.33590  Biso   1.000  N
  N66      1.0000 0.34900  0.29280  0.33590  Biso   1.000  N
  N67      1.0000 0.84900  0.20720  0.83590  Biso   1.000  N
  N68      1.0000 0.34900  0.70720  0.83590  Biso   1.000  N
  N69      1.0000 0.15100  0.20720  0.66410  Biso   1.000  N
  N70      1.0000 0.65100  0.70720  0.66410  Biso   1.000  N
  N71      1.0000 0.15100  0.79280  0.16410  Biso   1.000  N
  N72      1.0000 0.65100  0.29280  0.16410  Biso   1.000  N
  H105     1.0000 0.89460  0.79750  0.30410  Biso   1.000  H
  H106     1.0000 0.39460  0.29750  0.30410  Biso   1.000  H
  H107     1.0000 0.89460  0.20250  0.80410  Biso   1.000  H
  H108     1.0000 0.39460  0.70250  0.80410  Biso   1.000  H
  H109     1.0000 0.10540  0.20250  0.69590  Biso   1.000  H
  H110     1.0000 0.60540  0.70250  0.69590  Biso   1.000  H
  H111     1.0000 0.10540  0.79750  0.19590  Biso   1.000  H
  H112     1.0000 0.60540  0.29750  0.19590  Biso   1.000  H
  H113     1.0000 0.85260  0.75820  0.36500  Biso   1.000  H
  H114     1.0000 0.35260  0.25820  0.36500  Biso   1.000  H
  H115     1.0000 0.85260  0.24180  0.86500  Biso   1.000  H
  H116     1.0000 0.35260  0.74180  0.86500  Biso   1.000  H
  H117     1.0000 0.14740  0.24180  0.63500  Biso   1.000  H
  H118     1.0000 0.64740  0.74180  0.63500  Biso   1.000  H
  H119     1.0000 0.14740  0.75820  0.13500  Biso   1.000  H
  H120     1.0000 0.64740  0.25820  0.13500  Biso   1.000  H
  O1       1.0000 0.99300  0.93930  0.17730  Biso   1.000  O
  O2       1.0000 0.49300  0.43930  0.17730  Biso   1.000  O
  O3       1.0000 0.99300  0.06070  0.67730  Biso   1.000  O
  O4       1.0000 0.49300  0.56070  0.67730  Biso   1.000  O
  O5       1.0000 0.00700  0.06070  0.82270  Biso   1.000  O
  O6       1.0000 0.50700  0.56070  0.82270  Biso   1.000  O
  O7       1.0000 0.00700  0.93930  0.32270  Biso   1.000  O
  O8       1.0000 0.50700  0.43930  0.32270  Biso   1.000  O
  C97      1.0000 0.98490  0.94110  0.09180  Biso   1.000  C
  C98      1.0000 0.48490  0.44110  0.09180  Biso   1.000  C
  C99      1.0000 0.98490  0.05890  0.59180  Biso   1.000  C
  C100     1.0000 0.48490  0.55890  0.59180  Biso   1.000  C
  C101     1.0000 0.01510  0.05890  0.90820  Biso   1.000  C
  C102     1.0000 0.51510  0.55890  0.90820  Biso   1.000  C
  C103     1.0000 0.01510  0.94110  0.40820  Biso   1.000  C
  C104     1.0000 0.51510  0.44110  0.40820  Biso   1.000  C
  H121     1.0000 0.98250  0.89850  0.07020  Biso   1.000  H
  H122     1.0000 0.48250  0.39850  0.07020  Biso   1.000  H
  H123     1.0000 0.98250  0.10150  0.57020  Biso   1.000  H
  H124     1.0000 0.48250  0.60150  0.57020  Biso   1.000  H
  H125     1.0000 0.01750  0.10150  0.92980  Biso   1.000  H
  H126     1.0000 0.51750  0.60150  0.92980  Biso   1.000  H
  H127     1.0000 0.01750  0.89850  0.42980  Biso   1.000  H
  H128     1.0000 0.51750  0.39850  0.42980  Biso   1.000  H
  H129     1.0000 0.05410  0.96290  0.08570  Biso   1.000  H
  H130     1.0000 0.55410  0.46290  0.08570  Biso   1.000  H
  H131     1.0000 0.05410  0.03710  0.58570  Biso   1.000  H
  H132     1.0000 0.55410  0.53710  0.58570  Biso   1.000  H
  H133     1.0000 0.94590  0.03710  0.91430  Biso   1.000  H
  H134     1.0000 0.44590  0.53710  0.91430  Biso   1.000  H
  H135     1.0000 0.94590  0.96290  0.41430  Biso   1.000  H
  H136     1.0000 0.44590  0.46290  0.41430  Biso   1.000  H
  H137     1.0000 0.91250  0.96330  0.05970  Biso   1.000  H
  H138     1.0000 0.41250  0.46330  0.05970  Biso   1.000  H
  H139     1.0000 0.91250  0.03670  0.55970  Biso   1.000  H
  H140     1.0000 0.41250  0.53670  0.55970  Biso   1.000  H
  H141     1.0000 0.08750  0.03670  0.94030  Biso   1.000  H
  H142     1.0000 0.58750  0.53670  0.94030  Biso   1.000  H
  H143     1.0000 0.08750  0.96330  0.44030  Biso   1.000  H
  H144     1.0000 0.58750  0.46330  0.44030  Biso   1.000  H
  F1       1.0000 0.83380  0.01710  0.22050  Biso   1.000  F
  F2       1.0000 0.33380  0.51710  0.22050  Biso   1.000  F
  F3       1.0000 0.83380  0.98290  0.72050  Biso   1.000  F
  F4       1.0000 0.33380  0.48290  0.72050  Biso   1.000  F
  F5       1.0000 0.16620  0.98290  0.77950  Biso   1.000  F
  F6       1.0000 0.66620  0.48290  0.77950  Biso   1.000  F
  F7       1.0000 0.16620  0.01710  0.27950  Biso   1.000  F
  F8       1.0000 0.66620  0.51710  0.27950  Biso   1.000  F
  F9       1.0000 0.00000  0.81960  0.25000  Biso   1.000  F
  F10      1.0000 0.50000  0.31960  0.25000  Biso   1.000  F
  F11      1.0000 0.00000  0.18040  0.75000  Biso   1.000  F
  F12      1.0000 0.50000  0.68040  0.75000  Biso   1.000  F
  F13      1.0000 0.85390  0.29190  0.95600  Biso   1.000  F
  F14      1.0000 0.35390  0.79190  0.95600  Biso   1.000  F
  F15      1.0000 0.85390  0.70810  0.45600  Biso   1.000  F
  F16      1.0000 0.35390  0.20810  0.45600  Biso   1.000  F
  F17      1.0000 0.14610  0.70810  0.04400  Biso   1.000  F
  F18      1.0000 0.64610  0.20810  0.04400  Biso   1.000  F
  F19      1.0000 0.14610  0.29190  0.54400  Biso   1.000  F
  F20      1.0000 0.64610  0.79190  0.54400  Biso   1.000  F
  B1       1.0000 0.47220  0.08600  0.24490  Biso   1.000  B
  B2       1.0000 0.97220  0.58600  0.24490  Biso   1.000  B
  B3       1.0000 0.47220  0.91400  0.74490  Biso   1.000  B
  B4       1.0000 0.97220  0.41400  0.74490  Biso   1.000  B
  B5       1.0000 0.52780  0.91400  0.75510  Biso   1.000  B
  B6       1.0000 0.02780  0.41400  0.75510  Biso   1.000  B
  B7       1.0000 0.52780  0.08600  0.25510  Biso   1.000  B
  B8       1.0000 0.02780  0.58600  0.25510  Biso   1.000  B
  F21      1.0000 0.46600  0.05530  0.31450  Biso   1.000  F
  F22      1.0000 0.96600  0.55530  0.31450  Biso   1.000  F
  F23      1.0000 0.46600  0.94470  0.81450  Biso   1.000  F
  F24      1.0000 0.96600  0.44470  0.81450  Biso   1.000  F
  F25      1.0000 0.53400  0.94470  0.68550  Biso   1.000  F
  F26      1.0000 0.03400  0.44470  0.68550  Biso   1.000  F
  F27      1.0000 0.53400  0.05530  0.18550  Biso   1.000  F
  F28      1.0000 0.03400  0.55530  0.18550  Biso   1.000  F
  F29      1.0000 0.55830  0.05970  0.21830  Biso   1.000  F
  F30      1.0000 0.05830  0.55970  0.21830  Biso   1.000  F
  F31      1.0000 0.55830  0.94030  0.71830  Biso   1.000  F
  F32      1.0000 0.05830  0.44030  0.71830  Biso   1.000  F
  F33      1.0000 0.44170  0.94030  0.78170  Biso   1.000  F
  F34      1.0000 0.94170  0.44030  0.78170  Biso   1.000  F
  F35      1.0000 0.44170  0.05970  0.28170  Biso   1.000  F
  F36      1.0000 0.94170  0.55970  0.28170  Biso   1.000  F
  F37      1.0000 0.49900  0.14700  0.26410  Biso   1.000  F
  F38      1.0000 0.99900  0.64700  0.26410  Biso   1.000  F
  F39      1.0000 0.49900  0.85300  0.76410  Biso   1.000  F
  F40      1.0000 0.99900  0.35300  0.76410  Biso   1.000  F
  F41      1.0000 0.50100  0.85300  0.73590  Biso   1.000  F
  F42      1.0000 0.00100  0.35300  0.73590  Biso   1.000  F
  F43      1.0000 0.50100  0.14700  0.23590  Biso   1.000  F
  F44      1.0000 0.00100  0.64700  0.23590  Biso   1.000  F
  F45      1.0000 0.36600  0.08180  0.18240  Biso   1.000  F
  F46      1.0000 0.86600  0.58180  0.18240  Biso   1.000  F
  F47      1.0000 0.36600  0.91820  0.68240  Biso   1.000  F
  F48      1.0000 0.86600  0.41820  0.68240  Biso   1.000  F
  F49      1.0000 0.63400  0.91820  0.81760  Biso   1.000  F
  F50      1.0000 0.13400  0.41820  0.81760  Biso   1.000  F
  F51      1.0000 0.63400  0.08180  0.31760  Biso   1.000  F
  F52      1.0000 0.13400  0.58180  0.31760  Biso   1.000  F
