data_image0
_cell_length_a       16.7033
_cell_length_b       9.3648
_cell_length_c       19.686
_cell_angle_alpha    90
_cell_angle_beta     108.139
_cell_angle_gamma    90

_symmetry_space_group_name_H-M    "P 1"
_symmetry_int_tables_number       1

loop_
  _symmetry_equiv_pos_as_xyz
  'x, y, z'

loop_
  _atom_site_label
  _atom_site_occupancy
  _atom_site_fract_x
  _atom_site_fract_y
  _atom_site_fract_z
  _atom_site_thermal_displace_type
  _atom_site_B_iso_or_equiv
  _atom_site_type_symbol
  Cu1      1.0000 0.25000  0.75000  0.50000  Biso   1.000  Cu
  Cu2      1.0000 0.75000  0.75000  0.00000  Biso   1.000  Cu
  Cu3      1.0000 0.75000  0.25000  0.50000  Biso   1.000  Cu
  Cu4      1.0000 0.25000  0.25000  0.00000  Biso   1.000  Cu
  O1       1.0000 0.18767  0.70230  0.40221  Biso   1.000  O
  O2       1.0000 0.81233  0.70230  0.09779  Biso   1.000  O
  O3       1.0000 0.68767  0.20230  0.40221  Biso   1.000  O
  O4       1.0000 0.31233  0.20230  0.09779  Biso   1.000  O
  O5       1.0000 0.81233  0.29770  0.59779  Biso   1.000  O
  O6       1.0000 0.18767  0.29770  0.90221  Biso   1.000  O
  O7       1.0000 0.31233  0.79770  0.59779  Biso   1.000  O
  O8       1.0000 0.68767  0.79770  0.90221  Biso   1.000  O
  O9       1.0000 0.31185  0.60650  0.40969  Biso   1.000  O
  O10      1.0000 0.68815  0.60650  0.09031  Biso   1.000  O
  O11      1.0000 0.81185  0.10650  0.40969  Biso   1.000  O
  O12      1.0000 0.18815  0.10650  0.09031  Biso   1.000  O
  O13      1.0000 0.68815  0.39350  0.59031  Biso   1.000  O
  O14      1.0000 0.31185  0.39350  0.90969  Biso   1.000  O
  O15      1.0000 0.18815  0.89350  0.59031  Biso   1.000  O
  O16      1.0000 0.81185  0.89350  0.90969  Biso   1.000  O
  N1       1.0000 0.77440  0.55540  0.96983  Biso   1.000  N
  N2       1.0000 0.22560  0.55540  0.53017  Biso   1.000  N
  N3       1.0000 0.27440  0.05540  0.96983  Biso   1.000  N
  N4       1.0000 0.72560  0.05540  0.53017  Biso   1.000  N
  N5       1.0000 0.22560  0.44460  0.03017  Biso   1.000  N
  N6       1.0000 0.77440  0.44460  0.46983  Biso   1.000  N
  N7       1.0000 0.72560  0.94460  0.03017  Biso   1.000  N
  N8       1.0000 0.27440  0.94460  0.46983  Biso   1.000  N
  N9       1.0000 0.99960  0.38270  0.07561  Biso   1.000  N
  N10      1.0000 0.00040  0.38270  0.42439  Biso   1.000  N
  N11      1.0000 0.49960  0.88270  0.07561  Biso   1.000  N
  N12      1.0000 0.50040  0.88270  0.42439  Biso   1.000  N
  N13      1.0000 0.00040  0.61730  0.92439  Biso   1.000  N
  N14      1.0000 0.99960  0.61730  0.57561  Biso   1.000  N
  N15      1.0000 0.50040  0.11730  0.92439  Biso   1.000  N
  N16      1.0000 0.49960  0.11730  0.57561  Biso   1.000  N
  N17      1.0000 0.07950  0.34810  0.11361  Biso   1.000  N
  N18      1.0000 0.92050  0.34810  0.38639  Biso   1.000  N
  N19      1.0000 0.57950  0.84810  0.11361  Biso   1.000  N
  N20      1.0000 0.42050  0.84810  0.38639  Biso   1.000  N
  N21      1.0000 0.92050  0.65190  0.88639  Biso   1.000  N
  N22      1.0000 0.07950  0.65190  0.61361  Biso   1.000  N
  N23      1.0000 0.42050  0.15190  0.88639  Biso   1.000  N
  N24      1.0000 0.57950  0.15190  0.61361  Biso   1.000  N
  H1       1.0000 0.10600  0.27300  0.10400  Biso   1.000  H
  H2       1.0000 0.89400  0.27300  0.39600  Biso   1.000  H
  H3       1.0000 0.60600  0.77300  0.10400  Biso   1.000  H
  H4       1.0000 0.39400  0.77300  0.39600  Biso   1.000  H
  H5       1.0000 0.89400  0.72700  0.89600  Biso   1.000  H
  H6       1.0000 0.10600  0.72700  0.60400  Biso   1.000  H
  H7       1.0000 0.39400  0.22700  0.89600  Biso   1.000  H
  H8       1.0000 0.60600  0.22700  0.60400  Biso   1.000  H
  C1       1.0000 0.71660  0.47880  0.92020  Biso   1.000  C
  C2       1.0000 0.28340  0.47880  0.57980  Biso   1.000  C
  C3       1.0000 0.21660  0.97880  0.92020  Biso   1.000  C
  C4       1.0000 0.78340  0.97880  0.57980  Biso   1.000  C
  C5       1.0000 0.28340  0.52120  0.07980  Biso   1.000  C
  C6       1.0000 0.71660  0.52120  0.42020  Biso   1.000  C
  C7       1.0000 0.78340  0.02120  0.07980  Biso   1.000  C
  C8       1.0000 0.21660  0.02120  0.42020  Biso   1.000  C
  H9       1.0000 0.66280  0.51950  0.89740  Biso   1.000  H
  H10      1.0000 0.33720  0.51950  0.60260  Biso   1.000  H
  H11      1.0000 0.16280  0.01950  0.89740  Biso   1.000  H
  H12      1.0000 0.83720  0.01950  0.60260  Biso   1.000  H
  H13      1.0000 0.33720  0.48050  0.10260  Biso   1.000  H
  H14      1.0000 0.66280  0.48050  0.39740  Biso   1.000  H
  H15      1.0000 0.83720  0.98050  0.10260  Biso   1.000  H
  H16      1.0000 0.16280  0.98050  0.39740  Biso   1.000  H
  C9       1.0000 0.73340  0.34320  0.90170  Biso   1.000  C
  C10      1.0000 0.26660  0.34320  0.59830  Biso   1.000  C
  C11      1.0000 0.23340  0.84320  0.90170  Biso   1.000  C
  C12      1.0000 0.76660  0.84320  0.59830  Biso   1.000  C
  C13      1.0000 0.26660  0.65680  0.09830  Biso   1.000  C
  C14      1.0000 0.73340  0.65680  0.40170  Biso   1.000  C
  C15      1.0000 0.76660  0.15680  0.09830  Biso   1.000  C
  C16      1.0000 0.23340  0.15680  0.40170  Biso   1.000  C
  H17      1.0000 0.69150  0.29030  0.86720  Biso   1.000  H
  H18      1.0000 0.30850  0.29030  0.63280  Biso   1.000  H
  H19      1.0000 0.19150  0.79030  0.86720  Biso   1.000  H
  H20      1.0000 0.80850  0.79030  0.63280  Biso   1.000  H
  H21      1.0000 0.30850  0.70970  0.13280  Biso   1.000  H
  H22      1.0000 0.69150  0.70970  0.36720  Biso   1.000  H
  H23      1.0000 0.80850  0.20970  0.13280  Biso   1.000  H
  H24      1.0000 0.19150  0.20970  0.36720  Biso   1.000  H
  C17      1.0000 0.81190  0.28470  0.93390  Biso   1.000  C
  C18      1.0000 0.18810  0.28470  0.56610  Biso   1.000  C
  C19      1.0000 0.31190  0.78470  0.93390  Biso   1.000  C
  C20      1.0000 0.68810  0.78470  0.56610  Biso   1.000  C
  C21      1.0000 0.18810  0.71530  0.06610  Biso   1.000  C
  C22      1.0000 0.81190  0.71530  0.43390  Biso   1.000  C
  C23      1.0000 0.68810  0.21530  0.06610  Biso   1.000  C
  C24      1.0000 0.31190  0.21530  0.43390  Biso   1.000  C
  H25      1.0000 0.82390  0.19070  0.92180  Biso   1.000  H
  H26      1.0000 0.17610  0.19070  0.57820  Biso   1.000  H
  H27      1.0000 0.32390  0.69070  0.92180  Biso   1.000  H
  H28      1.0000 0.67610  0.69070  0.57820  Biso   1.000  H
  H29      1.0000 0.17610  0.80930  0.07820  Biso   1.000  H
  H30      1.0000 0.82390  0.80930  0.42180  Biso   1.000  H
  H31      1.0000 0.67610  0.30930  0.07820  Biso   1.000  H
  H32      1.0000 0.32390  0.30930  0.42180  Biso   1.000  H
  C25      1.0000 0.87310  0.36280  0.98370  Biso   1.000  C
  C26      1.0000 0.12690  0.36280  0.51630  Biso   1.000  C
  C27      1.0000 0.37310  0.86280  0.98370  Biso   1.000  C
  C28      1.0000 0.62690  0.86280  0.51630  Biso   1.000  C
  C29      1.0000 0.12690  0.63720  0.01630  Biso   1.000  C
  C30      1.0000 0.87310  0.63720  0.48370  Biso   1.000  C
  C31      1.0000 0.62690  0.13720  0.01630  Biso   1.000  C
  C32      1.0000 0.37310  0.13720  0.48370  Biso   1.000  C
  C33      1.0000 0.84950  0.49700  0.00030  Biso   1.000  C
  C34      1.0000 0.15050  0.49700  0.49970  Biso   1.000  C
  C35      1.0000 0.34950  0.99700  0.00030  Biso   1.000  C
  C36      1.0000 0.65050  0.99700  0.49970  Biso   1.000  C
  C37      1.0000 0.15050  0.50300  0.99970  Biso   1.000  C
  C38      1.0000 0.84950  0.50300  0.50030  Biso   1.000  C
  C39      1.0000 0.65050  0.00300  0.99970  Biso   1.000  C
  C40      1.0000 0.34950  0.00300  0.50030  Biso   1.000  C
  H33      1.0000 0.88980  0.55070  0.03590  Biso   1.000  H
  H34      1.0000 0.11020  0.55070  0.46410  Biso   1.000  H
  H35      1.0000 0.38980  0.05070  0.03590  Biso   1.000  H
  H36      1.0000 0.61020  0.05070  0.46410  Biso   1.000  H
  H37      1.0000 0.11020  0.44930  0.96410  Biso   1.000  H
  H38      1.0000 0.88980  0.44930  0.53590  Biso   1.000  H
  H39      1.0000 0.61020  0.94930  0.96410  Biso   1.000  H
  H40      1.0000 0.38980  0.94930  0.53590  Biso   1.000  H
  C41      1.0000 0.95870  0.31040  0.01960  Biso   1.000  C
  C42      1.0000 0.04130  0.31040  0.48040  Biso   1.000  C
  C43      1.0000 0.45870  0.81040  0.01960  Biso   1.000  C
  C44      1.0000 0.54130  0.81040  0.48040  Biso   1.000  C
  C45      1.0000 0.04130  0.68960  0.98040  Biso   1.000  C
  C46      1.0000 0.95870  0.68960  0.51960  Biso   1.000  C
  C47      1.0000 0.54130  0.18960  0.98040  Biso   1.000  C
  C48      1.0000 0.45870  0.18960  0.51960  Biso   1.000  C
  C49      1.0000 0.99130  0.18710  0.98890  Biso   1.000  C
  C50      1.0000 0.00870  0.18710  0.51110  Biso   1.000  C
  C51      1.0000 0.49130  0.68710  0.98890  Biso   1.000  C
  C52      1.0000 0.50870  0.68710  0.51110  Biso   1.000  C
  C53      1.0000 0.00870  0.81290  0.01110  Biso   1.000  C
  C54      1.0000 0.99130  0.81290  0.48890  Biso   1.000  C
  C55      1.0000 0.50870  0.31290  0.01110  Biso   1.000  C
  C56      1.0000 0.49130  0.31290  0.48890  Biso   1.000  C
  H41      1.0000 0.98990  0.20970  0.93990  Biso   1.000  H
  H42      1.0000 0.01010  0.20970  0.56010  Biso   1.000  H
  H43      1.0000 0.48990  0.70970  0.93990  Biso   1.000  H
  H44      1.0000 0.51010  0.70970  0.56010  Biso   1.000  H
  H45      1.0000 0.01010  0.79030  0.06010  Biso   1.000  H
  H46      1.0000 0.98990  0.79030  0.43990  Biso   1.000  H
  H47      1.0000 0.51010  0.29030  0.06010  Biso   1.000  H
  H48      1.0000 0.48990  0.29030  0.43990  Biso   1.000  H
  H49      1.0000 0.95620  0.10300  0.98850  Biso   1.000  H
  H50      1.0000 0.04380  0.10300  0.51150  Biso   1.000  H
  H51      1.0000 0.45620  0.60300  0.98850  Biso   1.000  H
  H52      1.0000 0.54380  0.60300  0.51150  Biso   1.000  H
  H53      1.0000 0.04380  0.89700  0.01150  Biso   1.000  H
  H54      1.0000 0.95620  0.89700  0.48850  Biso   1.000  H
  H55      1.0000 0.54380  0.39700  0.01150  Biso   1.000  H
  H56      1.0000 0.45620  0.39700  0.48850  Biso   1.000  H
  H57      1.0000 0.04950  0.16710  0.01800  Biso   1.000  H
  H58      1.0000 0.95050  0.16710  0.48200  Biso   1.000  H
  H59      1.0000 0.54950  0.66710  0.01800  Biso   1.000  H
  H60      1.0000 0.45050  0.66710  0.48200  Biso   1.000  H
  H61      1.0000 0.95050  0.83290  0.98200  Biso   1.000  H
  H62      1.0000 0.04950  0.83290  0.51800  Biso   1.000  H
  H63      1.0000 0.45050  0.33290  0.98200  Biso   1.000  H
  H64      1.0000 0.54950  0.33290  0.51800  Biso   1.000  H
  C57      1.0000 0.11860  0.42470  0.17570  Biso   1.000  C
  C58      1.0000 0.88140  0.42470  0.32430  Biso   1.000  C
  C59      1.0000 0.61860  0.92470  0.17570  Biso   1.000  C
  C60      1.0000 0.38140  0.92470  0.32430  Biso   1.000  C
  C61      1.0000 0.88140  0.57530  0.82430  Biso   1.000  C
  C62      1.0000 0.11860  0.57530  0.67570  Biso   1.000  C
  C63      1.0000 0.38140  0.07530  0.82430  Biso   1.000  C
  C64      1.0000 0.61860  0.07530  0.67570  Biso   1.000  C
  C65      1.0000 0.07840  0.53510  0.19840  Biso   1.000  C
  C66      1.0000 0.92160  0.53510  0.30160  Biso   1.000  C
  C67      1.0000 0.57840  0.03510  0.19840  Biso   1.000  C
  C68      1.0000 0.42160  0.03510  0.30160  Biso   1.000  C
  C69      1.0000 0.92160  0.46490  0.80160  Biso   1.000  C
  C70      1.0000 0.07840  0.46490  0.69840  Biso   1.000  C
  C71      1.0000 0.42160  0.96490  0.80160  Biso   1.000  C
  C72      1.0000 0.57840  0.96490  0.69840  Biso   1.000  C
  H65      1.0000 0.02470  0.56690  0.16920  Biso   1.000  H
  H66      1.0000 0.97530  0.56690  0.33080  Biso   1.000  H
  H67      1.0000 0.52470  0.06690  0.16920  Biso   1.000  H
  H68      1.0000 0.47530  0.06690  0.33080  Biso   1.000  H
  H69      1.0000 0.97530  0.43310  0.83080  Biso   1.000  H
  H70      1.0000 0.02470  0.43310  0.66920  Biso   1.000  H
  H71      1.0000 0.47530  0.93310  0.83080  Biso   1.000  H
  H72      1.0000 0.52470  0.93310  0.66920  Biso   1.000  H
  C73      1.0000 0.11630  0.59890  0.26330  Biso   1.000  C
  C74      1.0000 0.88370  0.59890  0.23670  Biso   1.000  C
  C75      1.0000 0.61630  0.09890  0.26330  Biso   1.000  C
  C76      1.0000 0.38370  0.09890  0.23670  Biso   1.000  C
  C77      1.0000 0.88370  0.40110  0.73670  Biso   1.000  C
  C78      1.0000 0.11630  0.40110  0.76330  Biso   1.000  C
  C79      1.0000 0.38370  0.90110  0.73670  Biso   1.000  C
  C80      1.0000 0.61630  0.90110  0.76330  Biso   1.000  C
  H73      1.0000 0.08720  0.67220  0.27930  Biso   1.000  H
  H74      1.0000 0.91280  0.67220  0.22070  Biso   1.000  H
  H75      1.0000 0.58720  0.17220  0.27930  Biso   1.000  H
  H76      1.0000 0.41280  0.17220  0.22070  Biso   1.000  H
  H77      1.0000 0.91280  0.32780  0.72070  Biso   1.000  H
  H78      1.0000 0.08720  0.32780  0.77930  Biso   1.000  H
  H79      1.0000 0.41280  0.82780  0.72070  Biso   1.000  H
  H80      1.0000 0.58720  0.82780  0.77930  Biso   1.000  H
  C81      1.0000 0.19560  0.55920  0.30600  Biso   1.000  C
  C82      1.0000 0.80440  0.55920  0.19400  Biso   1.000  C
  C83      1.0000 0.69560  0.05920  0.30600  Biso   1.000  C
  C84      1.0000 0.30440  0.05920  0.19400  Biso   1.000  C
  C85      1.0000 0.80440  0.44080  0.69400  Biso   1.000  C
  C86      1.0000 0.19560  0.44080  0.80600  Biso   1.000  C
  C87      1.0000 0.30440  0.94080  0.69400  Biso   1.000  C
  C88      1.0000 0.69560  0.94080  0.80600  Biso   1.000  C
  C89      1.0000 0.23780  0.45400  0.28080  Biso   1.000  C
  C90      1.0000 0.76220  0.45400  0.21920  Biso   1.000  C
  C91      1.0000 0.73780  0.95400  0.28080  Biso   1.000  C
  C92      1.0000 0.26220  0.95400  0.21920  Biso   1.000  C
  C93      1.0000 0.76220  0.54600  0.71920  Biso   1.000  C
  C94      1.0000 0.23780  0.54600  0.78080  Biso   1.000  C
  C95      1.0000 0.26220  0.04600  0.71920  Biso   1.000  C
  C96      1.0000 0.73780  0.04600  0.78080  Biso   1.000  C
  H81      1.0000 0.29350  0.42800  0.30810  Biso   1.000  H
  H82      1.0000 0.70650  0.42800  0.19190  Biso   1.000  H
  H83      1.0000 0.79350  0.92800  0.30810  Biso   1.000  H
  H84      1.0000 0.20650  0.92800  0.19190  Biso   1.000  H
  H85      1.0000 0.70650  0.57200  0.69190  Biso   1.000  H
  H86      1.0000 0.29350  0.57200  0.80810  Biso   1.000  H
  H87      1.0000 0.20650  0.07200  0.69190  Biso   1.000  H
  H88      1.0000 0.79350  0.07200  0.80810  Biso   1.000  H
  C97      1.0000 0.19960  0.38710  0.21660  Biso   1.000  C
  C98      1.0000 0.80040  0.38710  0.28340  Biso   1.000  C
  C99      1.0000 0.69960  0.88710  0.21660  Biso   1.000  C
  C100     1.0000 0.30040  0.88710  0.28340  Biso   1.000  C
  C101     1.0000 0.80040  0.61290  0.78340  Biso   1.000  C
  C102     1.0000 0.19960  0.61290  0.71660  Biso   1.000  C
  C103     1.0000 0.30040  0.11290  0.78340  Biso   1.000  C
  C104     1.0000 0.69960  0.11290  0.71660  Biso   1.000  C
  H89      1.0000 0.22890  0.31480  0.20010  Biso   1.000  H
  H90      1.0000 0.77110  0.31480  0.29990  Biso   1.000  H
  H91      1.0000 0.72890  0.81480  0.20010  Biso   1.000  H
  H92      1.0000 0.27110  0.81480  0.29990  Biso   1.000  H
  H93      1.0000 0.77110  0.68520  0.79990  Biso   1.000  H
  H94      1.0000 0.22890  0.68520  0.70010  Biso   1.000  H
  H95      1.0000 0.27110  0.18520  0.79990  Biso   1.000  H
  H96      1.0000 0.72890  0.18520  0.70010  Biso   1.000  H
  C105     1.0000 0.23530  0.62610  0.37690  Biso   1.000  C
  C106     1.0000 0.76470  0.62610  0.12310  Biso   1.000  C
  C107     1.0000 0.73530  0.12610  0.37690  Biso   1.000  C
  C108     1.0000 0.26470  0.12610  0.12310  Biso   1.000  C
  C109     1.0000 0.76470  0.37390  0.62310  Biso   1.000  C
  C110     1.0000 0.23530  0.37390  0.87690  Biso   1.000  C
  C111     1.0000 0.26470  0.87390  0.62310  Biso   1.000  C
  C112     1.0000 0.73530  0.87390  0.87690  Biso   1.000  C
  O17      1.0000 0.50770  0.38080  0.17740  Biso   1.000  O
  O18      1.0000 0.49230  0.38080  0.32260  Biso   1.000  O
  O19      1.0000 0.00770  0.88080  0.17740  Biso   1.000  O
  O20      1.0000 0.99230  0.88080  0.32260  Biso   1.000  O
  O21      1.0000 0.49230  0.61920  0.82260  Biso   1.000  O
  O22      1.0000 0.50770  0.61920  0.67740  Biso   1.000  O
  O23      1.0000 0.99230  0.11920  0.82260  Biso   1.000  O
  O24      1.0000 0.00770  0.11920  0.67740  Biso   1.000  O
  N25      1.0000 0.50000  0.56710  0.25000  Biso   1.000  N
  N26      1.0000 0.00000  0.06710  0.25000  Biso   1.000  N
  N27      1.0000 0.50000  0.43290  0.75000  Biso   1.000  N
  N28      1.0000 0.00000  0.93290  0.75000  Biso   1.000  N
  C113     1.0000 0.52060  0.49700  0.19680  Biso   1.000  C
  C114     1.0000 0.47940  0.49700  0.30320  Biso   1.000  C
  C115     1.0000 0.02060  0.99700  0.19680  Biso   1.000  C
  C116     1.0000 0.97940  0.99700  0.30320  Biso   1.000  C
  C117     1.0000 0.47940  0.50300  0.80320  Biso   1.000  C
  C118     1.0000 0.52060  0.50300  0.69680  Biso   1.000  C
  C119     1.0000 0.97940  0.00300  0.80320  Biso   1.000  C
  C120     1.0000 0.02060  0.00300  0.69680  Biso   1.000  C
  H97      1.0000 0.55010  0.55240  0.17210  Biso   1.000  H
  H98      1.0000 0.44990  0.55240  0.32790  Biso   1.000  H
  H99      1.0000 0.05010  0.05240  0.17210  Biso   1.000  H
  H100     1.0000 0.94990  0.05240  0.32790  Biso   1.000  H
  H101     1.0000 0.44990  0.44760  0.82790  Biso   1.000  H
  H102     1.0000 0.55010  0.44760  0.67210  Biso   1.000  H
  H103     1.0000 0.94990  0.94760  0.82790  Biso   1.000  H
  H104     1.0000 0.05010  0.94760  0.67210  Biso   1.000  H
  C121     1.0000 0.51930  0.71280  0.26300  Biso   1.000  C
  C122     1.0000 0.48070  0.71280  0.23700  Biso   1.000  C
  C123     1.0000 0.01930  0.21280  0.26300  Biso   1.000  C
  C124     1.0000 0.98070  0.21280  0.23700  Biso   1.000  C
  C125     1.0000 0.48070  0.28720  0.73700  Biso   1.000  C
  C126     1.0000 0.51930  0.28720  0.76300  Biso   1.000  C
  C127     1.0000 0.98070  0.78720  0.73700  Biso   1.000  C
  C128     1.0000 0.01930  0.78720  0.76300  Biso   1.000  C
  H105     1.0000 0.56380  0.73960  0.24270  Biso   1.000  H
  H106     1.0000 0.43620  0.73960  0.25730  Biso   1.000  H
  H107     1.0000 0.06380  0.23960  0.24270  Biso   1.000  H
  H108     1.0000 0.93620  0.23960  0.25730  Biso   1.000  H
  H109     1.0000 0.43620  0.26040  0.75730  Biso   1.000  H
  H110     1.0000 0.56380  0.26040  0.74270  Biso   1.000  H
  H111     1.0000 0.93620  0.76040  0.75730  Biso   1.000  H
  H112     1.0000 0.06380  0.76040  0.74270  Biso   1.000  H
  H113     1.0000 0.53870  0.73010  0.31470  Biso   1.000  H
  H114     1.0000 0.46130  0.73010  0.18530  Biso   1.000  H
  H115     1.0000 0.03870  0.23010  0.31470  Biso   1.000  H
  H116     1.0000 0.96130  0.23010  0.18530  Biso   1.000  H
  H117     1.0000 0.46130  0.26990  0.68530  Biso   1.000  H
  H118     1.0000 0.53870  0.26990  0.81470  Biso   1.000  H
  H119     1.0000 0.96130  0.76990  0.68530  Biso   1.000  H
  H120     1.0000 0.03870  0.76990  0.81470  Biso   1.000  H
  H121     1.0000 0.46880  0.77010  0.24080  Biso   1.000  H
  H122     1.0000 0.53120  0.77010  0.25920  Biso   1.000  H
  H123     1.0000 0.96880  0.27010  0.24080  Biso   1.000  H
  H124     1.0000 0.03120  0.27010  0.25920  Biso   1.000  H
  H125     1.0000 0.53120  0.22990  0.75920  Biso   1.000  H
  H126     1.0000 0.46880  0.22990  0.74080  Biso   1.000  H
  H127     1.0000 0.03120  0.72990  0.75920  Biso   1.000  H
  H128     1.0000 0.96880  0.72990  0.74080  Biso   1.000  H
  C129     1.0000 0.44070  0.50600  0.27940  Biso   1.000  C
  C130     1.0000 0.55930  0.50600  0.22060  Biso   1.000  C
  C131     1.0000 0.94070  0.00600  0.27940  Biso   1.000  C
  C132     1.0000 0.05930  0.00600  0.22060  Biso   1.000  C
  C133     1.0000 0.55930  0.49400  0.72060  Biso   1.000  C
  C134     1.0000 0.44070  0.49400  0.77940  Biso   1.000  C
  C135     1.0000 0.05930  0.99400  0.72060  Biso   1.000  C
  C136     1.0000 0.94070  0.99400  0.77940  Biso   1.000  C
  H129     1.0000 0.38890  0.56340  0.26520  Biso   1.000  H
  H130     1.0000 0.61110  0.56340  0.23480  Biso   1.000  H
  H131     1.0000 0.88890  0.06340  0.26520  Biso   1.000  H
  H132     1.0000 0.11110  0.06340  0.23480  Biso   1.000  H
  H133     1.0000 0.61110  0.43660  0.73480  Biso   1.000  H
  H134     1.0000 0.38890  0.43660  0.76520  Biso   1.000  H
  H135     1.0000 0.11110  0.93660  0.73480  Biso   1.000  H
  H136     1.0000 0.88890  0.93660  0.76520  Biso   1.000  H
  H137     1.0000 0.46410  0.50510  0.33160  Biso   1.000  H
  H138     1.0000 0.53590  0.50510  0.16840  Biso   1.000  H
  H139     1.0000 0.96410  0.00510  0.33160  Biso   1.000  H
  H140     1.0000 0.03590  0.00510  0.16840  Biso   1.000  H
  H141     1.0000 0.53590  0.49490  0.66840  Biso   1.000  H
  H142     1.0000 0.46410  0.49490  0.83160  Biso   1.000  H
  H143     1.0000 0.03590  0.99490  0.66840  Biso   1.000  H
  H144     1.0000 0.96410  0.99490  0.83160  Biso   1.000  H
  H145     1.0000 0.42790  0.40860  0.26160  Biso   1.000  H
  H146     1.0000 0.57210  0.40860  0.23840  Biso   1.000  H
  H147     1.0000 0.92790  0.90860  0.26160  Biso   1.000  H
  H148     1.0000 0.07210  0.90860  0.23840  Biso   1.000  H
  H149     1.0000 0.57210  0.59140  0.73840  Biso   1.000  H
  H150     1.0000 0.42790  0.59140  0.76160  Biso   1.000  H
  H151     1.0000 0.07210  0.09140  0.73840  Biso   1.000  H
  H152     1.0000 0.92790  0.09140  0.76160  Biso   1.000  H
