data_image0
_cell_length_a       26.3735
_cell_length_b       13.4268
_cell_length_c       18.3958
_cell_angle_alpha    90
_cell_angle_beta     92.237
_cell_angle_gamma    90

_symmetry_space_group_name_H-M    "P 1"
_symmetry_int_tables_number       1

loop_
  _symmetry_equiv_pos_as_xyz
  'x, y, z'

loop_
  _atom_site_label
  _atom_site_occupancy
  _atom_site_fract_x
  _atom_site_fract_y
  _atom_site_fract_z
  _atom_site_thermal_displace_type
  _atom_site_B_iso_or_equiv
  _atom_site_type_symbol
  N1       1.0000 0.70293  0.33104  0.85952  Biso   1.000  N
  N2       1.0000 0.79707  0.33104  0.14048  Biso   1.000  N
  N3       1.0000 0.70293  0.83104  0.35952  Biso   1.000  N
  N4       1.0000 0.79707  0.83104  0.64048  Biso   1.000  N
  N5       1.0000 0.29707  0.66896  0.14048  Biso   1.000  N
  N6       1.0000 0.20293  0.66896  0.85952  Biso   1.000  N
  N7       1.0000 0.29707  0.16896  0.64048  Biso   1.000  N
  N8       1.0000 0.20293  0.16896  0.35952  Biso   1.000  N
  Cu1      1.0000 0.67222  0.23377  0.93425  Biso   1.000  Cu
  Cu2      1.0000 0.82778  0.23377  0.06575  Biso   1.000  Cu
  Cu3      1.0000 0.67222  0.73377  0.43425  Biso   1.000  Cu
  Cu4      1.0000 0.82778  0.73377  0.56575  Biso   1.000  Cu
  Cu5      1.0000 0.32778  0.76623  0.06575  Biso   1.000  Cu
  Cu6      1.0000 0.17222  0.76623  0.93425  Biso   1.000  Cu
  Cu7      1.0000 0.32778  0.26623  0.56575  Biso   1.000  Cu
  Cu8      1.0000 0.17222  0.26623  0.43425  Biso   1.000  Cu
  C1       1.0000 0.71874  0.37798  0.82358  Biso   1.000  C
  C2       1.0000 0.78126  0.37798  0.17642  Biso   1.000  C
  C3       1.0000 0.71874  0.87798  0.32358  Biso   1.000  C
  C4       1.0000 0.78126  0.87798  0.67642  Biso   1.000  C
  C5       1.0000 0.28126  0.62202  0.17642  Biso   1.000  C
  C6       1.0000 0.21874  0.62202  0.82358  Biso   1.000  C
  C7       1.0000 0.28126  0.12202  0.67642  Biso   1.000  C
  C8       1.0000 0.21874  0.12202  0.32358  Biso   1.000  C
  N9       1.0000 0.61271  0.20357  0.86262  Biso   1.000  N
  N10      1.0000 0.88729  0.20357  0.13738  Biso   1.000  N
  N11      1.0000 0.61271  0.70357  0.36262  Biso   1.000  N
  N12      1.0000 0.88729  0.70357  0.63738  Biso   1.000  N
  N13      1.0000 0.38729  0.79643  0.13738  Biso   1.000  N
  N14      1.0000 0.11271  0.79643  0.86262  Biso   1.000  N
  N15      1.0000 0.38729  0.29643  0.63738  Biso   1.000  N
  N16      1.0000 0.11271  0.29643  0.36262  Biso   1.000  N
  N17      1.0000 0.61761  0.33157  0.98569  Biso   1.000  N
  N18      1.0000 0.88239  0.33157  0.01431  Biso   1.000  N
  N19      1.0000 0.61761  0.83157  0.48569  Biso   1.000  N
  N20      1.0000 0.88239  0.83157  0.51431  Biso   1.000  N
  N21      1.0000 0.38239  0.66843  0.01431  Biso   1.000  N
  N22      1.0000 0.11761  0.66843  0.98569  Biso   1.000  N
  N23      1.0000 0.38239  0.16843  0.51431  Biso   1.000  N
  N24      1.0000 0.11761  0.16843  0.48569  Biso   1.000  N
  N25      1.0000 0.64366  0.12096  0.99492  Biso   1.000  N
  N26      1.0000 0.85634  0.12096  0.00508  Biso   1.000  N
  N27      1.0000 0.64366  0.62096  0.49492  Biso   1.000  N
  N28      1.0000 0.85634  0.62096  0.50508  Biso   1.000  N
  N29      1.0000 0.35634  0.87904  0.00508  Biso   1.000  N
  N30      1.0000 0.14366  0.87904  0.99492  Biso   1.000  N
  N31      1.0000 0.35634  0.37904  0.50508  Biso   1.000  N
  N32      1.0000 0.14366  0.37904  0.49492  Biso   1.000  N
  Os1      1.0000 0.74795  0.47599  0.75254  Biso   1.000  Os
  Os2      1.0000 0.75205  0.47599  0.24746  Biso   1.000  Os
  Os3      1.0000 0.74795  0.97599  0.25254  Biso   1.000  Os
  Os4      1.0000 0.75205  0.97599  0.74746  Biso   1.000  Os
  Os5      1.0000 0.25205  0.52401  0.24746  Biso   1.000  Os
  Os6      1.0000 0.24795  0.52401  0.75254  Biso   1.000  Os
  Os7      1.0000 0.25205  0.02401  0.74746  Biso   1.000  Os
  Os8      1.0000 0.24795  0.02401  0.25254  Biso   1.000  Os
  C9       1.0000 0.58094  0.29851  0.86753  Biso   1.000  C
  C10      1.0000 0.91906  0.29851  0.13247  Biso   1.000  C
  C11      1.0000 0.58094  0.79851  0.36753  Biso   1.000  C
  C12      1.0000 0.91906  0.79851  0.63247  Biso   1.000  C
  C13      1.0000 0.41906  0.70149  0.13247  Biso   1.000  C
  C14      1.0000 0.08094  0.70149  0.86753  Biso   1.000  C
  C15      1.0000 0.41906  0.20149  0.63247  Biso   1.000  C
  C16      1.0000 0.08094  0.20149  0.36753  Biso   1.000  C
  C17      1.0000 0.58623  0.11261  0.88754  Biso   1.000  C
  C18      1.0000 0.91376  0.11261  0.11246  Biso   1.000  C
  C19      1.0000 0.58623  0.61261  0.38754  Biso   1.000  C
  C20      1.0000 0.91376  0.61261  0.61246  Biso   1.000  C
  C21      1.0000 0.41376  0.88739  0.11246  Biso   1.000  C
  C22      1.0000 0.08623  0.88739  0.88754  Biso   1.000  C
  C23      1.0000 0.41376  0.38739  0.61246  Biso   1.000  C
  C24      1.0000 0.08623  0.38739  0.38754  Biso   1.000  C
  C25      1.0000 0.62792  0.19052  0.78638  Biso   1.000  C
  C26      1.0000 0.87208  0.19052  0.21362  Biso   1.000  C
  C27      1.0000 0.62792  0.69052  0.28638  Biso   1.000  C
  C28      1.0000 0.87208  0.69052  0.71362  Biso   1.000  C
  C29      1.0000 0.37208  0.80948  0.21362  Biso   1.000  C
  C30      1.0000 0.12792  0.80948  0.78638  Biso   1.000  C
  C31      1.0000 0.37208  0.30948  0.71362  Biso   1.000  C
  C32      1.0000 0.12792  0.30948  0.28638  Biso   1.000  C
  C33      1.0000 0.57061  0.33179  0.94261  Biso   1.000  C
  C34      1.0000 0.92939  0.33179  0.05739  Biso   1.000  C
  C35      1.0000 0.57061  0.83179  0.44261  Biso   1.000  C
  C36      1.0000 0.92939  0.83179  0.55739  Biso   1.000  C
  C37      1.0000 0.42939  0.66821  0.05739  Biso   1.000  C
  C38      1.0000 0.07061  0.66821  0.94261  Biso   1.000  C
  C39      1.0000 0.42939  0.16821  0.55739  Biso   1.000  C
  C40      1.0000 0.07061  0.16821  0.44261  Biso   1.000  C
  C41      1.0000 0.60837  0.27466  0.05460  Biso   1.000  C
  C42      1.0000 0.89163  0.27466  0.94540  Biso   1.000  C
  C43      1.0000 0.60837  0.77466  0.55460  Biso   1.000  C
  C44      1.0000 0.89163  0.77466  0.44540  Biso   1.000  C
  C45      1.0000 0.39163  0.72534  0.94540  Biso   1.000  C
  C46      1.0000 0.10837  0.72534  0.05460  Biso   1.000  C
  C47      1.0000 0.39163  0.22534  0.44540  Biso   1.000  C
  C48      1.0000 0.10837  0.22534  0.55460  Biso   1.000  C
  C49      1.0000 0.63668  0.43723  0.99870  Biso   1.000  C
  C50      1.0000 0.86332  0.43723  0.00130  Biso   1.000  C
  C51      1.0000 0.63668  0.93723  0.49870  Biso   1.000  C
  C52      1.0000 0.86332  0.93723  0.50130  Biso   1.000  C
  C53      1.0000 0.36332  0.56277  0.00130  Biso   1.000  C
  C54      1.0000 0.13668  0.56277  0.99870  Biso   1.000  C
  C55      1.0000 0.36332  0.06277  0.50130  Biso   1.000  C
  C56      1.0000 0.13668  0.06277  0.49870  Biso   1.000  C
  C57      1.0000 0.60621  0.16211  0.04109  Biso   1.000  C
  C58      1.0000 0.89379  0.16211  0.95891  Biso   1.000  C
  C59      1.0000 0.60621  0.66211  0.54109  Biso   1.000  C
  C60      1.0000 0.89379  0.66211  0.45891  Biso   1.000  C
  C61      1.0000 0.39379  0.83789  0.95891  Biso   1.000  C
  C62      1.0000 0.10621  0.83789  0.04109  Biso   1.000  C
  C63      1.0000 0.39379  0.33789  0.45891  Biso   1.000  C
  C64      1.0000 0.10621  0.33789  0.54109  Biso   1.000  C
  C65      1.0000 0.61647  0.05273  0.94259  Biso   1.000  C
  C66      1.0000 0.88353  0.05273  0.05741  Biso   1.000  C
  C67      1.0000 0.61647  0.55273  0.44259  Biso   1.000  C
  C68      1.0000 0.88353  0.55273  0.55741  Biso   1.000  C
  C69      1.0000 0.38353  0.94727  0.05741  Biso   1.000  C
  C70      1.0000 0.11647  0.94727  0.94259  Biso   1.000  C
  C71      1.0000 0.38353  0.44727  0.55741  Biso   1.000  C
  C72      1.0000 0.11647  0.44727  0.44259  Biso   1.000  C
  C73      1.0000 0.68207  0.05839  0.03591  Biso   1.000  C
  C74      1.0000 0.81793  0.05839  0.96409  Biso   1.000  C
  C75      1.0000 0.68207  0.55839  0.53591  Biso   1.000  C
  C76      1.0000 0.81793  0.55839  0.46409  Biso   1.000  C
  C77      1.0000 0.31793  0.94161  0.96409  Biso   1.000  C
  C78      1.0000 0.18207  0.94161  0.03591  Biso   1.000  C
  C79      1.0000 0.31793  0.44161  0.46409  Biso   1.000  C
  C80      1.0000 0.18207  0.44161  0.53591  Biso   1.000  C
  O1       1.0000 0.80342  0.38861  0.71755  Biso   1.000  O
  O2       1.0000 0.69658  0.38861  0.28245  Biso   1.000  O
  O3       1.0000 0.80342  0.88861  0.21755  Biso   1.000  O
  O4       1.0000 0.69658  0.88861  0.78245  Biso   1.000  O
  O5       1.0000 0.19658  0.61139  0.28245  Biso   1.000  O
  O6       1.0000 0.30342  0.61139  0.71755  Biso   1.000  O
  O7       1.0000 0.19658  0.11139  0.78245  Biso   1.000  O
  O8       1.0000 0.30342  0.11139  0.21755  Biso   1.000  O
  O9       1.0000 0.69980  0.41611  0.67748  Biso   1.000  O
  O10      1.0000 0.80020  0.41611  0.32252  Biso   1.000  O
  O11      1.0000 0.69980  0.91611  0.17748  Biso   1.000  O
  O12      1.0000 0.80020  0.91611  0.82252  Biso   1.000  O
  O13      1.0000 0.30020  0.58389  0.32252  Biso   1.000  O
  O14      1.0000 0.19980  0.58389  0.67748  Biso   1.000  O
  O15      1.0000 0.30020  0.08389  0.82252  Biso   1.000  O
  O16      1.0000 0.19980  0.08389  0.17748  Biso   1.000  O
  N33      1.0000 0.79242  0.54524  0.82584  Biso   1.000  N
  N34      1.0000 0.70758  0.54524  0.17416  Biso   1.000  N
  N35      1.0000 0.79242  0.04524  0.32584  Biso   1.000  N
  N36      1.0000 0.70758  0.04524  0.67416  Biso   1.000  N
  N37      1.0000 0.20758  0.45476  0.17416  Biso   1.000  N
  N38      1.0000 0.29242  0.45476  0.82584  Biso   1.000  N
  N39      1.0000 0.20758  0.95476  0.67416  Biso   1.000  N
  N40      1.0000 0.29242  0.95476  0.32584  Biso   1.000  N
  N41      1.0000 0.69602  0.56899  0.79059  Biso   1.000  N
  N42      1.0000 0.80398  0.56899  0.20941  Biso   1.000  N
  N43      1.0000 0.69602  0.06899  0.29059  Biso   1.000  N
  N44      1.0000 0.80398  0.06899  0.70941  Biso   1.000  N
  N45      1.0000 0.30398  0.43101  0.20941  Biso   1.000  N
  N46      1.0000 0.19602  0.43101  0.79059  Biso   1.000  N
  N47      1.0000 0.30398  0.93101  0.70941  Biso   1.000  N
  N48      1.0000 0.19602  0.93101  0.29059  Biso   1.000  N
  C81      1.0000 0.72119  0.07424  0.81828  Biso   1.000  C
  C82      1.0000 0.77881  0.07424  0.18172  Biso   1.000  C
  C83      1.0000 0.72119  0.57424  0.31828  Biso   1.000  C
  C84      1.0000 0.77881  0.57424  0.68172  Biso   1.000  C
  C85      1.0000 0.27881  0.92576  0.18172  Biso   1.000  C
  C86      1.0000 0.22119  0.92576  0.81828  Biso   1.000  C
  C87      1.0000 0.27881  0.42576  0.68172  Biso   1.000  C
  C88      1.0000 0.22119  0.42576  0.31828  Biso   1.000  C
  H1       1.0000 0.59803  0.35231  0.84355  Biso   1.000  H
  H2       1.0000 0.90197  0.35231  0.15645  Biso   1.000  H
  H3       1.0000 0.59803  0.85231  0.34355  Biso   1.000  H
  H4       1.0000 0.90197  0.85231  0.65645  Biso   1.000  H
  H5       1.0000 0.40197  0.64769  0.15645  Biso   1.000  H
  H6       1.0000 0.09803  0.64769  0.84355  Biso   1.000  H
  H7       1.0000 0.40197  0.14769  0.65645  Biso   1.000  H
  H8       1.0000 0.09803  0.14769  0.34355  Biso   1.000  H
  H9       1.0000 0.54906  0.28720  0.84221  Biso   1.000  H
  H10      1.0000 0.95094  0.28720  0.15779  Biso   1.000  H
  H11      1.0000 0.54906  0.78720  0.34221  Biso   1.000  H
  H12      1.0000 0.95094  0.78720  0.65779  Biso   1.000  H
  H13      1.0000 0.45094  0.71280  0.15779  Biso   1.000  H
  H14      1.0000 0.04906  0.71280  0.84221  Biso   1.000  H
  H15      1.0000 0.45094  0.21280  0.65779  Biso   1.000  H
  H16      1.0000 0.04906  0.21280  0.34221  Biso   1.000  H
  H17      1.0000 0.55479  0.13230  0.90774  Biso   1.000  H
  H18      1.0000 0.94521  0.13230  0.09226  Biso   1.000  H
  H19      1.0000 0.55479  0.63230  0.40774  Biso   1.000  H
  H20      1.0000 0.94521  0.63230  0.59226  Biso   1.000  H
  H21      1.0000 0.44521  0.86770  0.09226  Biso   1.000  H
  H22      1.0000 0.05479  0.86770  0.90774  Biso   1.000  H
  H23      1.0000 0.44521  0.36770  0.59226  Biso   1.000  H
  H24      1.0000 0.05479  0.36770  0.40774  Biso   1.000  H
  H25      1.0000 0.57824  0.07021  0.84694  Biso   1.000  H
  H26      1.0000 0.92176  0.07021  0.15306  Biso   1.000  H
  H27      1.0000 0.57824  0.57021  0.34694  Biso   1.000  H
  H28      1.0000 0.92176  0.57021  0.65306  Biso   1.000  H
  H29      1.0000 0.42176  0.92979  0.15306  Biso   1.000  H
  H30      1.0000 0.07824  0.92979  0.84694  Biso   1.000  H
  H31      1.0000 0.42176  0.42979  0.65306  Biso   1.000  H
  H32      1.0000 0.07824  0.42979  0.34694  Biso   1.000  H
  H33      1.0000 0.59834  0.17640  0.75647  Biso   1.000  H
  H34      1.0000 0.90166  0.17640  0.24353  Biso   1.000  H
  H35      1.0000 0.59834  0.67640  0.25647  Biso   1.000  H
  H36      1.0000 0.90166  0.67640  0.74353  Biso   1.000  H
  H37      1.0000 0.40166  0.82360  0.24353  Biso   1.000  H
  H38      1.0000 0.09834  0.82360  0.75647  Biso   1.000  H
  H39      1.0000 0.40166  0.32360  0.74353  Biso   1.000  H
  H40      1.0000 0.09834  0.32360  0.25647  Biso   1.000  H
  H41      1.0000 0.64383  0.25131  0.77017  Biso   1.000  H
  H42      1.0000 0.85617  0.25131  0.22983  Biso   1.000  H
  H43      1.0000 0.64383  0.75131  0.27017  Biso   1.000  H
  H44      1.0000 0.85617  0.75131  0.72983  Biso   1.000  H
  H45      1.0000 0.35617  0.74869  0.22983  Biso   1.000  H
  H46      1.0000 0.14383  0.74869  0.77017  Biso   1.000  H
  H47      1.0000 0.35617  0.24869  0.72983  Biso   1.000  H
  H48      1.0000 0.14383  0.24869  0.27017  Biso   1.000  H
  H49      1.0000 0.65132  0.13551  0.78375  Biso   1.000  H
  H50      1.0000 0.84868  0.13551  0.21625  Biso   1.000  H
  H51      1.0000 0.65132  0.63551  0.28375  Biso   1.000  H
  H52      1.0000 0.84868  0.63551  0.71625  Biso   1.000  H
  H53      1.0000 0.34868  0.86449  0.21625  Biso   1.000  H
  H54      1.0000 0.15132  0.86449  0.78375  Biso   1.000  H
  H55      1.0000 0.34868  0.36449  0.71625  Biso   1.000  H
  H56      1.0000 0.15132  0.36449  0.28375  Biso   1.000  H
  H57      1.0000 0.54647  0.28693  0.96339  Biso   1.000  H
  H58      1.0000 0.95353  0.28693  0.03661  Biso   1.000  H
  H59      1.0000 0.54647  0.78693  0.46339  Biso   1.000  H
  H60      1.0000 0.95353  0.78693  0.53661  Biso   1.000  H
  H61      1.0000 0.45353  0.71307  0.03661  Biso   1.000  H
  H62      1.0000 0.04647  0.71307  0.96339  Biso   1.000  H
  H63      1.0000 0.45353  0.21307  0.53661  Biso   1.000  H
  H64      1.0000 0.04647  0.21307  0.46339  Biso   1.000  H
  H65      1.0000 0.55648  0.39842  0.94158  Biso   1.000  H
  H66      1.0000 0.94352  0.39842  0.05842  Biso   1.000  H
  H67      1.0000 0.55648  0.89842  0.44158  Biso   1.000  H
  H68      1.0000 0.94352  0.89842  0.55842  Biso   1.000  H
  H69      1.0000 0.44352  0.60158  0.05842  Biso   1.000  H
  H70      1.0000 0.05648  0.60158  0.94158  Biso   1.000  H
  H71      1.0000 0.44352  0.10158  0.55842  Biso   1.000  H
  H72      1.0000 0.05648  0.10158  0.44158  Biso   1.000  H
  H73      1.0000 0.63516  0.28950  0.08932  Biso   1.000  H
  H74      1.0000 0.86484  0.28950  0.91068  Biso   1.000  H
  H75      1.0000 0.63516  0.78950  0.58932  Biso   1.000  H
  H76      1.0000 0.86484  0.78950  0.41068  Biso   1.000  H
  H77      1.0000 0.36484  0.71050  0.91068  Biso   1.000  H
  H78      1.0000 0.13516  0.71050  0.08932  Biso   1.000  H
  H79      1.0000 0.36484  0.21050  0.41068  Biso   1.000  H
  H80      1.0000 0.13516  0.21050  0.58932  Biso   1.000  H
  H81      1.0000 0.57693  0.29627  0.07384  Biso   1.000  H
  H82      1.0000 0.92307  0.29627  0.92616  Biso   1.000  H
  H83      1.0000 0.57693  0.79627  0.57384  Biso   1.000  H
  H84      1.0000 0.92307  0.79627  0.42616  Biso   1.000  H
  H85      1.0000 0.42307  0.70373  0.92616  Biso   1.000  H
  H86      1.0000 0.07693  0.70373  0.07384  Biso   1.000  H
  H87      1.0000 0.42307  0.20373  0.42616  Biso   1.000  H
  H88      1.0000 0.07693  0.20373  0.57384  Biso   1.000  H
  H89      1.0000 0.61097  0.47580  0.02122  Biso   1.000  H
  H90      1.0000 0.88903  0.47580  0.97878  Biso   1.000  H
  H91      1.0000 0.61097  0.97580  0.52122  Biso   1.000  H
  H92      1.0000 0.88903  0.97580  0.47878  Biso   1.000  H
  H93      1.0000 0.38903  0.52420  0.97878  Biso   1.000  H
  H94      1.0000 0.11097  0.52420  0.02122  Biso   1.000  H
  H95      1.0000 0.38903  0.02420  0.47878  Biso   1.000  H
  H96      1.0000 0.11097  0.02420  0.52122  Biso   1.000  H
  H97      1.0000 0.66668  0.43541  0.02948  Biso   1.000  H
  H98      1.0000 0.83332  0.43541  0.97052  Biso   1.000  H
  H99      1.0000 0.66668  0.93541  0.52948  Biso   1.000  H
  H100     1.0000 0.83332  0.93541  0.47052  Biso   1.000  H
  H101     1.0000 0.33332  0.56459  0.97052  Biso   1.000  H
  H102     1.0000 0.16668  0.56459  0.02948  Biso   1.000  H
  H103     1.0000 0.33332  0.06459  0.47052  Biso   1.000  H
  H104     1.0000 0.16668  0.06459  0.52948  Biso   1.000  H
  H105     1.0000 0.64456  0.46802  0.95373  Biso   1.000  H
  H106     1.0000 0.85544  0.46802  0.04627  Biso   1.000  H
  H107     1.0000 0.64456  0.96802  0.45373  Biso   1.000  H
  H108     1.0000 0.85544  0.96802  0.54627  Biso   1.000  H
  H109     1.0000 0.35544  0.53198  0.04627  Biso   1.000  H
  H110     1.0000 0.14456  0.53198  0.95373  Biso   1.000  H
  H111     1.0000 0.35544  0.03198  0.54627  Biso   1.000  H
  H112     1.0000 0.14456  0.03198  0.45373  Biso   1.000  H
  H113     1.0000 0.57321  0.14598  0.02070  Biso   1.000  H
  H114     1.0000 0.92679  0.14598  0.97930  Biso   1.000  H
  H115     1.0000 0.57321  0.64598  0.52070  Biso   1.000  H
  H116     1.0000 0.92679  0.64598  0.47930  Biso   1.000  H
  H117     1.0000 0.42679  0.85402  0.97930  Biso   1.000  H
  H118     1.0000 0.07321  0.85402  0.02070  Biso   1.000  H
  H119     1.0000 0.42679  0.35402  0.47930  Biso   1.000  H
  H120     1.0000 0.07321  0.35402  0.52070  Biso   1.000  H
  H121     1.0000 0.60939  0.12836  0.08662  Biso   1.000  H
  H122     1.0000 0.89061  0.12836  0.91338  Biso   1.000  H
  H123     1.0000 0.60939  0.62836  0.58662  Biso   1.000  H
  H124     1.0000 0.89061  0.62836  0.41338  Biso   1.000  H
  H125     1.0000 0.39061  0.87164  0.91338  Biso   1.000  H
  H126     1.0000 0.10939  0.87164  0.08662  Biso   1.000  H
  H127     1.0000 0.39061  0.37164  0.41338  Biso   1.000  H
  H128     1.0000 0.10939  0.37164  0.58662  Biso   1.000  H
  H129     1.0000 0.64069  0.01177  0.91894  Biso   1.000  H
  H130     1.0000 0.85931  0.01177  0.08106  Biso   1.000  H
  H131     1.0000 0.64069  0.51177  0.41894  Biso   1.000  H
  H132     1.0000 0.85931  0.51177  0.58106  Biso   1.000  H
  H133     1.0000 0.35931  0.98823  0.08106  Biso   1.000  H
  H134     1.0000 0.14069  0.98823  0.91894  Biso   1.000  H
  H135     1.0000 0.35931  0.48823  0.58106  Biso   1.000  H
  H136     1.0000 0.14069  0.48823  0.41894  Biso   1.000  H
  H137     1.0000 0.59415  0.00875  0.96777  Biso   1.000  H
  H138     1.0000 0.90585  0.00875  0.03223  Biso   1.000  H
  H139     1.0000 0.59415  0.50875  0.46777  Biso   1.000  H
  H140     1.0000 0.90585  0.50875  0.53223  Biso   1.000  H
  H141     1.0000 0.40585  0.99125  0.03223  Biso   1.000  H
  H142     1.0000 0.09415  0.99125  0.96777  Biso   1.000  H
  H143     1.0000 0.40585  0.49125  0.53223  Biso   1.000  H
  H144     1.0000 0.09415  0.49125  0.46777  Biso   1.000  H
  H145     1.0000 0.66496  0.00732  0.06265  Biso   1.000  H
  H146     1.0000 0.83504  0.00732  0.93735  Biso   1.000  H
  H147     1.0000 0.66496  0.50732  0.56265  Biso   1.000  H
  H148     1.0000 0.83504  0.50732  0.43735  Biso   1.000  H
  H149     1.0000 0.33504  0.99268  0.93735  Biso   1.000  H
  H150     1.0000 0.16496  0.99268  0.06265  Biso   1.000  H
  H151     1.0000 0.33504  0.49268  0.43735  Biso   1.000  H
  H152     1.0000 0.16496  0.49268  0.56265  Biso   1.000  H
  H153     1.0000 0.70425  0.02705  0.00296  Biso   1.000  H
  H154     1.0000 0.79575  0.02705  0.99704  Biso   1.000  H
  H155     1.0000 0.70425  0.52705  0.50296  Biso   1.000  H
  H156     1.0000 0.79575  0.52705  0.49704  Biso   1.000  H
  H157     1.0000 0.29575  0.97295  0.99704  Biso   1.000  H
  H158     1.0000 0.20425  0.97295  0.00296  Biso   1.000  H
  H159     1.0000 0.29575  0.47295  0.49704  Biso   1.000  H
  H160     1.0000 0.20425  0.47295  0.50296  Biso   1.000  H
  H161     1.0000 0.70161  0.10075  0.06838  Biso   1.000  H
  H162     1.0000 0.79839  0.10075  0.93162  Biso   1.000  H
  H163     1.0000 0.70161  0.60075  0.56838  Biso   1.000  H
  H164     1.0000 0.79839  0.60075  0.43162  Biso   1.000  H
  H165     1.0000 0.29839  0.89925  0.93162  Biso   1.000  H
  H166     1.0000 0.20161  0.89925  0.06838  Biso   1.000  H
  H167     1.0000 0.29839  0.39925  0.43162  Biso   1.000  H
  H168     1.0000 0.20161  0.39925  0.56838  Biso   1.000  H
  C89      1.0000 0.85172  0.40240  0.73536  Biso   1.000  C
  C90      1.0000 0.64828  0.40240  0.26464  Biso   1.000  C
  C91      1.0000 0.85172  0.90240  0.23536  Biso   1.000  C
  C92      1.0000 0.64828  0.90240  0.76464  Biso   1.000  C
  C93      1.0000 0.14828  0.59760  0.26464  Biso   1.000  C
  C94      1.0000 0.35172  0.59760  0.73536  Biso   1.000  C
  C95      1.0000 0.14828  0.09760  0.76464  Biso   1.000  C
  C96      1.0000 0.35172  0.09760  0.23536  Biso   1.000  C
  C97      1.0000 0.65395  0.45285  0.66197  Biso   1.000  C
  C98      1.0000 0.84605  0.45285  0.33803  Biso   1.000  C
  C99      1.0000 0.65395  0.95285  0.16197  Biso   1.000  C
  C100     1.0000 0.84605  0.95285  0.83803  Biso   1.000  C
  C101     1.0000 0.34605  0.54715  0.33803  Biso   1.000  C
  C102     1.0000 0.15395  0.54715  0.66197  Biso   1.000  C
  C103     1.0000 0.34605  0.04715  0.83803  Biso   1.000  C
  C104     1.0000 0.15395  0.04715  0.16197  Biso   1.000  C
  C105     1.0000 0.84134  0.53218  0.83347  Biso   1.000  C
  C106     1.0000 0.65866  0.53218  0.16653  Biso   1.000  C
  C107     1.0000 0.84134  0.03218  0.33347  Biso   1.000  C
  C108     1.0000 0.65866  0.03218  0.66653  Biso   1.000  C
  C109     1.0000 0.15866  0.46782  0.16653  Biso   1.000  C
  C110     1.0000 0.34134  0.46782  0.83347  Biso   1.000  C
  C111     1.0000 0.15866  0.96782  0.66653  Biso   1.000  C
  C112     1.0000 0.34134  0.96782  0.33347  Biso   1.000  C
  C113     1.0000 0.76798  0.62743  0.86469  Biso   1.000  C
  C114     1.0000 0.73202  0.62743  0.13531  Biso   1.000  C
  C115     1.0000 0.76798  0.12743  0.36469  Biso   1.000  C
  C116     1.0000 0.73202  0.12743  0.63531  Biso   1.000  C
  C117     1.0000 0.23202  0.37257  0.13531  Biso   1.000  C
  C118     1.0000 0.26798  0.37257  0.86469  Biso   1.000  C
  C119     1.0000 0.23202  0.87257  0.63531  Biso   1.000  C
  C120     1.0000 0.26798  0.87257  0.36469  Biso   1.000  C
  C121     1.0000 0.71225  0.61770  0.85817  Biso   1.000  C
  C122     1.0000 0.78775  0.61770  0.14183  Biso   1.000  C
  C123     1.0000 0.71225  0.11770  0.35817  Biso   1.000  C
  C124     1.0000 0.78775  0.11770  0.64183  Biso   1.000  C
  C125     1.0000 0.28775  0.38230  0.14183  Biso   1.000  C
  C126     1.0000 0.21225  0.38230  0.85817  Biso   1.000  C
  C127     1.0000 0.28775  0.88230  0.64183  Biso   1.000  C
  C128     1.0000 0.21225  0.88230  0.35817  Biso   1.000  C
  C129     1.0000 0.64972  0.57529  0.76764  Biso   1.000  C
  C130     1.0000 0.85028  0.57529  0.23236  Biso   1.000  C
  C131     1.0000 0.64972  0.07529  0.26764  Biso   1.000  C
  C132     1.0000 0.85028  0.07529  0.73236  Biso   1.000  C
  C133     1.0000 0.35028  0.42471  0.23236  Biso   1.000  C
  C134     1.0000 0.14972  0.42471  0.76764  Biso   1.000  C
  C135     1.0000 0.35028  0.92471  0.73236  Biso   1.000  C
  C136     1.0000 0.14972  0.92471  0.26764  Biso   1.000  C
  N49      1.0000 0.70350  0.13118  0.85972  Biso   1.000  N
  N50      1.0000 0.79650  0.13118  0.14028  Biso   1.000  N
  N51      1.0000 0.70350  0.63118  0.35972  Biso   1.000  N
  N52      1.0000 0.79650  0.63118  0.64028  Biso   1.000  N
  N53      1.0000 0.29650  0.86882  0.14028  Biso   1.000  N
  N54      1.0000 0.20350  0.86882  0.85972  Biso   1.000  N
  N55      1.0000 0.29650  0.36882  0.64028  Biso   1.000  N
  N56      1.0000 0.20350  0.36882  0.35972  Biso   1.000  N
  C137     1.0000 0.88755  0.34890  0.69544  Biso   1.000  C
  C138     1.0000 0.61245  0.34890  0.30456  Biso   1.000  C
  C139     1.0000 0.88755  0.84890  0.19544  Biso   1.000  C
  C140     1.0000 0.61245  0.84890  0.80456  Biso   1.000  C
  C141     1.0000 0.11245  0.65110  0.30456  Biso   1.000  C
  C142     1.0000 0.38755  0.65110  0.69544  Biso   1.000  C
  C143     1.0000 0.11245  0.15110  0.80456  Biso   1.000  C
  C144     1.0000 0.38755  0.15110  0.19544  Biso   1.000  C
  C145     1.0000 0.87140  0.46823  0.79052  Biso   1.000  C
  C146     1.0000 0.62860  0.46823  0.20948  Biso   1.000  C
  C147     1.0000 0.87140  0.96823  0.29052  Biso   1.000  C
  C148     1.0000 0.62860  0.96823  0.70948  Biso   1.000  C
  C149     1.0000 0.12860  0.53177  0.20948  Biso   1.000  C
  C150     1.0000 0.37140  0.53177  0.79052  Biso   1.000  C
  C151     1.0000 0.12860  0.03177  0.70948  Biso   1.000  C
  C152     1.0000 0.37140  0.03177  0.29052  Biso   1.000  C
  C153     1.0000 0.62848  0.52390  0.70596  Biso   1.000  C
  C154     1.0000 0.87152  0.52390  0.29404  Biso   1.000  C
  C155     1.0000 0.62848  0.02390  0.20596  Biso   1.000  C
  C156     1.0000 0.87152  0.02390  0.79404  Biso   1.000  C
  C157     1.0000 0.37152  0.47610  0.29404  Biso   1.000  C
  C158     1.0000 0.12848  0.47610  0.70596  Biso   1.000  C
  C159     1.0000 0.37152  0.97610  0.79404  Biso   1.000  C
  C160     1.0000 0.12848  0.97610  0.20596  Biso   1.000  C
  C161     1.0000 0.62928  0.41835  0.59933  Biso   1.000  C
  C162     1.0000 0.87072  0.41835  0.40067  Biso   1.000  C
  C163     1.0000 0.62928  0.91835  0.09933  Biso   1.000  C
  C164     1.0000 0.87072  0.91835  0.90067  Biso   1.000  C
  C165     1.0000 0.37072  0.58165  0.40067  Biso   1.000  C
  C166     1.0000 0.12928  0.58165  0.59933  Biso   1.000  C
  C167     1.0000 0.37072  0.08165  0.90067  Biso   1.000  C
  C168     1.0000 0.12928  0.08165  0.09933  Biso   1.000  C
  H169     1.0000 0.85891  0.57009  0.87044  Biso   1.000  H
  H170     1.0000 0.64109  0.57009  0.12956  Biso   1.000  H
  H171     1.0000 0.85891  0.07009  0.37044  Biso   1.000  H
  H172     1.0000 0.64109  0.07009  0.62956  Biso   1.000  H
  H173     1.0000 0.14109  0.42991  0.12956  Biso   1.000  H
  H174     1.0000 0.35891  0.42991  0.87044  Biso   1.000  H
  H175     1.0000 0.14109  0.92991  0.62956  Biso   1.000  H
  H176     1.0000 0.35891  0.92991  0.37044  Biso   1.000  H
  H177     1.0000 0.77811  0.69133  0.84524  Biso   1.000  H
  H178     1.0000 0.72189  0.69133  0.15476  Biso   1.000  H
  H179     1.0000 0.77811  0.19133  0.34524  Biso   1.000  H
  H180     1.0000 0.72189  0.19133  0.65476  Biso   1.000  H
  H181     1.0000 0.22189  0.30867  0.15476  Biso   1.000  H
  H182     1.0000 0.27811  0.30867  0.84524  Biso   1.000  H
  H183     1.0000 0.22189  0.80867  0.65476  Biso   1.000  H
  H184     1.0000 0.27811  0.80867  0.34524  Biso   1.000  H
  H185     1.0000 0.77882  0.62505  0.91446  Biso   1.000  H
  H186     1.0000 0.72118  0.62505  0.08554  Biso   1.000  H
  H187     1.0000 0.77882  0.12505  0.41446  Biso   1.000  H
  H188     1.0000 0.72118  0.12505  0.58554  Biso   1.000  H
  H189     1.0000 0.22118  0.37495  0.08554  Biso   1.000  H
  H190     1.0000 0.27882  0.37495  0.91446  Biso   1.000  H
  H191     1.0000 0.22118  0.87495  0.58554  Biso   1.000  H
  H192     1.0000 0.27882  0.87495  0.41446  Biso   1.000  H
  H193     1.0000 0.70056  0.57859  0.89786  Biso   1.000  H
  H194     1.0000 0.79944  0.57859  0.10214  Biso   1.000  H
  H195     1.0000 0.70056  0.07859  0.39786  Biso   1.000  H
  H196     1.0000 0.79944  0.07859  0.60214  Biso   1.000  H
  H197     1.0000 0.29944  0.42141  0.10214  Biso   1.000  H
  H198     1.0000 0.20056  0.42141  0.89786  Biso   1.000  H
  H199     1.0000 0.29944  0.92141  0.60214  Biso   1.000  H
  H200     1.0000 0.20056  0.92141  0.39786  Biso   1.000  H
  H201     1.0000 0.69722  0.68336  0.86016  Biso   1.000  H
  H202     1.0000 0.80278  0.68336  0.13984  Biso   1.000  H
  H203     1.0000 0.69722  0.18336  0.36016  Biso   1.000  H
  H204     1.0000 0.80278  0.18336  0.63984  Biso   1.000  H
  H205     1.0000 0.30278  0.31664  0.13984  Biso   1.000  H
  H206     1.0000 0.19722  0.31664  0.86016  Biso   1.000  H
  H207     1.0000 0.30278  0.81664  0.63984  Biso   1.000  H
  H208     1.0000 0.19722  0.81664  0.36016  Biso   1.000  H
  H209     1.0000 0.62724  0.61586  0.79465  Biso   1.000  H
  H210     1.0000 0.87276  0.61586  0.20535  Biso   1.000  H
  H211     1.0000 0.62724  0.11586  0.29465  Biso   1.000  H
  H212     1.0000 0.87276  0.11586  0.70535  Biso   1.000  H
  H213     1.0000 0.37276  0.38414  0.20535  Biso   1.000  H
  H214     1.0000 0.12724  0.38414  0.79465  Biso   1.000  H
  H215     1.0000 0.37276  0.88414  0.70535  Biso   1.000  H
  H216     1.0000 0.12724  0.88414  0.29465  Biso   1.000  H
  H217     1.0000 0.87553  0.30417  0.65818  Biso   1.000  H
  H218     1.0000 0.62447  0.30417  0.34182  Biso   1.000  H
  H219     1.0000 0.87553  0.80417  0.15818  Biso   1.000  H
  H220     1.0000 0.62447  0.80417  0.84182  Biso   1.000  H
  H221     1.0000 0.12447  0.69583  0.34182  Biso   1.000  H
  H222     1.0000 0.37553  0.69583  0.65818  Biso   1.000  H
  H223     1.0000 0.12447  0.19583  0.84182  Biso   1.000  H
  H224     1.0000 0.37553  0.19583  0.15818  Biso   1.000  H
  C169     1.0000 0.93820  0.36184  0.70673  Biso   1.000  C
  C170     1.0000 0.56180  0.36184  0.29327  Biso   1.000  C
  C171     1.0000 0.93820  0.86184  0.20673  Biso   1.000  C
  C172     1.0000 0.56180  0.86184  0.79327  Biso   1.000  C
  C173     1.0000 0.06180  0.63816  0.29327  Biso   1.000  C
  C174     1.0000 0.43820  0.63816  0.70673  Biso   1.000  C
  C175     1.0000 0.06180  0.13816  0.79327  Biso   1.000  C
  C176     1.0000 0.43820  0.13816  0.20673  Biso   1.000  C
  C177     1.0000 0.92522  0.47936  0.79991  Biso   1.000  C
  C178     1.0000 0.57478  0.47936  0.20009  Biso   1.000  C
  C179     1.0000 0.92522  0.97936  0.29991  Biso   1.000  C
  C180     1.0000 0.57478  0.97936  0.70009  Biso   1.000  C
  C181     1.0000 0.07478  0.52064  0.20009  Biso   1.000  C
  C182     1.0000 0.42522  0.52064  0.79991  Biso   1.000  C
  C183     1.0000 0.07478  0.02064  0.70009  Biso   1.000  C
  C184     1.0000 0.42522  0.02064  0.29991  Biso   1.000  C
  C185     1.0000 0.57778  0.54901  0.68342  Biso   1.000  C
  C186     1.0000 0.92222  0.54901  0.31658  Biso   1.000  C
  C187     1.0000 0.57778  0.04901  0.18342  Biso   1.000  C
  C188     1.0000 0.92222  0.04901  0.81658  Biso   1.000  C
  C189     1.0000 0.42222  0.45099  0.31658  Biso   1.000  C
  C190     1.0000 0.07777  0.45099  0.68342  Biso   1.000  C
  C191     1.0000 0.42222  0.95099  0.81658  Biso   1.000  C
  C192     1.0000 0.07777  0.95099  0.18342  Biso   1.000  C
  C193     1.0000 0.58073  0.44604  0.58003  Biso   1.000  C
  C194     1.0000 0.91927  0.44604  0.41997  Biso   1.000  C
  C195     1.0000 0.58073  0.94604  0.08003  Biso   1.000  C
  C196     1.0000 0.91927  0.94604  0.91997  Biso   1.000  C
  C197     1.0000 0.41927  0.55396  0.41997  Biso   1.000  C
  C198     1.0000 0.08073  0.55396  0.58003  Biso   1.000  C
  C199     1.0000 0.41927  0.05396  0.91997  Biso   1.000  C
  C200     1.0000 0.08073  0.05396  0.08003  Biso   1.000  C
  H225     1.0000 0.64716  0.37461  0.56831  Biso   1.000  H
  H226     1.0000 0.85284  0.37461  0.43169  Biso   1.000  H
  H227     1.0000 0.64716  0.87461  0.06831  Biso   1.000  H
  H228     1.0000 0.85284  0.87461  0.93169  Biso   1.000  H
  H229     1.0000 0.35284  0.62539  0.43169  Biso   1.000  H
  H230     1.0000 0.14716  0.62539  0.56831  Biso   1.000  H
  H231     1.0000 0.35284  0.12539  0.93169  Biso   1.000  H
  H232     1.0000 0.14716  0.12539  0.06831  Biso   1.000  H
  H233     1.0000 0.96114  0.32498  0.67807  Biso   1.000  H
  H234     1.0000 0.53886  0.32498  0.32193  Biso   1.000  H
  H235     1.0000 0.96114  0.82498  0.17807  Biso   1.000  H
  H236     1.0000 0.53886  0.82498  0.82193  Biso   1.000  H
  H237     1.0000 0.03886  0.67502  0.32193  Biso   1.000  H
  H238     1.0000 0.46114  0.67502  0.67807  Biso   1.000  H
  H239     1.0000 0.03886  0.17502  0.82193  Biso   1.000  H
  H240     1.0000 0.46114  0.17502  0.17807  Biso   1.000  H
  C201     1.0000 0.95795  0.42780  0.75954  Biso   1.000  C
  C202     1.0000 0.54205  0.42780  0.24046  Biso   1.000  C
  C203     1.0000 0.95795  0.92780  0.25954  Biso   1.000  C
  C204     1.0000 0.54205  0.92780  0.74046  Biso   1.000  C
  C205     1.0000 0.04205  0.57220  0.24046  Biso   1.000  C
  C206     1.0000 0.45794  0.57220  0.75954  Biso   1.000  C
  C207     1.0000 0.04205  0.07220  0.74046  Biso   1.000  C
  C208     1.0000 0.45794  0.07220  0.25954  Biso   1.000  C
  H241     1.0000 0.93860  0.52449  0.83599  Biso   1.000  H
  H242     1.0000 0.56140  0.52449  0.16401  Biso   1.000  H
  H243     1.0000 0.93860  0.02449  0.33599  Biso   1.000  H
  H244     1.0000 0.56140  0.02449  0.66401  Biso   1.000  H
  H245     1.0000 0.06140  0.47551  0.16401  Biso   1.000  H
  H246     1.0000 0.43860  0.47551  0.83599  Biso   1.000  H
  H247     1.0000 0.06140  0.97551  0.66401  Biso   1.000  H
  H248     1.0000 0.43860  0.97551  0.33599  Biso   1.000  H
  H249     1.0000 0.55927  0.59489  0.71209  Biso   1.000  H
  H250     1.0000 0.94073  0.59489  0.28791  Biso   1.000  H
  H251     1.0000 0.55927  0.09489  0.21209  Biso   1.000  H
  H252     1.0000 0.94073  0.09489  0.78791  Biso   1.000  H
  H253     1.0000 0.44073  0.40511  0.28791  Biso   1.000  H
  H254     1.0000 0.05927  0.40511  0.71209  Biso   1.000  H
  H255     1.0000 0.44073  0.90511  0.78791  Biso   1.000  H
  H256     1.0000 0.05927  0.90511  0.21209  Biso   1.000  H
  C209     1.0000 0.55432  0.51093  0.62274  Biso   1.000  C
  C210     1.0000 0.94568  0.51093  0.37726  Biso   1.000  C
  C211     1.0000 0.55432  0.01093  0.12274  Biso   1.000  C
  C212     1.0000 0.94568  0.01093  0.87726  Biso   1.000  C
  C213     1.0000 0.44568  0.48907  0.37726  Biso   1.000  C
  C214     1.0000 0.05432  0.48907  0.62274  Biso   1.000  C
  C215     1.0000 0.44568  0.98907  0.87726  Biso   1.000  C
  C216     1.0000 0.05432  0.98907  0.12274  Biso   1.000  C
  H257     1.0000 0.56501  0.42107  0.53633  Biso   1.000  H
  H258     1.0000 0.93499  0.42107  0.46367  Biso   1.000  H
  H259     1.0000 0.56501  0.92107  0.03633  Biso   1.000  H
  H260     1.0000 0.93499  0.92107  0.96367  Biso   1.000  H
  H261     1.0000 0.43499  0.57893  0.46367  Biso   1.000  H
  H262     1.0000 0.06501  0.57893  0.53633  Biso   1.000  H
  H263     1.0000 0.43499  0.07893  0.96367  Biso   1.000  H
  H264     1.0000 0.06501  0.07893  0.03633  Biso   1.000  H
  H265     1.0000 0.99393  0.43614  0.76695  Biso   1.000  H
  H266     1.0000 0.50607  0.43614  0.23305  Biso   1.000  H
  H267     1.0000 0.99393  0.93614  0.26695  Biso   1.000  H
  H268     1.0000 0.50607  0.93614  0.73305  Biso   1.000  H
  H269     1.0000 0.00607  0.56386  0.23305  Biso   1.000  H
  H270     1.0000 0.49393  0.56386  0.76695  Biso   1.000  H
  H271     1.0000 0.00607  0.06386  0.73305  Biso   1.000  H
  H272     1.0000 0.49393  0.06386  0.26695  Biso   1.000  H
  H273     1.0000 0.51997  0.52927  0.60973  Biso   1.000  H
  H274     1.0000 0.98003  0.52927  0.39027  Biso   1.000  H
  H275     1.0000 0.51997  0.02927  0.10973  Biso   1.000  H
  H276     1.0000 0.98003  0.02927  0.89027  Biso   1.000  H
  H277     1.0000 0.48003  0.47073  0.39027  Biso   1.000  H
  H278     1.0000 0.01997  0.47073  0.60973  Biso   1.000  H
  H279     1.0000 0.48003  0.97073  0.89027  Biso   1.000  H
  H280     1.0000 0.01997  0.97073  0.10973  Biso   1.000  H
  Cl1      1.0000 0.91635  0.22400  0.53379  Biso   1.000  Cl
  Cl2      1.0000 0.58365  0.22400  0.46621  Biso   1.000  Cl
  Cl3      1.0000 0.91635  0.72400  0.03379  Biso   1.000  Cl
  Cl4      1.0000 0.58365  0.72400  0.96621  Biso   1.000  Cl
  Cl5      1.0000 0.08365  0.77600  0.46621  Biso   1.000  Cl
  Cl6      1.0000 0.41635  0.77600  0.53379  Biso   1.000  Cl
  Cl7      1.0000 0.08365  0.27600  0.96621  Biso   1.000  Cl
  Cl8      1.0000 0.41635  0.27600  0.03379  Biso   1.000  Cl
  O17      1.0000 0.92844  0.28478  0.59292  Biso   1.000  O
  O18      1.0000 0.57156  0.28478  0.40708  Biso   1.000  O
  O19      1.0000 0.92844  0.78478  0.09292  Biso   1.000  O
  O20      1.0000 0.57156  0.78478  0.90708  Biso   1.000  O
  O21      1.0000 0.07156  0.71522  0.40708  Biso   1.000  O
  O22      1.0000 0.42844  0.71522  0.59292  Biso   1.000  O
  O23      1.0000 0.07156  0.21522  0.90708  Biso   1.000  O
  O24      1.0000 0.42844  0.21522  0.09292  Biso   1.000  O
  O25      1.0000 0.91984  0.11997  0.54792  Biso   1.000  O
  O26      1.0000 0.58016  0.11997  0.45208  Biso   1.000  O
  O27      1.0000 0.91984  0.61997  0.04792  Biso   1.000  O
  O28      1.0000 0.58016  0.61997  0.95208  Biso   1.000  O
  O29      1.0000 0.08016  0.88003  0.45208  Biso   1.000  O
  O30      1.0000 0.41984  0.88003  0.54792  Biso   1.000  O
  O31      1.0000 0.08016  0.38003  0.95208  Biso   1.000  O
  O32      1.0000 0.41984  0.38003  0.04792  Biso   1.000  O
  O33      1.0000 0.86689  0.24231  0.50650  Biso   1.000  O
  O34      1.0000 0.63311  0.24231  0.49350  Biso   1.000  O
  O35      1.0000 0.86689  0.74231  0.00650  Biso   1.000  O
  O36      1.0000 0.63311  0.74231  0.99350  Biso   1.000  O
  O37      1.0000 0.13311  0.75769  0.49350  Biso   1.000  O
  O38      1.0000 0.36689  0.75769  0.50650  Biso   1.000  O
  O39      1.0000 0.13311  0.25769  0.99350  Biso   1.000  O
  O40      1.0000 0.36689  0.25769  0.00650  Biso   1.000  O
  O41      1.0000 0.94980  0.24290  0.47717  Biso   1.000  O
  O42      1.0000 0.55020  0.24290  0.52283  Biso   1.000  O
  O43      1.0000 0.94980  0.74290  0.97717  Biso   1.000  O
  O44      1.0000 0.55020  0.74290  0.02283  Biso   1.000  O
  O45      1.0000 0.05020  0.75710  0.52283  Biso   1.000  O
  O46      1.0000 0.44980  0.75710  0.47717  Biso   1.000  O
  O47      1.0000 0.05020  0.25710  0.02283  Biso   1.000  O
  O48      1.0000 0.44980  0.25710  0.97717  Biso   1.000  O
