data_image0
_cell_length_a       16.854
_cell_length_b       13.4332
_cell_length_c       21.843
_cell_angle_alpha    90
_cell_angle_beta     109.487
_cell_angle_gamma    90

_symmetry_space_group_name_H-M    "P 1"
_symmetry_int_tables_number       1

loop_
  _symmetry_equiv_pos_as_xyz
  'x, y, z'

loop_
  _atom_site_label
  _atom_site_occupancy
  _atom_site_fract_x
  _atom_site_fract_y
  _atom_site_fract_z
  _atom_site_thermal_displace_type
  _atom_site_B_iso_or_equiv
  _atom_site_type_symbol
  Os1      1.0000 0.00703  0.67903  0.30402  Biso   1.000  Os
  Os2      1.0000 0.99297  0.17903  0.19598  Biso   1.000  Os
  Os3      1.0000 0.99297  0.32097  0.69598  Biso   1.000  Os
  Os4      1.0000 0.00703  0.82097  0.80402  Biso   1.000  Os
  Os5      1.0000 0.57550  0.52628  0.18621  Biso   1.000  Os
  Os6      1.0000 0.42450  0.02628  0.31379  Biso   1.000  Os
  Os7      1.0000 0.42450  0.47372  0.81379  Biso   1.000  Os
  Os8      1.0000 0.57550  0.97372  0.68621  Biso   1.000  Os
  Cu1      1.0000 0.86046  0.38043  0.35218  Biso   1.000  Cu
  Cu2      1.0000 0.13954  0.88043  0.14782  Biso   1.000  Cu
  Cu3      1.0000 0.13954  0.61957  0.64782  Biso   1.000  Cu
  Cu4      1.0000 0.86046  0.11957  0.85218  Biso   1.000  Cu
  O1       1.0000 0.97971  0.79352  0.35468  Biso   1.000  O
  O2       1.0000 0.02029  0.29352  0.14532  Biso   1.000  O
  O3       1.0000 0.02029  0.20648  0.64532  Biso   1.000  O
  O4       1.0000 0.97971  0.70648  0.85468  Biso   1.000  O
  O5       1.0000 0.12520  0.65860  0.36658  Biso   1.000  O
  O6       1.0000 0.87480  0.15860  0.13342  Biso   1.000  O
  O7       1.0000 0.87480  0.34140  0.63342  Biso   1.000  O
  O8       1.0000 0.12520  0.84140  0.86658  Biso   1.000  O
  O9       1.0000 0.62173  0.65850  0.16822  Biso   1.000  O
  O10      1.0000 0.37827  0.15850  0.33178  Biso   1.000  O
  O11      1.0000 0.37827  0.34150  0.83178  Biso   1.000  O
  O12      1.0000 0.62173  0.84150  0.66822  Biso   1.000  O
  O13      1.0000 0.55421  0.57950  0.26691  Biso   1.000  O
  O14      1.0000 0.44579  0.07950  0.23309  Biso   1.000  O
  O15      1.0000 0.44579  0.42050  0.73309  Biso   1.000  O
  O16      1.0000 0.55421  0.92050  0.76691  Biso   1.000  O
  O17      1.0000 0.11660  0.89910  0.44360  Biso   1.000  O
  O18      1.0000 0.88340  0.39910  0.05640  Biso   1.000  O
  O19      1.0000 0.88340  0.10090  0.55640  Biso   1.000  O
  O20      1.0000 0.11660  0.60090  0.94360  Biso   1.000  O
  H1       1.0000 0.06960  0.86530  0.41290  Biso   1.000  H
  H2       1.0000 0.93040  0.36530  0.08710  Biso   1.000  H
  H3       1.0000 0.93040  0.13470  0.58710  Biso   1.000  H
  H4       1.0000 0.06960  0.63470  0.91290  Biso   1.000  H
  N1       1.0000 0.93260  0.50210  0.36493  Biso   1.000  N
  N2       1.0000 0.06740  0.00210  0.13507  Biso   1.000  N
  N3       1.0000 0.06740  0.49790  0.63507  Biso   1.000  N
  N4       1.0000 0.93260  0.99790  0.86493  Biso   1.000  N
  N5       1.0000 0.08740  0.81910  0.22102  Biso   1.000  N
  N6       1.0000 0.91260  0.31910  0.27898  Biso   1.000  N
  N7       1.0000 0.91260  0.18090  0.77898  Biso   1.000  N
  N8       1.0000 0.08740  0.68090  0.72102  Biso   1.000  N
  N9       1.0000 0.75830  0.45580  0.27910  Biso   1.000  N
  N10      1.0000 0.24170  0.95580  0.22090  Biso   1.000  N
  N11      1.0000 0.24170  0.54420  0.72090  Biso   1.000  N
  N12      1.0000 0.75830  0.04420  0.77910  Biso   1.000  N
  N13      1.0000 0.39080  0.58510  0.09140  Biso   1.000  N
  N14      1.0000 0.60920  0.08510  0.40860  Biso   1.000  N
  N15      1.0000 0.60920  0.41490  0.90860  Biso   1.000  N
  N16      1.0000 0.39080  0.91490  0.59140  Biso   1.000  N
  N17      1.0000 0.88850  0.67890  0.24222  Biso   1.000  N
  N18      1.0000 0.11150  0.17890  0.25778  Biso   1.000  N
  N19      1.0000 0.11150  0.32110  0.75778  Biso   1.000  N
  N20      1.0000 0.88850  0.82110  0.74222  Biso   1.000  N
  N21      1.0000 0.02020  0.56980  0.24604  Biso   1.000  N
  N22      1.0000 0.97980  0.06980  0.25396  Biso   1.000  N
  N23      1.0000 0.97980  0.43020  0.75396  Biso   1.000  N
  N24      1.0000 0.02020  0.93020  0.74604  Biso   1.000  N
  N25      1.0000 0.59170  0.46300  0.10822  Biso   1.000  N
  N26      1.0000 0.40830  0.96300  0.39178  Biso   1.000  N
  N27      1.0000 0.40830  0.53700  0.89178  Biso   1.000  N
  N28      1.0000 0.59170  0.03700  0.60822  Biso   1.000  N
  N29      1.0000 0.53380  0.39020  0.19810  Biso   1.000  N
  N30      1.0000 0.46620  0.89020  0.30190  Biso   1.000  N
  N31      1.0000 0.46620  0.60980  0.80190  Biso   1.000  N
  N32      1.0000 0.53380  0.10980  0.69810  Biso   1.000  N
  N33      1.0000 0.78420  0.25800  0.35023  Biso   1.000  N
  N34      1.0000 0.21580  0.75800  0.14977  Biso   1.000  N
  N35      1.0000 0.21580  0.74200  0.64977  Biso   1.000  N
  N36      1.0000 0.78420  0.24200  0.85023  Biso   1.000  N
  N37      1.0000 0.82050  0.42190  0.43530  Biso   1.000  N
  N38      1.0000 0.17950  0.92190  0.06470  Biso   1.000  N
  N39      1.0000 0.17950  0.57810  0.56470  Biso   1.000  N
  N40      1.0000 0.82050  0.07810  0.93530  Biso   1.000  N
  N41      1.0000 0.95410  0.29350  0.42861  Biso   1.000  N
  N42      1.0000 0.04590  0.79350  0.07139  Biso   1.000  N
  N43      1.0000 0.04590  0.70650  0.57139  Biso   1.000  N
  N44      1.0000 0.95410  0.20650  0.92861  Biso   1.000  N
  C1       1.0000 0.96190  0.57160  0.35026  Biso   1.000  C
  C2       1.0000 0.03810  0.07160  0.14974  Biso   1.000  C
  C3       1.0000 0.03810  0.42840  0.64974  Biso   1.000  C
  C4       1.0000 0.96190  0.92840  0.85026  Biso   1.000  C
  C5       1.0000 0.05640  0.77420  0.25207  Biso   1.000  C
  C6       1.0000 0.94360  0.27420  0.24793  Biso   1.000  C
  C7       1.0000 0.94360  0.22580  0.74793  Biso   1.000  C
  C8       1.0000 0.05640  0.72580  0.75207  Biso   1.000  C
  C9       1.0000 0.69440  0.48420  0.24540  Biso   1.000  C
  C10      1.0000 0.30560  0.98420  0.25460  Biso   1.000  C
  C11      1.0000 0.30560  0.51580  0.75460  Biso   1.000  C
  C12      1.0000 0.69440  0.01580  0.74540  Biso   1.000  C
  C13      1.0000 0.45650  0.56740  0.12700  Biso   1.000  C
  C14      1.0000 0.54350  0.06740  0.37300  Biso   1.000  C
  C15      1.0000 0.54350  0.43260  0.87300  Biso   1.000  C
  C16      1.0000 0.45650  0.93260  0.62700  Biso   1.000  C
  C17      1.0000 0.90210  0.80870  0.35635  Biso   1.000  C
  C18      1.0000 0.09790  0.30870  0.14365  Biso   1.000  C
  C19      1.0000 0.09790  0.19130  0.64365  Biso   1.000  C
  C20      1.0000 0.90210  0.69130  0.85635  Biso   1.000  C
  C21      1.0000 0.89420  0.87370  0.40480  Biso   1.000  C
  C22      1.0000 0.10580  0.37370  0.09520  Biso   1.000  C
  C23      1.0000 0.10580  0.12630  0.59520  Biso   1.000  C
  C24      1.0000 0.89420  0.62630  0.90480  Biso   1.000  C
  H5       1.0000 0.94200  0.90220  0.43430  Biso   1.000  H
  H6       1.0000 0.05800  0.40220  0.06570  Biso   1.000  H
  H7       1.0000 0.05800  0.09780  0.56570  Biso   1.000  H
  H8       1.0000 0.94200  0.59780  0.93430  Biso   1.000  H
  C25      1.0000 0.81510  0.89550  0.40870  Biso   1.000  C
  C26      1.0000 0.18490  0.39550  0.09130  Biso   1.000  C
  C27      1.0000 0.18490  0.10450  0.59130  Biso   1.000  C
  C28      1.0000 0.81510  0.60450  0.90870  Biso   1.000  C
  H9       1.0000 0.81080  0.93860  0.44070  Biso   1.000  H
  H10      1.0000 0.18920  0.43860  0.05930  Biso   1.000  H
  H11      1.0000 0.18920  0.06140  0.55930  Biso   1.000  H
  H12      1.0000 0.81080  0.56140  0.94070  Biso   1.000  H
  C29      1.0000 0.74290  0.85400  0.36540  Biso   1.000  C
  C30      1.0000 0.25710  0.35400  0.13460  Biso   1.000  C
  C31      1.0000 0.25710  0.14600  0.63460  Biso   1.000  C
  C32      1.0000 0.74290  0.64600  0.86540  Biso   1.000  C
  H13      1.0000 0.69050  0.86880  0.36850  Biso   1.000  H
  H14      1.0000 0.30950  0.36880  0.13150  Biso   1.000  H
  H15      1.0000 0.30950  0.13120  0.63150  Biso   1.000  H
  H16      1.0000 0.69050  0.63120  0.86850  Biso   1.000  H
  C33      1.0000 0.74930  0.79180  0.31880  Biso   1.000  C
  C34      1.0000 0.25070  0.29180  0.18120  Biso   1.000  C
  C35      1.0000 0.25070  0.20820  0.68120  Biso   1.000  C
  C36      1.0000 0.74930  0.70820  0.81880  Biso   1.000  C
  H17      1.0000 0.70050  0.76370  0.29030  Biso   1.000  H
  H18      1.0000 0.29950  0.26370  0.20970  Biso   1.000  H
  H19      1.0000 0.29950  0.23630  0.70970  Biso   1.000  H
  H20      1.0000 0.70050  0.73630  0.79030  Biso   1.000  H
  C37      1.0000 0.82770  0.76780  0.31170  Biso   1.000  C
  C38      1.0000 0.17230  0.26780  0.18830  Biso   1.000  C
  C39      1.0000 0.17230  0.23220  0.68830  Biso   1.000  C
  C40      1.0000 0.82770  0.73220  0.81170  Biso   1.000  C
  C41      1.0000 0.82380  0.71030  0.25520  Biso   1.000  C
  C42      1.0000 0.17620  0.21030  0.24480  Biso   1.000  C
  C43      1.0000 0.17620  0.28970  0.74480  Biso   1.000  C
  C44      1.0000 0.82380  0.78970  0.75520  Biso   1.000  C
  H21      1.0000 0.77080  0.69480  0.22610  Biso   1.000  H
  H22      1.0000 0.22920  0.19480  0.27390  Biso   1.000  H
  H23      1.0000 0.22920  0.30520  0.77390  Biso   1.000  H
  H24      1.0000 0.77080  0.80520  0.72610  Biso   1.000  H
  C45      1.0000 0.87900  0.62260  0.18204  Biso   1.000  C
  C46      1.0000 0.12100  0.12260  0.31796  Biso   1.000  C
  C47      1.0000 0.12100  0.37740  0.81796  Biso   1.000  C
  C48      1.0000 0.87900  0.87740  0.68204  Biso   1.000  C
  H25      1.0000 0.89180  0.66510  0.15060  Biso   1.000  H
  H26      1.0000 0.10820  0.16510  0.34940  Biso   1.000  H
  H27      1.0000 0.10820  0.33490  0.84940  Biso   1.000  H
  H28      1.0000 0.89180  0.83490  0.65060  Biso   1.000  H
  H29      1.0000 0.82160  0.59890  0.16310  Biso   1.000  H
  H30      1.0000 0.17840  0.09890  0.33690  Biso   1.000  H
  H31      1.0000 0.17840  0.40110  0.83690  Biso   1.000  H
  H32      1.0000 0.82160  0.90110  0.66310  Biso   1.000  H
  C49      1.0000 0.93900  0.53570  0.19940  Biso   1.000  C
  C50      1.0000 0.06100  0.03570  0.30060  Biso   1.000  C
  C51      1.0000 0.06100  0.46430  0.80060  Biso   1.000  C
  C52      1.0000 0.93900  0.96430  0.69940  Biso   1.000  C
  H33      1.0000 0.91590  0.48300  0.21870  Biso   1.000  H
  H34      1.0000 0.08410  0.98300  0.28130  Biso   1.000  H
  H35      1.0000 0.08410  0.51700  0.78130  Biso   1.000  H
  H36      1.0000 0.91590  0.01700  0.71870  Biso   1.000  H
  H37      1.0000 0.94750  0.50970  0.16060  Biso   1.000  H
  H38      1.0000 0.05250  0.00970  0.33940  Biso   1.000  H
  H39      1.0000 0.05250  0.49030  0.83940  Biso   1.000  H
  H40      1.0000 0.94750  0.99030  0.66060  Biso   1.000  H
  C53      1.0000 0.08960  0.52680  0.24970  Biso   1.000  C
  C54      1.0000 0.91040  0.02680  0.25030  Biso   1.000  C
  C55      1.0000 0.91040  0.47320  0.75030  Biso   1.000  C
  C56      1.0000 0.08960  0.97320  0.74970  Biso   1.000  C
  H41      1.0000 0.08710  0.47620  0.22000  Biso   1.000  H
  H42      1.0000 0.91290  0.97620  0.28000  Biso   1.000  H
  H43      1.0000 0.91290  0.52380  0.78000  Biso   1.000  H
  H44      1.0000 0.08710  0.02380  0.72000  Biso   1.000  H
  C57      1.0000 0.17100  0.55010  0.29590  Biso   1.000  C
  C58      1.0000 0.82900  0.05010  0.20410  Biso   1.000  C
  C59      1.0000 0.82900  0.44990  0.70410  Biso   1.000  C
  C60      1.0000 0.17100  0.94990  0.79590  Biso   1.000  C
  C61      1.0000 0.24170  0.50520  0.28600  Biso   1.000  C
  C62      1.0000 0.75830  0.00520  0.21400  Biso   1.000  C
  C63      1.0000 0.75830  0.49480  0.71400  Biso   1.000  C
  C64      1.0000 0.24170  0.99480  0.78600  Biso   1.000  C
  H45      1.0000 0.23340  0.46230  0.25100  Biso   1.000  H
  H46      1.0000 0.76660  0.96230  0.24900  Biso   1.000  H
  H47      1.0000 0.76660  0.53770  0.74900  Biso   1.000  H
  H48      1.0000 0.23340  0.03770  0.75100  Biso   1.000  H
  C65      1.0000 0.32160  0.52300  0.32610  Biso   1.000  C
  C66      1.0000 0.67840  0.02300  0.17390  Biso   1.000  C
  C67      1.0000 0.67840  0.47700  0.67390  Biso   1.000  C
  C68      1.0000 0.32160  0.97700  0.82610  Biso   1.000  C
  H49      1.0000 0.36710  0.49380  0.31800  Biso   1.000  H
  H50      1.0000 0.63290  0.99380  0.18200  Biso   1.000  H
  H51      1.0000 0.63290  0.50620  0.68200  Biso   1.000  H
  H52      1.0000 0.36710  0.00620  0.81800  Biso   1.000  H
  C69      1.0000 0.33450  0.58480  0.37910  Biso   1.000  C
  C70      1.0000 0.66550  0.08480  0.12090  Biso   1.000  C
  C71      1.0000 0.66550  0.41520  0.62090  Biso   1.000  C
  C72      1.0000 0.33450  0.91520  0.87910  Biso   1.000  C
  H53      1.0000 0.38900  0.59680  0.40670  Biso   1.000  H
  H54      1.0000 0.61100  0.09680  0.09330  Biso   1.000  H
  H55      1.0000 0.61100  0.40320  0.59330  Biso   1.000  H
  H56      1.0000 0.38900  0.90320  0.90670  Biso   1.000  H
  C73      1.0000 0.26830  0.62840  0.39150  Biso   1.000  C
  C74      1.0000 0.73170  0.12840  0.10850  Biso   1.000  C
  C75      1.0000 0.73170  0.37160  0.60850  Biso   1.000  C
  C76      1.0000 0.26830  0.87160  0.89150  Biso   1.000  C
  H57      1.0000 0.27860  0.66870  0.42800  Biso   1.000  H
  H58      1.0000 0.72140  0.16870  0.07200  Biso   1.000  H
  H59      1.0000 0.72140  0.33130  0.57200  Biso   1.000  H
  H60      1.0000 0.27860  0.83130  0.92800  Biso   1.000  H
  C77      1.0000 0.18520  0.61400  0.35050  Biso   1.000  C
  C78      1.0000 0.81480  0.11400  0.14950  Biso   1.000  C
  C79      1.0000 0.81480  0.38600  0.64950  Biso   1.000  C
  C80      1.0000 0.18520  0.88600  0.85050  Biso   1.000  C
  C81      1.0000 0.63860  0.68000  0.11480  Biso   1.000  C
  C82      1.0000 0.36140  0.18000  0.38520  Biso   1.000  C
  C83      1.0000 0.36140  0.32000  0.88520  Biso   1.000  C
  C84      1.0000 0.63860  0.82000  0.61480  Biso   1.000  C
  C85      1.0000 0.66580  0.77660  0.10890  Biso   1.000  C
  C86      1.0000 0.33420  0.27660  0.39110  Biso   1.000  C
  C87      1.0000 0.33420  0.22340  0.89110  Biso   1.000  C
  C88      1.0000 0.66580  0.72340  0.60890  Biso   1.000  C
  H61      1.0000 0.66700  0.82330  0.14060  Biso   1.000  H
  H62      1.0000 0.33300  0.32330  0.35940  Biso   1.000  H
  H63      1.0000 0.33300  0.17670  0.85940  Biso   1.000  H
  H64      1.0000 0.66700  0.67670  0.64060  Biso   1.000  H
  C89      1.0000 0.69100  0.80500  0.05770  Biso   1.000  C
  C90      1.0000 0.30900  0.30500  0.44230  Biso   1.000  C
  C91      1.0000 0.30900  0.19500  0.94230  Biso   1.000  C
  C92      1.0000 0.69100  0.69500  0.55770  Biso   1.000  C
  H65      1.0000 0.70930  0.86980  0.05560  Biso   1.000  H
  H66      1.0000 0.29070  0.36980  0.44440  Biso   1.000  H
  H67      1.0000 0.29070  0.13020  0.94440  Biso   1.000  H
  H68      1.0000 0.70930  0.63020  0.55560  Biso   1.000  H
  C93      1.0000 0.68910  0.73760  0.00920  Biso   1.000  C
  C94      1.0000 0.31090  0.23760  0.49080  Biso   1.000  C
  C95      1.0000 0.31090  0.26240  0.99080  Biso   1.000  C
  C96      1.0000 0.68910  0.76240  0.50920  Biso   1.000  C
  H69      1.0000 0.70630  0.75660  0.97460  Biso   1.000  H
  H70      1.0000 0.29370  0.25660  0.52540  Biso   1.000  H
  H71      1.0000 0.29370  0.24340  0.02540  Biso   1.000  H
  H72      1.0000 0.70630  0.74340  0.47460  Biso   1.000  H
  C97      1.0000 0.66150  0.64290  0.01290  Biso   1.000  C
  C98      1.0000 0.33850  0.14290  0.48710  Biso   1.000  C
  C99      1.0000 0.33850  0.35710  0.98710  Biso   1.000  C
  C100     1.0000 0.66150  0.85710  0.51290  Biso   1.000  C
  H73      1.0000 0.66010  0.59810  0.98010  Biso   1.000  H
  H74      1.0000 0.33990  0.09810  0.51990  Biso   1.000  H
  H75      1.0000 0.33990  0.40190  0.01990  Biso   1.000  H
  H76      1.0000 0.66010  0.90190  0.48010  Biso   1.000  H
  C101     1.0000 0.63520  0.61020  0.06410  Biso   1.000  C
  C102     1.0000 0.36480  0.11020  0.43590  Biso   1.000  C
  C103     1.0000 0.36480  0.38980  0.93590  Biso   1.000  C
  C104     1.0000 0.63520  0.88980  0.56410  Biso   1.000  C
  C105     1.0000 0.61260  0.50710  0.06400  Biso   1.000  C
  C106     1.0000 0.38740  0.00710  0.43600  Biso   1.000  C
  C107     1.0000 0.38740  0.49290  0.93600  Biso   1.000  C
  C108     1.0000 0.61260  0.99290  0.56400  Biso   1.000  C
  H77      1.0000 0.61320  0.46900  0.02860  Biso   1.000  H
  H78      1.0000 0.38680  0.96900  0.47140  Biso   1.000  H
  H79      1.0000 0.38680  0.53100  0.97140  Biso   1.000  H
  H80      1.0000 0.61320  0.03100  0.52860  Biso   1.000  H
  C109     1.0000 0.58150  0.35360  0.10710  Biso   1.000  C
  C110     1.0000 0.41850  0.85360  0.39290  Biso   1.000  C
  C111     1.0000 0.41850  0.64640  0.89290  Biso   1.000  C
  C112     1.0000 0.58150  0.14640  0.60710  Biso   1.000  C
  H81      1.0000 0.63540  0.32210  0.12880  Biso   1.000  H
  H82      1.0000 0.36460  0.82210  0.37120  Biso   1.000  H
  H83      1.0000 0.36460  0.67790  0.87120  Biso   1.000  H
  H84      1.0000 0.63540  0.17790  0.62880  Biso   1.000  H
  H85      1.0000 0.56080  0.33020  0.06260  Biso   1.000  H
  H86      1.0000 0.43920  0.83020  0.43740  Biso   1.000  H
  H87      1.0000 0.43920  0.66980  0.93740  Biso   1.000  H
  H88      1.0000 0.56080  0.16980  0.56260  Biso   1.000  H
  C113     1.0000 0.51990  0.32620  0.14110  Biso   1.000  C
  C114     1.0000 0.48010  0.82620  0.35890  Biso   1.000  C
  C115     1.0000 0.48010  0.67380  0.85890  Biso   1.000  C
  C116     1.0000 0.51990  0.17380  0.64110  Biso   1.000  C
  H89      1.0000 0.46280  0.33460  0.11160  Biso   1.000  H
  H90      1.0000 0.53720  0.83460  0.38840  Biso   1.000  H
  H91      1.0000 0.53720  0.66540  0.88840  Biso   1.000  H
  H92      1.0000 0.46280  0.16540  0.61160  Biso   1.000  H
  H93      1.0000 0.52750  0.25700  0.15450  Biso   1.000  H
  H94      1.0000 0.47250  0.75700  0.34550  Biso   1.000  H
  H95      1.0000 0.47250  0.74300  0.84550  Biso   1.000  H
  H96      1.0000 0.52750  0.24300  0.65450  Biso   1.000  H
  C117     1.0000 0.51680  0.35990  0.24810  Biso   1.000  C
  C118     1.0000 0.48320  0.85990  0.25190  Biso   1.000  C
  C119     1.0000 0.48320  0.64010  0.75190  Biso   1.000  C
  C120     1.0000 0.51680  0.14010  0.74810  Biso   1.000  C
  H97      1.0000 0.49610  0.29540  0.24670  Biso   1.000  H
  H98      1.0000 0.50390  0.79540  0.25330  Biso   1.000  H
  H99      1.0000 0.50390  0.70460  0.75330  Biso   1.000  H
  H100     1.0000 0.49610  0.20460  0.74670  Biso   1.000  H
  C121     1.0000 0.52680  0.41680  0.30610  Biso   1.000  C
  C122     1.0000 0.47320  0.91680  0.19390  Biso   1.000  C
  C123     1.0000 0.47320  0.58320  0.69390  Biso   1.000  C
  C124     1.0000 0.52680  0.08320  0.80610  Biso   1.000  C
  C125     1.0000 0.51790  0.36520  0.35970  Biso   1.000  C
  C126     1.0000 0.48210  0.86520  0.14030  Biso   1.000  C
  C127     1.0000 0.48210  0.63480  0.64030  Biso   1.000  C
  C128     1.0000 0.51790  0.13480  0.85970  Biso   1.000  C
  H101     1.0000 0.50280  0.29840  0.35470  Biso   1.000  H
  H102     1.0000 0.49720  0.79840  0.14530  Biso   1.000  H
  H103     1.0000 0.49720  0.70160  0.64530  Biso   1.000  H
  H104     1.0000 0.50280  0.20160  0.85470  Biso   1.000  H
  C129     1.0000 0.53050  0.40910  0.41830  Biso   1.000  C
  C130     1.0000 0.46950  0.90910  0.08170  Biso   1.000  C
  C131     1.0000 0.46950  0.59090  0.58170  Biso   1.000  C
  C132     1.0000 0.53050  0.09090  0.91830  Biso   1.000  C
  H105     1.0000 0.52360  0.37290  0.45250  Biso   1.000  H
  H106     1.0000 0.47640  0.87290  0.04750  Biso   1.000  H
  H107     1.0000 0.47640  0.62710  0.54750  Biso   1.000  H
  H108     1.0000 0.52360  0.12710  0.95250  Biso   1.000  H
  C133     1.0000 0.55360  0.50880  0.42630  Biso   1.000  C
  C134     1.0000 0.44640  0.00880  0.07370  Biso   1.000  C
  C135     1.0000 0.44640  0.49120  0.57370  Biso   1.000  C
  C136     1.0000 0.55360  0.99120  0.92630  Biso   1.000  C
  H109     1.0000 0.56360  0.53920  0.46640  Biso   1.000  H
  H110     1.0000 0.43640  0.03920  0.03360  Biso   1.000  H
  H111     1.0000 0.43640  0.46080  0.53360  Biso   1.000  H
  H112     1.0000 0.56360  0.96080  0.96640  Biso   1.000  H
  C137     1.0000 0.56170  0.56290  0.37530  Biso   1.000  C
  C138     1.0000 0.43830  0.06290  0.12470  Biso   1.000  C
  C139     1.0000 0.43830  0.43710  0.62470  Biso   1.000  C
  C140     1.0000 0.56170  0.93710  0.87530  Biso   1.000  C
  H113     1.0000 0.57690  0.62960  0.38180  Biso   1.000  H
  H114     1.0000 0.42310  0.12960  0.11820  Biso   1.000  H
  H115     1.0000 0.42310  0.37040  0.61820  Biso   1.000  H
  H116     1.0000 0.57690  0.87040  0.88180  Biso   1.000  H
  C141     1.0000 0.54770  0.52060  0.31320  Biso   1.000  C
  C142     1.0000 0.45230  0.02060  0.18680  Biso   1.000  C
  C143     1.0000 0.45230  0.47940  0.68680  Biso   1.000  C
  C144     1.0000 0.54770  0.97940  0.81320  Biso   1.000  C
  C145     1.0000 0.72030  0.29560  0.37780  Biso   1.000  C
  C146     1.0000 0.27970  0.79560  0.12220  Biso   1.000  C
  C147     1.0000 0.27970  0.70440  0.62220  Biso   1.000  C
  C148     1.0000 0.72030  0.20440  0.87780  Biso   1.000  C
  H117     1.0000 0.68180  0.33940  0.34640  Biso   1.000  H
  H118     1.0000 0.31820  0.83940  0.15360  Biso   1.000  H
  H119     1.0000 0.31820  0.66060  0.65360  Biso   1.000  H
  H120     1.0000 0.68180  0.16060  0.84640  Biso   1.000  H
  H121     1.0000 0.68790  0.23970  0.38490  Biso   1.000  H
  H122     1.0000 0.31210  0.73970  0.11510  Biso   1.000  H
  H123     1.0000 0.31210  0.76030  0.61510  Biso   1.000  H
  H124     1.0000 0.68790  0.26030  0.88490  Biso   1.000  H
  C149     1.0000 0.75670  0.34970  0.43930  Biso   1.000  C
  C150     1.0000 0.24330  0.84970  0.06070  Biso   1.000  C
  C151     1.0000 0.24330  0.65030  0.56070  Biso   1.000  C
  C152     1.0000 0.75670  0.15030  0.93930  Biso   1.000  C
  H125     1.0000 0.78240  0.30260  0.47390  Biso   1.000  H
  H126     1.0000 0.21760  0.80260  0.02610  Biso   1.000  H
  H127     1.0000 0.21760  0.69740  0.52610  Biso   1.000  H
  H128     1.0000 0.78240  0.19740  0.97390  Biso   1.000  H
  H129     1.0000 0.71230  0.38440  0.44960  Biso   1.000  H
  H130     1.0000 0.28770  0.88440  0.05040  Biso   1.000  H
  H131     1.0000 0.28770  0.61560  0.55040  Biso   1.000  H
  H132     1.0000 0.71230  0.11560  0.94960  Biso   1.000  H
  C153     1.0000 0.89950  0.41370  0.49130  Biso   1.000  C
  C154     1.0000 0.10050  0.91370  0.00870  Biso   1.000  C
  C155     1.0000 0.10050  0.58630  0.50870  Biso   1.000  C
  C156     1.0000 0.89950  0.08630  0.99130  Biso   1.000  C
  H133     1.0000 0.88660  0.41970  0.53120  Biso   1.000  H
  H134     1.0000 0.11340  0.91970  0.96880  Biso   1.000  H
  H135     1.0000 0.11340  0.58030  0.46880  Biso   1.000  H
  H136     1.0000 0.88660  0.08030  0.03120  Biso   1.000  H
  H137     1.0000 0.93640  0.46840  0.48980  Biso   1.000  H
  H138     1.0000 0.06360  0.96840  0.01020  Biso   1.000  H
  H139     1.0000 0.06360  0.53160  0.51020  Biso   1.000  H
  H140     1.0000 0.93640  0.03160  0.98980  Biso   1.000  H
  C157     1.0000 0.94470  0.31780  0.49220  Biso   1.000  C
  C158     1.0000 0.05530  0.81780  0.00780  Biso   1.000  C
  C159     1.0000 0.05530  0.68220  0.50780  Biso   1.000  C
  C160     1.0000 0.94470  0.18220  0.99220  Biso   1.000  C
  H141     1.0000 0.00000  0.32150  0.52500  Biso   1.000  H
  H142     1.0000 0.00000  0.82150  0.97500  Biso   1.000  H
  H143     1.0000 0.00000  0.67850  0.47500  Biso   1.000  H
  H144     1.0000 0.00000  0.17850  0.02500  Biso   1.000  H
  H145     1.0000 0.91400  0.26450  0.50430  Biso   1.000  H
  H146     1.0000 0.08600  0.76450  0.99570  Biso   1.000  H
  H147     1.0000 0.08600  0.73550  0.49570  Biso   1.000  H
  H148     1.0000 0.91400  0.23550  0.00430  Biso   1.000  H
  C161     1.0000 0.92770  0.19090  0.40710  Biso   1.000  C
  C162     1.0000 0.07230  0.69090  0.09290  Biso   1.000  C
  C163     1.0000 0.07230  0.80910  0.59290  Biso   1.000  C
  C164     1.0000 0.92770  0.30910  0.90710  Biso   1.000  C
  H149     1.0000 0.95730  0.14490  0.44130  Biso   1.000  H
  H150     1.0000 0.04270  0.64490  0.05870  Biso   1.000  H
  H151     1.0000 0.04270  0.85510  0.55870  Biso   1.000  H
  H152     1.0000 0.95730  0.35510  0.94130  Biso   1.000  H
  H153     1.0000 0.94360  0.17590  0.36930  Biso   1.000  H
  H154     1.0000 0.05640  0.67590  0.13070  Biso   1.000  H
  H155     1.0000 0.05640  0.82410  0.63070  Biso   1.000  H
  H156     1.0000 0.94360  0.32410  0.86930  Biso   1.000  H
  C165     1.0000 0.83520  0.17580  0.39050  Biso   1.000  C
  C166     1.0000 0.16480  0.67580  0.10950  Biso   1.000  C
  C167     1.0000 0.16480  0.82420  0.60950  Biso   1.000  C
  C168     1.0000 0.83520  0.32420  0.89050  Biso   1.000  C
  H157     1.0000 0.81950  0.11350  0.36710  Biso   1.000  H
  H158     1.0000 0.18050  0.61350  0.13290  Biso   1.000  H
  H159     1.0000 0.18050  0.88650  0.63290  Biso   1.000  H
  H160     1.0000 0.81950  0.38650  0.86710  Biso   1.000  H
  H161     1.0000 0.82200  0.17050  0.43040  Biso   1.000  H
  H162     1.0000 0.17800  0.67050  0.06960  Biso   1.000  H
  H163     1.0000 0.17800  0.82950  0.56960  Biso   1.000  H
  H164     1.0000 0.82200  0.32950  0.93040  Biso   1.000  H
  C169     1.0000 0.73890  0.22270  0.28390  Biso   1.000  C
  C170     1.0000 0.26110  0.72270  0.21610  Biso   1.000  C
  C171     1.0000 0.26110  0.77730  0.71610  Biso   1.000  C
  C172     1.0000 0.73890  0.27730  0.78390  Biso   1.000  C
  H165     1.0000 0.70740  0.27670  0.25840  Biso   1.000  H
  H166     1.0000 0.29260  0.77670  0.24160  Biso   1.000  H
  H167     1.0000 0.29260  0.72330  0.74160  Biso   1.000  H
  H168     1.0000 0.70740  0.22330  0.75840  Biso   1.000  H
  H169     1.0000 0.70120  0.17000  0.28550  Biso   1.000  H
  H170     1.0000 0.29880  0.67000  0.21450  Biso   1.000  H
  H171     1.0000 0.29880  0.83000  0.71450  Biso   1.000  H
  H172     1.0000 0.70120  0.33000  0.78550  Biso   1.000  H
  H173     1.0000 0.77860  0.19840  0.26450  Biso   1.000  H
  H174     1.0000 0.22140  0.69840  0.23550  Biso   1.000  H
  H175     1.0000 0.22140  0.80160  0.73550  Biso   1.000  H
  H176     1.0000 0.77860  0.30160  0.76450  Biso   1.000  H
  C173     1.0000 0.78880  0.52480  0.43090  Biso   1.000  C
  C174     1.0000 0.21120  0.02480  0.06910  Biso   1.000  C
  C175     1.0000 0.21120  0.47520  0.56910  Biso   1.000  C
  C176     1.0000 0.78880  0.97520  0.93090  Biso   1.000  C
  H177     1.0000 0.73770  0.53040  0.39460  Biso   1.000  H
  H178     1.0000 0.26230  0.03040  0.10540  Biso   1.000  H
  H179     1.0000 0.26230  0.46960  0.60540  Biso   1.000  H
  H180     1.0000 0.73770  0.96960  0.89460  Biso   1.000  H
  H181     1.0000 0.83010  0.56960  0.42520  Biso   1.000  H
  H182     1.0000 0.16990  0.06960  0.07480  Biso   1.000  H
  H183     1.0000 0.16990  0.43040  0.57480  Biso   1.000  H
  H184     1.0000 0.83010  0.93040  0.92520  Biso   1.000  H
  H185     1.0000 0.77790  0.54140  0.47010  Biso   1.000  H
  H186     1.0000 0.22210  0.04140  0.02990  Biso   1.000  H
  H187     1.0000 0.22210  0.45860  0.52990  Biso   1.000  H
  H188     1.0000 0.77790  0.95860  0.97010  Biso   1.000  H
  C177     1.0000 0.04050  0.31230  0.42980  Biso   1.000  C
  C178     1.0000 0.95950  0.81230  0.07020  Biso   1.000  C
  C179     1.0000 0.95950  0.68770  0.57020  Biso   1.000  C
  C180     1.0000 0.04050  0.18770  0.92980  Biso   1.000  C
  H189     1.0000 0.05620  0.37950  0.44370  Biso   1.000  H
  H190     1.0000 0.94380  0.87950  0.05630  Biso   1.000  H
  H191     1.0000 0.94380  0.62050  0.55630  Biso   1.000  H
  H192     1.0000 0.05620  0.12050  0.94370  Biso   1.000  H
  H193     1.0000 0.04350  0.30300  0.38700  Biso   1.000  H
  H194     1.0000 0.95650  0.80300  0.11300  Biso   1.000  H
  H195     1.0000 0.95650  0.69700  0.61300  Biso   1.000  H
  H196     1.0000 0.04350  0.19700  0.88700  Biso   1.000  H
  H197     1.0000 0.07830  0.26690  0.45940  Biso   1.000  H
  H198     1.0000 0.92170  0.76690  0.04060  Biso   1.000  H
  H199     1.0000 0.92170  0.73310  0.54060  Biso   1.000  H
  H200     1.0000 0.07830  0.23310  0.95940  Biso   1.000  H
  C181     1.0000 0.19760  0.89530  0.43510  Biso   1.000  C
  C182     1.0000 0.80240  0.39530  0.06490  Biso   1.000  C
  C183     1.0000 0.80240  0.10470  0.56490  Biso   1.000  C
  C184     1.0000 0.19760  0.60470  0.93510  Biso   1.000  C
  H201     1.0000 0.19130  0.88890  0.39040  Biso   1.000  H
  H202     1.0000 0.80870  0.38890  0.10960  Biso   1.000  H
  H203     1.0000 0.80870  0.11110  0.60960  Biso   1.000  H
  H204     1.0000 0.19130  0.61110  0.89040  Biso   1.000  H
  H205     1.0000 0.22900  0.83910  0.45900  Biso   1.000  H
  H206     1.0000 0.77100  0.33910  0.04100  Biso   1.000  H
  H207     1.0000 0.77100  0.16090  0.54100  Biso   1.000  H
  H208     1.0000 0.22900  0.66090  0.95900  Biso   1.000  H
  H209     1.0000 0.22860  0.95530  0.45240  Biso   1.000  H
  H210     1.0000 0.77140  0.45530  0.04760  Biso   1.000  H
  H211     1.0000 0.77140  0.04470  0.54760  Biso   1.000  H
  H212     1.0000 0.22860  0.54470  0.95240  Biso   1.000  H
