data_image0
_cell_length_a       6.9009
_cell_length_b       31.1833
_cell_length_c       10.7808
_cell_angle_alpha    90
_cell_angle_beta     98.312
_cell_angle_gamma    90

_symmetry_space_group_name_H-M    "P 1"
_symmetry_int_tables_number       1

loop_
  _symmetry_equiv_pos_as_xyz
  'x, y, z'

loop_
  _atom_site_label
  _atom_site_occupancy
  _atom_site_fract_x
  _atom_site_fract_y
  _atom_site_fract_z
  _atom_site_thermal_displace_type
  _atom_site_B_iso_or_equiv
  _atom_site_type_symbol
  Cu1      1.0000 0.17475  0.62002  0.08646  Biso   1.000  Cu
  Cu2      1.0000 0.17475  0.87998  0.58646  Biso   1.000  Cu
  Cu3      1.0000 0.82525  0.37998  0.91354  Biso   1.000  Cu
  Cu4      1.0000 0.82525  0.12002  0.41354  Biso   1.000  Cu
  O1       1.0000 0.15520  0.65439  0.23691  Biso   1.000  O
  O2       1.0000 0.15520  0.84561  0.73691  Biso   1.000  O
  O3       1.0000 0.84480  0.34561  0.76309  Biso   1.000  O
  O4       1.0000 0.84480  0.15439  0.26309  Biso   1.000  O
  O5       1.0000 0.85490  0.62753  0.21880  Biso   1.000  O
  O6       1.0000 0.85490  0.87247  0.71880  Biso   1.000  O
  O7       1.0000 0.14510  0.37247  0.78120  Biso   1.000  O
  O8       1.0000 0.14510  0.12753  0.28120  Biso   1.000  O
  O9       1.0000 0.05440  0.83322  0.48437  Biso   1.000  O
  O10      1.0000 0.05440  0.66678  0.98437  Biso   1.000  O
  O11      1.0000 0.94560  0.16678  0.51563  Biso   1.000  O
  O12      1.0000 0.94560  0.33322  0.01563  Biso   1.000  O
  O13      1.0000 0.31020  0.78868  0.49600  Biso   1.000  O
  O14      1.0000 0.31020  0.71132  0.99600  Biso   1.000  O
  O15      1.0000 0.68980  0.21132  0.50400  Biso   1.000  O
  O16      1.0000 0.68980  0.28868  0.00400  Biso   1.000  O
  O17      1.0000 0.49280  0.63671  0.06150  Biso   1.000  O
  O18      1.0000 0.49280  0.86329  0.56150  Biso   1.000  O
  O19      1.0000 0.50720  0.36329  0.93850  Biso   1.000  O
  O20      1.0000 0.50720  0.13671  0.43850  Biso   1.000  O
  H1       1.0000 0.49920  0.66210  0.04250  Biso   1.000  H
  H2       1.0000 0.49920  0.83790  0.54250  Biso   1.000  H
  H3       1.0000 0.50080  0.33790  0.95750  Biso   1.000  H
  H4       1.0000 0.50080  0.16210  0.45750  Biso   1.000  H
  H5       1.0000 0.56200  0.63660  0.13000  Biso   1.000  H
  H6       1.0000 0.56200  0.86340  0.63000  Biso   1.000  H
  H7       1.0000 0.43800  0.36340  0.87000  Biso   1.000  H
  H8       1.0000 0.43800  0.13660  0.37000  Biso   1.000  H
  O21      1.0000 0.49300  0.60213  0.54880  Biso   1.000  O
  O22      1.0000 0.49300  0.89787  0.04880  Biso   1.000  O
  O23      1.0000 0.50700  0.39787  0.45120  Biso   1.000  O
  O24      1.0000 0.50700  0.10213  0.95120  Biso   1.000  O
  O25      1.0000 0.82160  0.57293  0.43540  Biso   1.000  O
  O26      1.0000 0.82160  0.92707  0.93540  Biso   1.000  O
  O27      1.0000 0.17840  0.42707  0.56460  Biso   1.000  O
  O28      1.0000 0.17840  0.07293  0.06460  Biso   1.000  O
  N1       1.0000 0.23780  0.56465  0.17820  Biso   1.000  N
  N2       1.0000 0.23780  0.93535  0.67820  Biso   1.000  N
  N3       1.0000 0.76220  0.43535  0.82180  Biso   1.000  N
  N4       1.0000 0.76220  0.06465  0.32180  Biso   1.000  N
  N5       1.0000 0.16060  0.58028  0.93630  Biso   1.000  N
  N6       1.0000 0.16060  0.91972  0.43630  Biso   1.000  N
  N7       1.0000 0.83940  0.41972  0.06370  Biso   1.000  N
  N8       1.0000 0.83940  0.08028  0.56370  Biso   1.000  N
  N9       1.0000 0.47260  0.66380  0.65750  Biso   1.000  N
  N10      1.0000 0.47260  0.83620  0.15750  Biso   1.000  N
  N11      1.0000 0.52740  0.33620  0.34250  Biso   1.000  N
  N12      1.0000 0.52740  0.16380  0.84250  Biso   1.000  N
  C1       1.0000 0.27370  0.55781  0.30100  Biso   1.000  C
  C2       1.0000 0.27370  0.94219  0.80100  Biso   1.000  C
  C3       1.0000 0.72630  0.44219  0.69900  Biso   1.000  C
  C4       1.0000 0.72630  0.05781  0.19900  Biso   1.000  C
  H9       1.0000 0.26660  0.58070  0.35530  Biso   1.000  H
  H10      1.0000 0.26660  0.91930  0.85530  Biso   1.000  H
  H11      1.0000 0.73340  0.41930  0.64470  Biso   1.000  H
  H12      1.0000 0.73340  0.08070  0.14470  Biso   1.000  H
  C5       1.0000 0.32180  0.51730  0.35100  Biso   1.000  C
  C6       1.0000 0.32180  0.98270  0.85100  Biso   1.000  C
  C7       1.0000 0.67820  0.48270  0.64900  Biso   1.000  C
  C8       1.0000 0.67820  0.01730  0.14900  Biso   1.000  C
  H13      1.0000 0.34430  0.51350  0.43750  Biso   1.000  H
  H14      1.0000 0.34430  0.98650  0.93750  Biso   1.000  H
  H15      1.0000 0.65570  0.48650  0.56250  Biso   1.000  H
  H16      1.0000 0.65570  0.01350  0.06250  Biso   1.000  H
  C9       1.0000 0.33590  0.48348  0.27440  Biso   1.000  C
  C10      1.0000 0.33590  0.01652  0.77440  Biso   1.000  C
  C11      1.0000 0.66410  0.51652  0.72560  Biso   1.000  C
  C12      1.0000 0.66410  0.98348  0.22560  Biso   1.000  C
  H17      1.0000 0.36990  0.45660  0.30790  Biso   1.000  H
  H18      1.0000 0.36990  0.04340  0.80790  Biso   1.000  H
  H19      1.0000 0.63010  0.54340  0.69210  Biso   1.000  H
  H20      1.0000 0.63010  0.95660  0.19210  Biso   1.000  H
  C13      1.0000 0.29890  0.48918  0.14420  Biso   1.000  C
  C14      1.0000 0.29890  0.01082  0.64420  Biso   1.000  C
  C15      1.0000 0.70110  0.51082  0.85580  Biso   1.000  C
  C16      1.0000 0.70110  0.98918  0.35580  Biso   1.000  C
  C17      1.0000 0.30750  0.45589  0.05220  Biso   1.000  C
  C18      1.0000 0.30750  0.04411  0.55220  Biso   1.000  C
  C19      1.0000 0.69250  0.54411  0.94780  Biso   1.000  C
  C20      1.0000 0.69250  0.95589  0.44780  Biso   1.000  C
  H21      1.0000 0.34150  0.42820  0.07900  Biso   1.000  H
  H22      1.0000 0.34150  0.07180  0.57900  Biso   1.000  H
  H23      1.0000 0.65850  0.57180  0.92100  Biso   1.000  H
  H24      1.0000 0.65850  0.92820  0.42100  Biso   1.000  H
  C21      1.0000 0.26760  0.46394  0.92920  Biso   1.000  C
  C22      1.0000 0.26760  0.03606  0.42920  Biso   1.000  C
  C23      1.0000 0.73240  0.53606  0.07080  Biso   1.000  C
  C24      1.0000 0.73240  0.96394  0.57080  Biso   1.000  C
  H25      1.0000 0.27430  0.44170  0.87250  Biso   1.000  H
  H26      1.0000 0.27430  0.05830  0.37250  Biso   1.000  H
  H27      1.0000 0.72570  0.55830  0.12750  Biso   1.000  H
  H28      1.0000 0.72570  0.94170  0.62750  Biso   1.000  H
  C25      1.0000 0.21470  0.50609  0.88270  Biso   1.000  C
  C26      1.0000 0.21470  0.99391  0.38270  Biso   1.000  C
  C27      1.0000 0.78530  0.49391  0.11730  Biso   1.000  C
  C28      1.0000 0.78530  0.00609  0.61730  Biso   1.000  C
  C29      1.0000 0.17210  0.51709  0.75550  Biso   1.000  C
  C30      1.0000 0.17210  0.98291  0.25550  Biso   1.000  C
  C31      1.0000 0.82790  0.48291  0.24450  Biso   1.000  C
  C32      1.0000 0.82790  0.01709  0.74450  Biso   1.000  C
  H29      1.0000 0.17530  0.49630  0.69410  Biso   1.000  H
  H30      1.0000 0.17530  0.00370  0.19410  Biso   1.000  H
  H31      1.0000 0.82470  0.50370  0.30590  Biso   1.000  H
  H32      1.0000 0.82470  0.99630  0.80590  Biso   1.000  H
  C33      1.0000 0.12570  0.55848  0.72220  Biso   1.000  C
  C34      1.0000 0.12570  0.94152  0.22220  Biso   1.000  C
  C35      1.0000 0.87430  0.44152  0.27780  Biso   1.000  C
  C36      1.0000 0.87430  0.05848  0.77780  Biso   1.000  C
  H33      1.0000 0.09750  0.56600  0.63810  Biso   1.000  H
  H34      1.0000 0.09750  0.93400  0.13810  Biso   1.000  H
  H35      1.0000 0.90250  0.43400  0.36190  Biso   1.000  H
  H36      1.0000 0.90250  0.06600  0.86190  Biso   1.000  H
  C37      1.0000 0.12110  0.58935  0.81540  Biso   1.000  C
  C38      1.0000 0.12110  0.91065  0.31540  Biso   1.000  C
  C39      1.0000 0.87890  0.41065  0.18460  Biso   1.000  C
  C40      1.0000 0.87890  0.08935  0.68460  Biso   1.000  C
  H37      1.0000 0.08900  0.61740  0.79160  Biso   1.000  H
  H38      1.0000 0.08900  0.88260  0.29160  Biso   1.000  H
  H39      1.0000 0.91100  0.38260  0.20840  Biso   1.000  H
  H40      1.0000 0.91100  0.11740  0.70840  Biso   1.000  H
  C41      1.0000 0.20640  0.53919  0.96940  Biso   1.000  C
  C42      1.0000 0.20640  0.96081  0.46940  Biso   1.000  C
  C43      1.0000 0.79360  0.46081  0.03060  Biso   1.000  C
  C44      1.0000 0.79360  0.03919  0.53060  Biso   1.000  C
  C45      1.0000 0.24890  0.53049  0.10090  Biso   1.000  C
  C46      1.0000 0.24890  0.96951  0.60090  Biso   1.000  C
  C47      1.0000 0.75110  0.46951  0.89910  Biso   1.000  C
  C48      1.0000 0.75110  0.03049  0.39910  Biso   1.000  C
  C49      1.0000 0.97960  0.65528  0.25860  Biso   1.000  C
  C50      1.0000 0.97960  0.84472  0.75860  Biso   1.000  C
  C51      1.0000 0.02040  0.34472  0.74140  Biso   1.000  C
  C52      1.0000 0.02040  0.15528  0.24140  Biso   1.000  C
  C53      1.0000 0.91960  0.69192  0.33530  Biso   1.000  C
  C54      1.0000 0.91960  0.80808  0.83530  Biso   1.000  C
  C55      1.0000 0.08040  0.30808  0.66470  Biso   1.000  C
  C56      1.0000 0.08040  0.19192  0.16470  Biso   1.000  C
  C57      1.0000 0.05040  0.72539  0.37240  Biso   1.000  C
  C58      1.0000 0.05040  0.77461  0.87240  Biso   1.000  C
  C59      1.0000 0.94960  0.27461  0.62760  Biso   1.000  C
  C60      1.0000 0.94960  0.22539  0.12760  Biso   1.000  C
  H41      1.0000 0.17740  0.72420  0.35320  Biso   1.000  H
  H42      1.0000 0.17740  0.77580  0.85320  Biso   1.000  H
  H43      1.0000 0.82260  0.27580  0.64680  Biso   1.000  H
  H44      1.0000 0.82260  0.22420  0.14680  Biso   1.000  H
  C61      1.0000 0.99190  0.76028  0.43740  Biso   1.000  C
  C62      1.0000 0.99190  0.73972  0.93740  Biso   1.000  C
  C63      1.0000 0.00810  0.23972  0.56260  Biso   1.000  C
  C64      1.0000 0.00810  0.26028  0.06260  Biso   1.000  C
  C65      1.0000 0.80250  0.76158  0.46760  Biso   1.000  C
  C66      1.0000 0.80250  0.73842  0.96760  Biso   1.000  C
  C67      1.0000 0.19750  0.23842  0.53240  Biso   1.000  C
  C68      1.0000 0.19750  0.26158  0.03240  Biso   1.000  C
  H45      1.0000 0.76250  0.78480  0.51160  Biso   1.000  H
  H46      1.0000 0.76250  0.71520  0.01160  Biso   1.000  H
  H47      1.0000 0.23750  0.21520  0.48840  Biso   1.000  H
  H48      1.0000 0.23750  0.28480  0.98840  Biso   1.000  H
  C69      1.0000 0.67370  0.72828  0.43220  Biso   1.000  C
  C70      1.0000 0.67370  0.77172  0.93220  Biso   1.000  C
  C71      1.0000 0.32630  0.27172  0.56780  Biso   1.000  C
  C72      1.0000 0.32630  0.22828  0.06780  Biso   1.000  C
  H49      1.0000 0.54740  0.72920  0.45270  Biso   1.000  H
  H50      1.0000 0.54740  0.77080  0.95270  Biso   1.000  H
  H51      1.0000 0.45260  0.27080  0.54730  Biso   1.000  H
  H52      1.0000 0.45260  0.22920  0.04730  Biso   1.000  H
  C73      1.0000 0.73130  0.69376  0.36690  Biso   1.000  C
  C74      1.0000 0.73130  0.80624  0.86690  Biso   1.000  C
  C75      1.0000 0.26870  0.30624  0.63310  Biso   1.000  C
  C76      1.0000 0.26870  0.19376  0.13310  Biso   1.000  C
  H53      1.0000 0.64390  0.67150  0.34370  Biso   1.000  H
  H54      1.0000 0.64390  0.82850  0.84370  Biso   1.000  H
  H55      1.0000 0.35610  0.32850  0.65630  Biso   1.000  H
  H56      1.0000 0.35610  0.17150  0.15630  Biso   1.000  H
  C77      1.0000 0.13350  0.79641  0.47630  Biso   1.000  C
  C78      1.0000 0.13350  0.70359  0.97630  Biso   1.000  C
  C79      1.0000 0.86650  0.20359  0.52370  Biso   1.000  C
  C80      1.0000 0.86650  0.29641  0.02370  Biso   1.000  C
  C81      1.0000 0.41600  0.63539  0.56870  Biso   1.000  C
  C82      1.0000 0.41600  0.86461  0.06870  Biso   1.000  C
  C83      1.0000 0.58400  0.36461  0.43130  Biso   1.000  C
  C84      1.0000 0.58400  0.13539  0.93130  Biso   1.000  C
  H57      1.0000 0.30210  0.64200  0.51490  Biso   1.000  H
  H58      1.0000 0.30210  0.85800  0.01490  Biso   1.000  H
  H59      1.0000 0.69790  0.35800  0.48510  Biso   1.000  H
  H60      1.0000 0.69790  0.14200  0.98510  Biso   1.000  H
  C85      1.0000 0.32700  0.69863  0.68170  Biso   1.000  C
  C86      1.0000 0.32700  0.80137  0.18170  Biso   1.000  C
  C87      1.0000 0.67300  0.30137  0.31830  Biso   1.000  C
  C88      1.0000 0.67300  0.19863  0.81830  Biso   1.000  C
  H61      1.0000 0.21560  0.69770  0.61710  Biso   1.000  H
  H62      1.0000 0.21560  0.80230  0.11710  Biso   1.000  H
  H63      1.0000 0.78440  0.30230  0.38290  Biso   1.000  H
  H64      1.0000 0.78440  0.19770  0.88290  Biso   1.000  H
  H65      1.0000 0.38880  0.72620  0.68140  Biso   1.000  H
  H66      1.0000 0.38880  0.77380  0.18140  Biso   1.000  H
  H67      1.0000 0.61120  0.27380  0.31860  Biso   1.000  H
  H68      1.0000 0.61120  0.22620  0.81860  Biso   1.000  H
  H69      1.0000 0.28510  0.69380  0.76160  Biso   1.000  H
  H70      1.0000 0.28510  0.80620  0.26160  Biso   1.000  H
  H71      1.0000 0.71490  0.30620  0.23840  Biso   1.000  H
  H72      1.0000 0.71490  0.19380  0.73840  Biso   1.000  H
  C89      1.0000 0.65820  0.65719  0.74050  Biso   1.000  C
  C90      1.0000 0.65820  0.84281  0.24050  Biso   1.000  C
  C91      1.0000 0.34180  0.34281  0.25950  Biso   1.000  C
  C92      1.0000 0.34180  0.15719  0.75950  Biso   1.000  C
  H73      1.0000 0.69610  0.62760  0.73770  Biso   1.000  H
  H74      1.0000 0.69610  0.87240  0.23770  Biso   1.000  H
  H75      1.0000 0.30390  0.37240  0.26230  Biso   1.000  H
  H76      1.0000 0.30390  0.12760  0.76230  Biso   1.000  H
  H77      1.0000 0.64230  0.66470  0.82480  Biso   1.000  H
  H78      1.0000 0.64230  0.83530  0.32480  Biso   1.000  H
  H79      1.0000 0.35770  0.33530  0.17520  Biso   1.000  H
  H80      1.0000 0.35770  0.16470  0.67520  Biso   1.000  H
  H81      1.0000 0.75780  0.67490  0.71340  Biso   1.000  H
  H82      1.0000 0.75780  0.82510  0.21340  Biso   1.000  H
  H83      1.0000 0.24220  0.32510  0.28660  Biso   1.000  H
  H84      1.0000 0.24220  0.17490  0.78660  Biso   1.000  H
  H85      1.0000 0.81800  0.58800  0.37400  Biso   1.000  H
  H86      1.0000 0.81800  0.91200  0.87400  Biso   1.000  H
  H87      1.0000 0.18200  0.41200  0.62600  Biso   1.000  H
  H88      1.0000 0.18200  0.08800  0.12600  Biso   1.000  H
  H89      1.0000 0.74900  0.59000  0.46500  Biso   1.000  H
  H90      1.0000 0.74900  0.91000  0.96500  Biso   1.000  H
  H91      1.0000 0.25100  0.41000  0.53500  Biso   1.000  H
  H92      1.0000 0.25100  0.09000  0.03500  Biso   1.000  H
