data_image0
_cell_length_a       11.8346
_cell_length_b       18.292
_cell_length_c       12.5567
_cell_angle_alpha    90
_cell_angle_beta     108.881
_cell_angle_gamma    90

_symmetry_space_group_name_H-M    "P 1"
_symmetry_int_tables_number       1

loop_
  _symmetry_equiv_pos_as_xyz
  'x, y, z'

loop_
  _atom_site_label
  _atom_site_occupancy
  _atom_site_fract_x
  _atom_site_fract_y
  _atom_site_fract_z
  _atom_site_thermal_displace_type
  _atom_site_B_iso_or_equiv
  _atom_site_type_symbol
  Cu1      1.0000 0.29486  0.67627  0.33662  Biso   1.000  Cu
  Cu2      1.0000 0.29486  0.82373  0.83662  Biso   1.000  Cu
  Cu3      1.0000 0.70514  0.32373  0.66338  Biso   1.000  Cu
  Cu4      1.0000 0.70514  0.17627  0.16338  Biso   1.000  Cu
  Cu5      1.0000 0.29115  0.85972  0.35316  Biso   1.000  Cu
  Cu6      1.0000 0.29115  0.64028  0.85316  Biso   1.000  Cu
  Cu7      1.0000 0.70885  0.14028  0.64684  Biso   1.000  Cu
  Cu8      1.0000 0.70885  0.35972  0.14684  Biso   1.000  Cu
  V1       1.0000 0.33591  0.02713  0.31888  Biso   1.000  V
  V2       1.0000 0.33591  0.47287  0.81888  Biso   1.000  V
  V3       1.0000 0.66409  0.97287  0.68112  Biso   1.000  V
  V4       1.0000 0.66409  0.52713  0.18112  Biso   1.000  V
  V5       1.0000 0.35771  0.97925  0.57561  Biso   1.000  V
  V6       1.0000 0.35771  0.52075  0.07561  Biso   1.000  V
  V7       1.0000 0.64229  0.02075  0.42439  Biso   1.000  V
  V8       1.0000 0.64229  0.47925  0.92439  Biso   1.000  V
  O1       1.0000 0.25359  0.95463  0.25711  Biso   1.000  O
  O2       1.0000 0.25359  0.54537  0.75711  Biso   1.000  O
  O3       1.0000 0.74641  0.04537  0.74289  Biso   1.000  O
  O4       1.0000 0.74641  0.45463  0.24289  Biso   1.000  O
  O5       1.0000 0.28632  0.10102  0.24315  Biso   1.000  O
  O6       1.0000 0.28632  0.39898  0.74315  Biso   1.000  O
  O7       1.0000 0.71368  0.89898  0.75685  Biso   1.000  O
  O8       1.0000 0.71368  0.60102  0.25685  Biso   1.000  O
  O9       1.0000 0.32365  0.04032  0.45550  Biso   1.000  O
  O10      1.0000 0.32365  0.45968  0.95550  Biso   1.000  O
  O11      1.0000 0.67635  0.95968  0.54450  Biso   1.000  O
  O12      1.0000 0.67635  0.54032  0.04450  Biso   1.000  O
  O13      1.0000 0.48876  0.01133  0.33341  Biso   1.000  O
  O14      1.0000 0.48876  0.48867  0.83341  Biso   1.000  O
  O15      1.0000 0.51124  0.98867  0.66659  Biso   1.000  O
  O16      1.0000 0.51124  0.51133  0.16659  Biso   1.000  O
  O17      1.0000 0.26824  0.99869  0.64643  Biso   1.000  O
  O18      1.0000 0.26824  0.50131  0.14643  Biso   1.000  O
  O19      1.0000 0.73176  0.00131  0.35357  Biso   1.000  O
  O20      1.0000 0.73176  0.49869  0.85357  Biso   1.000  O
  O21      1.0000 0.33072  0.89526  0.52402  Biso   1.000  O
  O22      1.0000 0.33072  0.60474  0.02402  Biso   1.000  O
  O23      1.0000 0.66928  0.10474  0.47598  Biso   1.000  O
  O24      1.0000 0.66928  0.39526  0.97598  Biso   1.000  O
  O25      1.0000 0.10220  0.09083  0.03652  Biso   1.000  O
  O26      1.0000 0.10220  0.40917  0.53652  Biso   1.000  O
  O27      1.0000 0.89780  0.90917  0.96348  Biso   1.000  O
  O28      1.0000 0.89780  0.59083  0.46348  Biso   1.000  O
  O29      1.0000 0.14844  0.94032  0.02728  Biso   1.000  O
  O30      1.0000 0.14844  0.55968  0.52728  Biso   1.000  O
  O31      1.0000 0.85156  0.05968  0.97272  Biso   1.000  O
  O32      1.0000 0.85156  0.44032  0.47272  Biso   1.000  O
  N1       1.0000 0.15089  0.63022  0.22712  Biso   1.000  N
  N2       1.0000 0.15089  0.86978  0.72712  Biso   1.000  N
  N3       1.0000 0.84911  0.36978  0.77288  Biso   1.000  N
  N4       1.0000 0.84911  0.13022  0.27288  Biso   1.000  N
  N5       1.0000 0.29222  0.72887  0.19110  Biso   1.000  N
  N6       1.0000 0.29222  0.77113  0.69110  Biso   1.000  N
  N7       1.0000 0.70778  0.27113  0.80890  Biso   1.000  N
  N8       1.0000 0.70778  0.22887  0.30890  Biso   1.000  N
  N9       1.0000 0.45164  0.81741  0.37270  Biso   1.000  N
  N10      1.0000 0.45164  0.68259  0.87270  Biso   1.000  N
  N11      1.0000 0.54836  0.18259  0.62730  Biso   1.000  N
  N12      1.0000 0.54836  0.31741  0.12730  Biso   1.000  N
  N13      1.0000 0.12376  0.68011  0.81658  Biso   1.000  N
  N14      1.0000 0.12376  0.81989  0.31658  Biso   1.000  N
  N15      1.0000 0.87624  0.31989  0.18342  Biso   1.000  N
  N16      1.0000 0.87624  0.18011  0.68342  Biso   1.000  N
  N17      1.0000 0.28020  0.78629  0.98551  Biso   1.000  N
  N18      1.0000 0.28020  0.71371  0.48551  Biso   1.000  N
  N19      1.0000 0.71980  0.21371  0.01449  Biso   1.000  N
  N20      1.0000 0.71980  0.28629  0.51449  Biso   1.000  N
  N21      1.0000 0.44466  0.86601  0.94482  Biso   1.000  N
  N22      1.0000 0.44466  0.63399  0.44482  Biso   1.000  N
  N23      1.0000 0.55534  0.13399  0.05518  Biso   1.000  N
  N24      1.0000 0.55534  0.36601  0.55518  Biso   1.000  N
  C1       1.0000 0.08450  0.57834  0.25387  Biso   1.000  C
  C2       1.0000 0.08450  0.92166  0.75387  Biso   1.000  C
  C3       1.0000 0.91550  0.42166  0.74613  Biso   1.000  C
  C4       1.0000 0.91550  0.07834  0.24613  Biso   1.000  C
  C5       1.0000 0.98500  0.54740  0.17660  Biso   1.000  C
  C6       1.0000 0.98500  0.95260  0.67660  Biso   1.000  C
  C7       1.0000 0.01500  0.45260  0.82340  Biso   1.000  C
  C8       1.0000 0.01500  0.04740  0.32340  Biso   1.000  C
  C9       1.0000 0.95280  0.57044  0.06570  Biso   1.000  C
  C10      1.0000 0.95280  0.92956  0.56570  Biso   1.000  C
  C11      1.0000 0.04720  0.42956  0.93430  Biso   1.000  C
  C12      1.0000 0.04720  0.07044  0.43430  Biso   1.000  C
  C13      1.0000 0.02150  0.62424  0.03727  Biso   1.000  C
  C14      1.0000 0.02150  0.87576  0.53727  Biso   1.000  C
  C15      1.0000 0.97850  0.37576  0.96273  Biso   1.000  C
  C16      1.0000 0.97850  0.12424  0.46273  Biso   1.000  C
  C17      1.0000 0.11888  0.65385  0.11928  Biso   1.000  C
  C18      1.0000 0.11888  0.84615  0.61928  Biso   1.000  C
  C19      1.0000 0.88112  0.34615  0.88072  Biso   1.000  C
  C20      1.0000 0.88112  0.15385  0.38072  Biso   1.000  C
  C21      1.0000 0.20061  0.71007  0.09934  Biso   1.000  C
  C22      1.0000 0.20061  0.78993  0.59934  Biso   1.000  C
  C23      1.0000 0.79939  0.28993  0.90066  Biso   1.000  C
  C24      1.0000 0.79939  0.21007  0.40066  Biso   1.000  C
  C25      1.0000 0.37808  0.77414  0.18145  Biso   1.000  C
  C26      1.0000 0.37808  0.72586  0.68145  Biso   1.000  C
  C27      1.0000 0.62192  0.22586  0.81855  Biso   1.000  C
  C28      1.0000 0.62192  0.27414  0.31855  Biso   1.000  C
  C29      1.0000 0.37239  0.80463  0.07734  Biso   1.000  C
  C30      1.0000 0.37239  0.69537  0.57734  Biso   1.000  C
  C31      1.0000 0.62761  0.19537  0.92266  Biso   1.000  C
  C32      1.0000 0.62761  0.30463  0.42266  Biso   1.000  C
  C33      1.0000 0.47890  0.78267  0.28882  Biso   1.000  C
  C34      1.0000 0.47890  0.71733  0.78882  Biso   1.000  C
  C35      1.0000 0.52110  0.21733  0.71118  Biso   1.000  C
  C36      1.0000 0.52110  0.28267  0.21118  Biso   1.000  C
  C37      1.0000 0.58800  0.75028  0.30224  Biso   1.000  C
  C38      1.0000 0.58800  0.74972  0.80224  Biso   1.000  C
  C39      1.0000 0.41200  0.24972  0.69776  Biso   1.000  C
  C40      1.0000 0.41200  0.25028  0.19776  Biso   1.000  C
  C41      1.0000 0.67650  0.75550  0.40650  Biso   1.000  C
  C42      1.0000 0.67650  0.74450  0.90650  Biso   1.000  C
  C43      1.0000 0.32350  0.24450  0.59350  Biso   1.000  C
  C44      1.0000 0.32350  0.25550  0.09350  Biso   1.000  C
  C45      1.0000 0.65220  0.79324  0.49176  Biso   1.000  C
  C46      1.0000 0.65220  0.70676  0.99176  Biso   1.000  C
  C47      1.0000 0.34780  0.20676  0.50824  Biso   1.000  C
  C48      1.0000 0.34780  0.29324  0.00824  Biso   1.000  C
  C49      1.0000 0.53930  0.82230  0.47264  Biso   1.000  C
  C50      1.0000 0.53930  0.67770  0.97264  Biso   1.000  C
  C51      1.0000 0.46070  0.17770  0.52736  Biso   1.000  C
  C52      1.0000 0.46070  0.32230  0.02736  Biso   1.000  C
  C53      1.0000 0.03660  0.66584  0.71845  Biso   1.000  C
  C54      1.0000 0.03660  0.83416  0.21845  Biso   1.000  C
  C55      1.0000 0.96340  0.33416  0.28155  Biso   1.000  C
  C56      1.0000 0.96340  0.16584  0.78155  Biso   1.000  C
  C57      1.0000 0.92630  0.69965  0.68800  Biso   1.000  C
  C58      1.0000 0.92630  0.80035  0.18800  Biso   1.000  C
  C59      1.0000 0.07370  0.30035  0.31200  Biso   1.000  C
  C60      1.0000 0.07370  0.19965  0.81200  Biso   1.000  C
  C61      1.0000 0.90320  0.75139  0.75910  Biso   1.000  C
  C62      1.0000 0.90320  0.74861  0.25910  Biso   1.000  C
  C63      1.0000 0.09680  0.24861  0.24090  Biso   1.000  C
  C64      1.0000 0.09680  0.25139  0.74090  Biso   1.000  C
  C65      1.0000 0.99120  0.76514  0.86108  Biso   1.000  C
  C66      1.0000 0.99120  0.73486  0.36108  Biso   1.000  C
  C67      1.0000 0.00880  0.23486  0.13892  Biso   1.000  C
  C68      1.0000 0.00880  0.26514  0.63892  Biso   1.000  C
  C69      1.0000 0.09856  0.72783  0.88708  Biso   1.000  C
  C70      1.0000 0.09856  0.77217  0.38708  Biso   1.000  C
  C71      1.0000 0.90144  0.27217  0.11292  Biso   1.000  C
  C72      1.0000 0.90144  0.22783  0.61292  Biso   1.000  C
  C73      1.0000 0.19475  0.74151  0.99518  Biso   1.000  C
  C74      1.0000 0.19475  0.75849  0.49518  Biso   1.000  C
  C75      1.0000 0.80525  0.25849  0.00482  Biso   1.000  C
  C76      1.0000 0.80525  0.24151  0.50482  Biso   1.000  C
  C77      1.0000 0.52250  0.90864  0.91604  Biso   1.000  C
  C78      1.0000 0.52250  0.59136  0.41604  Biso   1.000  C
  C79      1.0000 0.47750  0.09136  0.08396  Biso   1.000  C
  C80      1.0000 0.47750  0.40864  0.58396  Biso   1.000  C
  C81      1.0000 0.61700  0.94387  0.99420  Biso   1.000  C
  C82      1.0000 0.61700  0.55613  0.49420  Biso   1.000  C
  C83      1.0000 0.38300  0.05613  0.00580  Biso   1.000  C
  C84      1.0000 0.38300  0.44387  0.50580  Biso   1.000  C
  C85      1.0000 0.62820  0.93716  0.10767  Biso   1.000  C
  C86      1.0000 0.62820  0.56284  0.60767  Biso   1.000  C
  C87      1.0000 0.37180  0.06284  0.89233  Biso   1.000  C
  C88      1.0000 0.37180  0.43716  0.39233  Biso   1.000  C
  C89      1.0000 0.54790  0.89357  0.13815  Biso   1.000  C
  C90      1.0000 0.54790  0.60643  0.63815  Biso   1.000  C
  C91      1.0000 0.45210  0.10643  0.86185  Biso   1.000  C
  C92      1.0000 0.45210  0.39357  0.36185  Biso   1.000  C
  C93      1.0000 0.45972  0.85621  0.05578  Biso   1.000  C
  C94      1.0000 0.45972  0.64379  0.55578  Biso   1.000  C
  C95      1.0000 0.54028  0.14379  0.94422  Biso   1.000  C
  C96      1.0000 0.54028  0.35621  0.44422  Biso   1.000  C
  H1       1.0000 0.11500  0.56150  0.33000  Biso   1.000  H
  H2       1.0000 0.11500  0.93850  0.83000  Biso   1.000  H
  H3       1.0000 0.88500  0.43850  0.67000  Biso   1.000  H
  H4       1.0000 0.88500  0.06150  0.17000  Biso   1.000  H
  H5       1.0000 0.93700  0.50830  0.20500  Biso   1.000  H
  H6       1.0000 0.93700  0.99170  0.70500  Biso   1.000  H
  H7       1.0000 0.06300  0.49170  0.79500  Biso   1.000  H
  H8       1.0000 0.06300  0.00830  0.29500  Biso   1.000  H
  H9       1.0000 0.89000  0.54910  0.00900  Biso   1.000  H
  H10      1.0000 0.89000  0.95090  0.50900  Biso   1.000  H
  H11      1.0000 0.11000  0.45090  0.99100  Biso   1.000  H
  H12      1.0000 0.11000  0.04910  0.49100  Biso   1.000  H
  H13      1.0000 0.00100  0.63960  0.95800  Biso   1.000  H
  H14      1.0000 0.00100  0.86040  0.45800  Biso   1.000  H
  H15      1.0000 0.99900  0.36040  0.04200  Biso   1.000  H
  H16      1.0000 0.99900  0.13960  0.54200  Biso   1.000  H
  H17      1.0000 0.59800  0.72060  0.23600  Biso   1.000  H
  H18      1.0000 0.59800  0.77940  0.73600  Biso   1.000  H
  H19      1.0000 0.40200  0.27940  0.76400  Biso   1.000  H
  H20      1.0000 0.40200  0.22060  0.26400  Biso   1.000  H
  H21      1.0000 0.74600  0.72890  0.41800  Biso   1.000  H
  H22      1.0000 0.74600  0.77110  0.91800  Biso   1.000  H
  H23      1.0000 0.25400  0.27110  0.58200  Biso   1.000  H
  H24      1.0000 0.25400  0.22890  0.08200  Biso   1.000  H
  H25      1.0000 0.71000  0.80070  0.56500  Biso   1.000  H
  H26      1.0000 0.71000  0.69930  0.06500  Biso   1.000  H
  H27      1.0000 0.29000  0.19930  0.43500  Biso   1.000  H
  H28      1.0000 0.29000  0.30070  0.93500  Biso   1.000  H
  H29      1.0000 0.51700  0.85120  0.53000  Biso   1.000  H
  H30      1.0000 0.51700  0.64880  0.03000  Biso   1.000  H
  H31      1.0000 0.48300  0.14880  0.47000  Biso   1.000  H
  H32      1.0000 0.48300  0.35120  0.97000  Biso   1.000  H
  H33      1.0000 0.05700  0.62950  0.66700  Biso   1.000  H
  H34      1.0000 0.05700  0.87050  0.16700  Biso   1.000  H
  H35      1.0000 0.94300  0.37050  0.33300  Biso   1.000  H
  H36      1.0000 0.94300  0.12950  0.83300  Biso   1.000  H
  H37      1.0000 0.86800  0.68900  0.61700  Biso   1.000  H
  H38      1.0000 0.86800  0.81100  0.11700  Biso   1.000  H
  H39      1.0000 0.13200  0.31100  0.38300  Biso   1.000  H
  H40      1.0000 0.13200  0.18900  0.88300  Biso   1.000  H
  H41      1.0000 0.83400  0.77850  0.73700  Biso   1.000  H
  H42      1.0000 0.83400  0.72150  0.23700  Biso   1.000  H
  H43      1.0000 0.16600  0.22150  0.26300  Biso   1.000  H
  H44      1.0000 0.16600  0.27850  0.76300  Biso   1.000  H
  H45      1.0000 0.98200  0.80120  0.91800  Biso   1.000  H
  H46      1.0000 0.98200  0.69880  0.41800  Biso   1.000  H
  H47      1.0000 0.01800  0.19880  0.08200  Biso   1.000  H
  H48      1.0000 0.01800  0.30120  0.58200  Biso   1.000  H
  H49      1.0000 0.51000  0.91120  0.83800  Biso   1.000  H
  H50      1.0000 0.51000  0.58880  0.33800  Biso   1.000  H
  H51      1.0000 0.49000  0.08880  0.16200  Biso   1.000  H
  H52      1.0000 0.49000  0.41120  0.66200  Biso   1.000  H
  H53      1.0000 0.67300  0.97890  0.97000  Biso   1.000  H
  H54      1.0000 0.67300  0.52110  0.47000  Biso   1.000  H
  H55      1.0000 0.32700  0.02110  0.03000  Biso   1.000  H
  H56      1.0000 0.32700  0.47890  0.53000  Biso   1.000  H
  H57      1.0000 0.68100  0.96280  0.15700  Biso   1.000  H
  H58      1.0000 0.68100  0.53720  0.65700  Biso   1.000  H
  H59      1.0000 0.31900  0.03720  0.84300  Biso   1.000  H
  H60      1.0000 0.31900  0.46280  0.34300  Biso   1.000  H
  H61      1.0000 0.55600  0.89170  0.21500  Biso   1.000  H
  H62      1.0000 0.55600  0.60830  0.71500  Biso   1.000  H
  H63      1.0000 0.44400  0.10830  0.78500  Biso   1.000  H
  H64      1.0000 0.44400  0.39170  0.28500  Biso   1.000  H
