data_image0
_cell_length_a       23.3777
_cell_length_b       10.2613
_cell_length_c       17.7592
_cell_angle_alpha    90
_cell_angle_beta     100.669
_cell_angle_gamma    90

_symmetry_space_group_name_H-M    "P 1"
_symmetry_int_tables_number       1

loop_
  _symmetry_equiv_pos_as_xyz
  'x, y, z'

loop_
  _atom_site_label
  _atom_site_occupancy
  _atom_site_fract_x
  _atom_site_fract_y
  _atom_site_fract_z
  _atom_site_thermal_displace_type
  _atom_site_B_iso_or_equiv
  _atom_site_type_symbol
  C1       1.0000 0.55252  0.79670  0.55450  Biso   1.000  C
  C2       1.0000 0.44748  0.79670  0.94550  Biso   1.000  C
  C3       1.0000 0.05252  0.29670  0.55450  Biso   1.000  C
  C4       1.0000 0.94748  0.29670  0.94550  Biso   1.000  C
  C5       1.0000 0.44748  0.20330  0.44550  Biso   1.000  C
  C6       1.0000 0.55252  0.20330  0.05450  Biso   1.000  C
  C7       1.0000 0.94748  0.70330  0.44550  Biso   1.000  C
  C8       1.0000 0.05252  0.70330  0.05450  Biso   1.000  C
  C9       1.0000 0.58653  0.68290  0.59290  Biso   1.000  C
  C10      1.0000 0.41347  0.68290  0.90710  Biso   1.000  C
  C11      1.0000 0.08653  0.18290  0.59290  Biso   1.000  C
  C12      1.0000 0.91347  0.18290  0.90710  Biso   1.000  C
  C13      1.0000 0.41347  0.31710  0.40710  Biso   1.000  C
  C14      1.0000 0.58653  0.31710  0.09290  Biso   1.000  C
  C15      1.0000 0.91347  0.81710  0.40710  Biso   1.000  C
  C16      1.0000 0.08653  0.81710  0.09290  Biso   1.000  C
  C17      1.0000 0.62284  0.70090  0.66300  Biso   1.000  C
  C18      1.0000 0.37716  0.70090  0.83700  Biso   1.000  C
  C19      1.0000 0.12284  0.20090  0.66300  Biso   1.000  C
  C20      1.0000 0.87716  0.20090  0.83700  Biso   1.000  C
  C21      1.0000 0.37716  0.29910  0.33700  Biso   1.000  C
  C22      1.0000 0.62284  0.29910  0.16300  Biso   1.000  C
  C23      1.0000 0.87716  0.79910  0.33700  Biso   1.000  C
  C24      1.0000 0.12284  0.79910  0.16300  Biso   1.000  C
  H1       1.0000 0.62460  0.78200  0.68670  Biso   1.000  H
  H2       1.0000 0.37540  0.78200  0.81330  Biso   1.000  H
  H3       1.0000 0.12460  0.28200  0.68670  Biso   1.000  H
  H4       1.0000 0.87540  0.28200  0.81330  Biso   1.000  H
  H5       1.0000 0.37540  0.21800  0.31330  Biso   1.000  H
  H6       1.0000 0.62460  0.21800  0.18670  Biso   1.000  H
  H7       1.0000 0.87540  0.71800  0.31330  Biso   1.000  H
  H8       1.0000 0.12460  0.71800  0.18670  Biso   1.000  H
  C25      1.0000 0.65632  0.59980  0.69780  Biso   1.000  C
  C26      1.0000 0.34368  0.59980  0.80220  Biso   1.000  C
  C27      1.0000 0.15632  0.09980  0.69780  Biso   1.000  C
  C28      1.0000 0.84368  0.09980  0.80220  Biso   1.000  C
  C29      1.0000 0.34368  0.40020  0.30220  Biso   1.000  C
  C30      1.0000 0.65632  0.40020  0.19780  Biso   1.000  C
  C31      1.0000 0.84368  0.90020  0.30220  Biso   1.000  C
  C32      1.0000 0.15632  0.90020  0.19780  Biso   1.000  C
  H9       1.0000 0.68110  0.61300  0.74450  Biso   1.000  H
  H10      1.0000 0.31890  0.61300  0.75550  Biso   1.000  H
  H11      1.0000 0.18110  0.11300  0.74450  Biso   1.000  H
  H12      1.0000 0.81890  0.11300  0.75550  Biso   1.000  H
  H13      1.0000 0.31890  0.38700  0.25550  Biso   1.000  H
  H14      1.0000 0.68110  0.38700  0.24450  Biso   1.000  H
  H15      1.0000 0.81890  0.88700  0.25550  Biso   1.000  H
  H16      1.0000 0.18110  0.88700  0.24450  Biso   1.000  H
  C33      1.0000 0.65313  0.47750  0.66316  Biso   1.000  C
  C34      1.0000 0.34687  0.47750  0.83684  Biso   1.000  C
  C35      1.0000 0.15313  0.97750  0.66316  Biso   1.000  C
  C36      1.0000 0.84687  0.97750  0.83684  Biso   1.000  C
  C37      1.0000 0.34687  0.52250  0.33684  Biso   1.000  C
  C38      1.0000 0.65313  0.52250  0.16316  Biso   1.000  C
  C39      1.0000 0.84687  0.02250  0.33684  Biso   1.000  C
  C40      1.0000 0.15313  0.02250  0.16316  Biso   1.000  C
  C41      1.0000 0.61492  0.45590  0.59430  Biso   1.000  C
  C42      1.0000 0.38508  0.45590  0.90570  Biso   1.000  C
  C43      1.0000 0.11492  0.95590  0.59430  Biso   1.000  C
  C44      1.0000 0.88508  0.95590  0.90570  Biso   1.000  C
  C45      1.0000 0.38508  0.54410  0.40570  Biso   1.000  C
  C46      1.0000 0.61492  0.54410  0.09430  Biso   1.000  C
  C47      1.0000 0.88508  0.04410  0.40570  Biso   1.000  C
  C48      1.0000 0.11492  0.04410  0.09430  Biso   1.000  C
  H17      1.0000 0.61150  0.37360  0.57200  Biso   1.000  H
  H18      1.0000 0.38850  0.37360  0.92800  Biso   1.000  H
  H19      1.0000 0.11150  0.87360  0.57200  Biso   1.000  H
  H20      1.0000 0.88850  0.87360  0.92800  Biso   1.000  H
  H21      1.0000 0.38850  0.62640  0.42800  Biso   1.000  H
  H22      1.0000 0.61150  0.62640  0.07200  Biso   1.000  H
  H23      1.0000 0.88850  0.12640  0.42800  Biso   1.000  H
  H24      1.0000 0.11150  0.12640  0.07200  Biso   1.000  H
  C49      1.0000 0.58176  0.56050  0.55940  Biso   1.000  C
  C50      1.0000 0.41824  0.56050  0.94060  Biso   1.000  C
  C51      1.0000 0.08176  0.06050  0.55940  Biso   1.000  C
  C52      1.0000 0.91824  0.06050  0.94060  Biso   1.000  C
  C53      1.0000 0.41824  0.43950  0.44060  Biso   1.000  C
  C54      1.0000 0.58176  0.43950  0.05940  Biso   1.000  C
  C55      1.0000 0.91824  0.93950  0.44060  Biso   1.000  C
  C56      1.0000 0.08176  0.93950  0.05940  Biso   1.000  C
  H25      1.0000 0.55620  0.54760  0.51320  Biso   1.000  H
  H26      1.0000 0.44380  0.54760  0.98680  Biso   1.000  H
  H27      1.0000 0.05620  0.04760  0.51320  Biso   1.000  H
  H28      1.0000 0.94380  0.04760  0.98680  Biso   1.000  H
  H29      1.0000 0.44380  0.45240  0.48680  Biso   1.000  H
  H30      1.0000 0.55620  0.45240  0.01320  Biso   1.000  H
  H31      1.0000 0.94380  0.95240  0.48680  Biso   1.000  H
  H32      1.0000 0.05620  0.95240  0.01320  Biso   1.000  H
  C57      1.0000 0.71326  0.37310  0.80620  Biso   1.000  C
  C58      1.0000 0.28674  0.37310  0.69380  Biso   1.000  C
  C59      1.0000 0.21326  0.87310  0.80620  Biso   1.000  C
  C60      1.0000 0.78674  0.87310  0.69380  Biso   1.000  C
  C61      1.0000 0.28674  0.62690  0.19380  Biso   1.000  C
  C62      1.0000 0.71326  0.62690  0.30620  Biso   1.000  C
  C63      1.0000 0.78674  0.12690  0.19380  Biso   1.000  C
  C64      1.0000 0.21326  0.12690  0.30620  Biso   1.000  C
  C65      1.0000 0.66640  0.35340  0.84080  Biso   1.000  C
  C66      1.0000 0.33360  0.35340  0.65920  Biso   1.000  C
  C67      1.0000 0.16640  0.85340  0.84080  Biso   1.000  C
  C68      1.0000 0.83360  0.85340  0.65920  Biso   1.000  C
  C69      1.0000 0.33360  0.64660  0.15920  Biso   1.000  C
  C70      1.0000 0.66640  0.64660  0.34080  Biso   1.000  C
  C71      1.0000 0.83360  0.14660  0.15920  Biso   1.000  C
  C72      1.0000 0.16640  0.14660  0.34080  Biso   1.000  C
  H33      1.0000 0.63100  0.32870  0.81130  Biso   1.000  H
  H34      1.0000 0.36900  0.32870  0.68870  Biso   1.000  H
  H35      1.0000 0.13100  0.82870  0.81130  Biso   1.000  H
  H36      1.0000 0.86900  0.82870  0.68870  Biso   1.000  H
  H37      1.0000 0.36900  0.67130  0.18870  Biso   1.000  H
  H38      1.0000 0.63100  0.67130  0.31130  Biso   1.000  H
  H39      1.0000 0.86900  0.17130  0.18870  Biso   1.000  H
  H40      1.0000 0.13100  0.17130  0.31130  Biso   1.000  H
  C73      1.0000 0.67110  0.36980  0.91940  Biso   1.000  C
  C74      1.0000 0.32890  0.36980  0.58060  Biso   1.000  C
  C75      1.0000 0.17110  0.86980  0.91940  Biso   1.000  C
  C76      1.0000 0.82890  0.86980  0.58060  Biso   1.000  C
  C77      1.0000 0.32890  0.63020  0.08060  Biso   1.000  C
  C78      1.0000 0.67110  0.63020  0.41940  Biso   1.000  C
  C79      1.0000 0.82890  0.13020  0.08060  Biso   1.000  C
  C80      1.0000 0.17110  0.13020  0.41940  Biso   1.000  C
  H41      1.0000 0.63870  0.35570  0.94170  Biso   1.000  H
  H42      1.0000 0.36130  0.35570  0.55830  Biso   1.000  H
  H43      1.0000 0.13870  0.85570  0.94170  Biso   1.000  H
  H44      1.0000 0.86130  0.85570  0.55830  Biso   1.000  H
  H45      1.0000 0.36130  0.64430  0.05830  Biso   1.000  H
  H46      1.0000 0.63870  0.64430  0.44170  Biso   1.000  H
  H47      1.0000 0.86130  0.14430  0.05830  Biso   1.000  H
  H48      1.0000 0.13870  0.14430  0.44170  Biso   1.000  H
  C81      1.0000 0.72220  0.40620  0.96400  Biso   1.000  C
  C82      1.0000 0.27780  0.40620  0.53600  Biso   1.000  C
  C83      1.0000 0.22220  0.90620  0.96400  Biso   1.000  C
  C84      1.0000 0.77780  0.90620  0.53600  Biso   1.000  C
  C85      1.0000 0.27780  0.59380  0.03600  Biso   1.000  C
  C86      1.0000 0.72220  0.59380  0.46400  Biso   1.000  C
  C87      1.0000 0.77780  0.09380  0.03600  Biso   1.000  C
  C88      1.0000 0.22220  0.09380  0.46400  Biso   1.000  C
  H49      1.0000 0.72510  0.41680  0.01660  Biso   1.000  H
  H50      1.0000 0.27490  0.41680  0.48340  Biso   1.000  H
  H51      1.0000 0.22510  0.91680  0.01660  Biso   1.000  H
  H52      1.0000 0.77490  0.91680  0.48340  Biso   1.000  H
  H53      1.0000 0.27490  0.58320  0.98340  Biso   1.000  H
  H54      1.0000 0.72510  0.58320  0.51660  Biso   1.000  H
  H55      1.0000 0.77490  0.08320  0.98340  Biso   1.000  H
  H56      1.0000 0.22510  0.08320  0.51660  Biso   1.000  H
  C89      1.0000 0.76900  0.42660  0.93010  Biso   1.000  C
  C90      1.0000 0.23100  0.42660  0.56990  Biso   1.000  C
  C91      1.0000 0.26900  0.92660  0.93010  Biso   1.000  C
  C92      1.0000 0.73100  0.92660  0.56990  Biso   1.000  C
  C93      1.0000 0.23100  0.57340  0.06990  Biso   1.000  C
  C94      1.0000 0.76900  0.57340  0.43010  Biso   1.000  C
  C95      1.0000 0.73100  0.07340  0.06990  Biso   1.000  C
  C96      1.0000 0.26900  0.07340  0.43010  Biso   1.000  C
  H57      1.0000 0.80430  0.45130  0.96000  Biso   1.000  H
  H58      1.0000 0.19570  0.45130  0.54000  Biso   1.000  H
  H59      1.0000 0.30430  0.95130  0.96000  Biso   1.000  H
  H60      1.0000 0.69570  0.95130  0.54000  Biso   1.000  H
  H61      1.0000 0.19570  0.54870  0.04000  Biso   1.000  H
  H62      1.0000 0.80430  0.54870  0.46000  Biso   1.000  H
  H63      1.0000 0.69570  0.04870  0.04000  Biso   1.000  H
  H64      1.0000 0.30430  0.04870  0.46000  Biso   1.000  H
  C97      1.0000 0.76510  0.41120  0.85180  Biso   1.000  C
  C98      1.0000 0.23490  0.41120  0.64820  Biso   1.000  C
  C99      1.0000 0.26510  0.91120  0.85180  Biso   1.000  C
  C100     1.0000 0.73490  0.91120  0.64820  Biso   1.000  C
  C101     1.0000 0.23490  0.58880  0.14820  Biso   1.000  C
  C102     1.0000 0.76510  0.58880  0.35180  Biso   1.000  C
  C103     1.0000 0.73490  0.08880  0.14820  Biso   1.000  C
  C104     1.0000 0.26510  0.08880  0.35180  Biso   1.000  C
  H65      1.0000 0.79750  0.42650  0.82980  Biso   1.000  H
  H66      1.0000 0.20250  0.42650  0.67020  Biso   1.000  H
  H67      1.0000 0.29750  0.92650  0.82980  Biso   1.000  H
  H68      1.0000 0.70250  0.92650  0.67020  Biso   1.000  H
  H69      1.0000 0.20250  0.57350  0.17020  Biso   1.000  H
  H70      1.0000 0.79750  0.57350  0.32980  Biso   1.000  H
  H71      1.0000 0.70250  0.07350  0.17020  Biso   1.000  H
  H72      1.0000 0.29750  0.07350  0.32980  Biso   1.000  H
  C105     1.0000 0.76683  0.37190  0.66713  Biso   1.000  C
  C106     1.0000 0.23317  0.37190  0.83287  Biso   1.000  C
  C107     1.0000 0.26683  0.87190  0.66713  Biso   1.000  C
  C108     1.0000 0.73317  0.87190  0.83287  Biso   1.000  C
  C109     1.0000 0.23317  0.62810  0.33287  Biso   1.000  C
  C110     1.0000 0.76683  0.62810  0.16713  Biso   1.000  C
  C111     1.0000 0.73317  0.12810  0.33287  Biso   1.000  C
  C112     1.0000 0.26683  0.12810  0.16713  Biso   1.000  C
  C113     1.0000 0.80160  0.48230  0.68490  Biso   1.000  C
  C114     1.0000 0.19840  0.48230  0.81510  Biso   1.000  C
  C115     1.0000 0.30160  0.98230  0.68490  Biso   1.000  C
  C116     1.0000 0.69840  0.98230  0.81510  Biso   1.000  C
  C117     1.0000 0.19840  0.51770  0.31510  Biso   1.000  C
  C118     1.0000 0.80160  0.51770  0.18490  Biso   1.000  C
  C119     1.0000 0.69840  0.01770  0.31510  Biso   1.000  C
  C120     1.0000 0.30160  0.01770  0.18490  Biso   1.000  C
  H73      1.0000 0.79210  0.54370  0.71910  Biso   1.000  H
  H74      1.0000 0.20790  0.54370  0.78090  Biso   1.000  H
  H75      1.0000 0.29210  0.04370  0.71910  Biso   1.000  H
  H76      1.0000 0.70790  0.04370  0.78090  Biso   1.000  H
  H77      1.0000 0.20790  0.45630  0.28090  Biso   1.000  H
  H78      1.0000 0.79210  0.45630  0.21910  Biso   1.000  H
  H79      1.0000 0.70790  0.95630  0.28090  Biso   1.000  H
  H80      1.0000 0.29210  0.95630  0.21910  Biso   1.000  H
  C121     1.0000 0.84974  0.50060  0.65200  Biso   1.000  C
  C122     1.0000 0.15026  0.50060  0.84800  Biso   1.000  C
  C123     1.0000 0.34974  0.00060  0.65200  Biso   1.000  C
  C124     1.0000 0.65026  0.00060  0.84800  Biso   1.000  C
  C125     1.0000 0.15026  0.49940  0.34800  Biso   1.000  C
  C126     1.0000 0.84974  0.49940  0.15200  Biso   1.000  C
  C127     1.0000 0.65026  0.99940  0.34800  Biso   1.000  C
  C128     1.0000 0.34974  0.99940  0.15200  Biso   1.000  C
  H81      1.0000 0.87350  0.57280  0.66550  Biso   1.000  H
  H82      1.0000 0.12650  0.57280  0.83450  Biso   1.000  H
  H83      1.0000 0.37350  0.07280  0.66550  Biso   1.000  H
  H84      1.0000 0.62650  0.07280  0.83450  Biso   1.000  H
  H85      1.0000 0.12650  0.42720  0.33450  Biso   1.000  H
  H86      1.0000 0.87350  0.42720  0.16550  Biso   1.000  H
  H87      1.0000 0.62650  0.92720  0.33450  Biso   1.000  H
  H88      1.0000 0.37350  0.92720  0.16550  Biso   1.000  H
  C129     1.0000 0.86320  0.41250  0.59893  Biso   1.000  C
  C130     1.0000 0.13680  0.41250  0.90107  Biso   1.000  C
  C131     1.0000 0.36320  0.91250  0.59893  Biso   1.000  C
  C132     1.0000 0.63680  0.91250  0.90107  Biso   1.000  C
  C133     1.0000 0.13680  0.58750  0.40107  Biso   1.000  C
  C134     1.0000 0.86320  0.58750  0.09893  Biso   1.000  C
  C135     1.0000 0.63680  0.08750  0.40107  Biso   1.000  C
  C136     1.0000 0.36320  0.08750  0.09893  Biso   1.000  C
  C137     1.0000 0.91406  0.43990  0.56030  Biso   1.000  C
  C138     1.0000 0.08594  0.43990  0.93970  Biso   1.000  C
  C139     1.0000 0.41406  0.93990  0.56030  Biso   1.000  C
  C140     1.0000 0.58594  0.93990  0.93970  Biso   1.000  C
  C141     1.0000 0.08594  0.56010  0.43970  Biso   1.000  C
  C142     1.0000 0.91406  0.56010  0.06030  Biso   1.000  C
  C143     1.0000 0.58594  0.06010  0.43970  Biso   1.000  C
  C144     1.0000 0.41406  0.06010  0.06030  Biso   1.000  C
  C145     1.0000 0.82837  0.30460  0.58010  Biso   1.000  C
  C146     1.0000 0.17163  0.30460  0.91990  Biso   1.000  C
  C147     1.0000 0.32837  0.80460  0.58010  Biso   1.000  C
  C148     1.0000 0.67163  0.80460  0.91990  Biso   1.000  C
  C149     1.0000 0.17163  0.69540  0.41990  Biso   1.000  C
  C150     1.0000 0.82837  0.69540  0.08010  Biso   1.000  C
  C151     1.0000 0.67163  0.19540  0.41990  Biso   1.000  C
  C152     1.0000 0.32837  0.19540  0.08010  Biso   1.000  C
  H89      1.0000 0.83680  0.24570  0.54390  Biso   1.000  H
  H90      1.0000 0.16320  0.24570  0.95610  Biso   1.000  H
  H91      1.0000 0.33680  0.74570  0.54390  Biso   1.000  H
  H92      1.0000 0.66320  0.74570  0.95610  Biso   1.000  H
  H93      1.0000 0.16320  0.75430  0.45610  Biso   1.000  H
  H94      1.0000 0.83680  0.75430  0.04390  Biso   1.000  H
  H95      1.0000 0.66320  0.25430  0.45610  Biso   1.000  H
  H96      1.0000 0.33680  0.25430  0.04390  Biso   1.000  H
  C153     1.0000 0.78068  0.28360  0.61530  Biso   1.000  C
  C154     1.0000 0.21932  0.28360  0.88470  Biso   1.000  C
  C155     1.0000 0.28068  0.78360  0.61530  Biso   1.000  C
  C156     1.0000 0.71932  0.78360  0.88470  Biso   1.000  C
  C157     1.0000 0.21932  0.71640  0.38470  Biso   1.000  C
  C158     1.0000 0.78068  0.71640  0.11530  Biso   1.000  C
  C159     1.0000 0.71932  0.21640  0.38470  Biso   1.000  C
  C160     1.0000 0.28068  0.21640  0.11530  Biso   1.000  C
  H97      1.0000 0.75800  0.20930  0.60350  Biso   1.000  H
  H98      1.0000 0.24200  0.20930  0.89650  Biso   1.000  H
  H99      1.0000 0.25800  0.70930  0.60350  Biso   1.000  H
  H100     1.0000 0.74200  0.70930  0.89650  Biso   1.000  H
  H101     1.0000 0.24200  0.79070  0.39650  Biso   1.000  H
  H102     1.0000 0.75800  0.79070  0.10350  Biso   1.000  H
  H103     1.0000 0.74200  0.29070  0.39650  Biso   1.000  H
  H104     1.0000 0.25800  0.29070  0.10350  Biso   1.000  H
  Cu1      1.0000 0.52308  0.07341  0.55937  Biso   1.000  Cu
  Cu2      1.0000 0.47692  0.07341  0.94063  Biso   1.000  Cu
  Cu3      1.0000 0.02308  0.57341  0.55937  Biso   1.000  Cu
  Cu4      1.0000 0.97692  0.57341  0.94063  Biso   1.000  Cu
  Cu5      1.0000 0.47692  0.92659  0.44063  Biso   1.000  Cu
  Cu6      1.0000 0.52308  0.92659  0.05937  Biso   1.000  Cu
  Cu7      1.0000 0.97692  0.42659  0.44063  Biso   1.000  Cu
  Cu8      1.0000 0.02308  0.42659  0.05937  Biso   1.000  Cu
  O1       1.0000 0.56033  0.90330  0.58887  Biso   1.000  O
  O2       1.0000 0.43967  0.90330  0.91113  Biso   1.000  O
  O3       1.0000 0.06033  0.40330  0.58887  Biso   1.000  O
  O4       1.0000 0.93967  0.40330  0.91113  Biso   1.000  O
  O5       1.0000 0.43967  0.09670  0.41113  Biso   1.000  O
  O6       1.0000 0.56033  0.09670  0.08887  Biso   1.000  O
  O7       1.0000 0.93967  0.59670  0.41113  Biso   1.000  O
  O8       1.0000 0.06033  0.59670  0.08887  Biso   1.000  O
  O9       1.0000 0.56107  0.15730  0.66645  Biso   1.000  O
  O10      1.0000 0.43893  0.15730  0.83355  Biso   1.000  O
  O11      1.0000 0.06107  0.65730  0.66645  Biso   1.000  O
  O12      1.0000 0.93893  0.65730  0.83355  Biso   1.000  O
  O13      1.0000 0.43893  0.84270  0.33355  Biso   1.000  O
  O14      1.0000 0.56107  0.84270  0.16645  Biso   1.000  O
  O15      1.0000 0.93893  0.34270  0.33355  Biso   1.000  O
  O16      1.0000 0.06107  0.34270  0.16645  Biso   1.000  O
  O17      1.0000 0.52026  0.77670  0.49073  Biso   1.000  O
  O18      1.0000 0.47974  0.77670  0.00927  Biso   1.000  O
  O19      1.0000 0.02026  0.27670  0.49073  Biso   1.000  O
  O20      1.0000 0.97974  0.27670  0.00927  Biso   1.000  O
  O21      1.0000 0.47974  0.22330  0.50927  Biso   1.000  O
  O22      1.0000 0.52026  0.22330  0.99073  Biso   1.000  O
  O23      1.0000 0.97974  0.72330  0.50927  Biso   1.000  O
  O24      1.0000 0.02026  0.72330  0.99073  Biso   1.000  O
  O25      1.0000 0.95235  0.51660  0.59491  Biso   1.000  O
  O26      1.0000 0.04765  0.51660  0.90509  Biso   1.000  O
  O27      1.0000 0.45235  0.01660  0.59491  Biso   1.000  O
  O28      1.0000 0.54765  0.01660  0.90509  Biso   1.000  O
  O29      1.0000 0.04765  0.48340  0.40509  Biso   1.000  O
  O30      1.0000 0.95235  0.48340  0.09491  Biso   1.000  O
  O31      1.0000 0.54765  0.98340  0.40509  Biso   1.000  O
  O32      1.0000 0.45235  0.98340  0.09491  Biso   1.000  O
  O33      1.0000 0.91477  0.38460  0.49797  Biso   1.000  O
  O34      1.0000 0.08523  0.38460  0.00203  Biso   1.000  O
  O35      1.0000 0.41477  0.88460  0.49797  Biso   1.000  O
  O36      1.0000 0.58523  0.88460  0.00203  Biso   1.000  O
  O37      1.0000 0.08523  0.61540  0.50203  Biso   1.000  O
  O38      1.0000 0.91477  0.61540  0.99797  Biso   1.000  O
  O39      1.0000 0.58523  0.11540  0.50203  Biso   1.000  O
  O40      1.0000 0.41477  0.11540  0.99797  Biso   1.000  O
  O41      1.0000 0.67549  0.21570  0.68233  Biso   1.000  O
  O42      1.0000 0.32451  0.21570  0.81767  Biso   1.000  O
  O43      1.0000 0.17549  0.71570  0.68233  Biso   1.000  O
  O44      1.0000 0.82451  0.71570  0.81767  Biso   1.000  O
  O45      1.0000 0.32451  0.78430  0.31767  Biso   1.000  O
  O46      1.0000 0.67549  0.78430  0.18233  Biso   1.000  O
  O47      1.0000 0.82451  0.28430  0.31767  Biso   1.000  O
  O48      1.0000 0.17549  0.28430  0.18233  Biso   1.000  O
  P1       1.0000 0.70074  0.34673  0.70426  Biso   1.000  P
  P2       1.0000 0.29926  0.34673  0.79574  Biso   1.000  P
  P3       1.0000 0.20074  0.84673  0.70426  Biso   1.000  P
  P4       1.0000 0.79926  0.84673  0.79574  Biso   1.000  P
  P5       1.0000 0.29926  0.65327  0.29574  Biso   1.000  P
  P6       1.0000 0.70074  0.65327  0.20426  Biso   1.000  P
  P7       1.0000 0.79926  0.15327  0.29574  Biso   1.000  P
  P8       1.0000 0.20074  0.15327  0.20426  Biso   1.000  P
