data_image0
_cell_length_a       21.2857
_cell_length_b       11.1539
_cell_length_c       12.4229
_cell_angle_alpha    90
_cell_angle_beta     102.565
_cell_angle_gamma    90

_symmetry_space_group_name_H-M    "P 1"
_symmetry_int_tables_number       1

loop_
  _symmetry_equiv_pos_as_xyz
  'x, y, z'

loop_
  _atom_site_label
  _atom_site_occupancy
  _atom_site_fract_x
  _atom_site_fract_y
  _atom_site_fract_z
  _atom_site_thermal_displace_type
  _atom_site_B_iso_or_equiv
  _atom_site_type_symbol
  Cu1      1.0000 0.71660  0.77198  0.57585  Biso   1.000  Cu
  Cu2      1.0000 0.28340  0.77198  0.92415  Biso   1.000  Cu
  Cu3      1.0000 0.21660  0.27198  0.57585  Biso   1.000  Cu
  Cu4      1.0000 0.78340  0.27198  0.92415  Biso   1.000  Cu
  Cu5      1.0000 0.28340  0.22802  0.42415  Biso   1.000  Cu
  Cu6      1.0000 0.71660  0.22802  0.07585  Biso   1.000  Cu
  Cu7      1.0000 0.78340  0.72802  0.42415  Biso   1.000  Cu
  Cu8      1.0000 0.21660  0.72802  0.07585  Biso   1.000  Cu
  Br1      1.0000 0.53632  0.87235  0.95568  Biso   1.000  Br
  Br2      1.0000 0.46368  0.87235  0.54432  Biso   1.000  Br
  Br3      1.0000 0.03632  0.37235  0.95568  Biso   1.000  Br
  Br4      1.0000 0.96368  0.37235  0.54432  Biso   1.000  Br
  Br5      1.0000 0.46368  0.12765  0.04432  Biso   1.000  Br
  Br6      1.0000 0.53632  0.12765  0.45568  Biso   1.000  Br
  Br7      1.0000 0.96368  0.62765  0.04432  Biso   1.000  Br
  Br8      1.0000 0.03632  0.62765  0.45568  Biso   1.000  Br
  O1       1.0000 0.64391  0.75560  0.44823  Biso   1.000  O
  O2       1.0000 0.35609  0.75560  0.05177  Biso   1.000  O
  O3       1.0000 0.14391  0.25560  0.44823  Biso   1.000  O
  O4       1.0000 0.85609  0.25560  0.05177  Biso   1.000  O
  O5       1.0000 0.35609  0.24440  0.55177  Biso   1.000  O
  O6       1.0000 0.64391  0.24440  0.94823  Biso   1.000  O
  O7       1.0000 0.85609  0.74440  0.55177  Biso   1.000  O
  O8       1.0000 0.14391  0.74440  0.94823  Biso   1.000  O
  O9       1.0000 0.69967  0.72180  0.31916  Biso   1.000  O
  O10      1.0000 0.30033  0.72180  0.18084  Biso   1.000  O
  O11      1.0000 0.19967  0.22180  0.31916  Biso   1.000  O
  O12      1.0000 0.80033  0.22180  0.18084  Biso   1.000  O
  O13      1.0000 0.30033  0.27820  0.68084  Biso   1.000  O
  O14      1.0000 0.69967  0.27820  0.81916  Biso   1.000  O
  O15      1.0000 0.80033  0.77820  0.68084  Biso   1.000  O
  O16      1.0000 0.19967  0.77820  0.81916  Biso   1.000  O
  O17      1.0000 0.71669  0.59710  0.59170  Biso   1.000  O
  O18      1.0000 0.28331  0.59710  0.90830  Biso   1.000  O
  O19      1.0000 0.21669  0.09710  0.59170  Biso   1.000  O
  O20      1.0000 0.78331  0.09710  0.90830  Biso   1.000  O
  O21      1.0000 0.28331  0.40290  0.40830  Biso   1.000  O
  O22      1.0000 0.71669  0.40290  0.09170  Biso   1.000  O
  O23      1.0000 0.78331  0.90290  0.40830  Biso   1.000  O
  O24      1.0000 0.21669  0.90290  0.09170  Biso   1.000  O
  O25      1.0000 0.77223  0.55960  0.46310  Biso   1.000  O
  O26      1.0000 0.22777  0.55960  0.03690  Biso   1.000  O
  O27      1.0000 0.27223  0.05960  0.46310  Biso   1.000  O
  O28      1.0000 0.72777  0.05960  0.03690  Biso   1.000  O
  O29      1.0000 0.22777  0.44040  0.53690  Biso   1.000  O
  O30      1.0000 0.77223  0.44040  0.96310  Biso   1.000  O
  O31      1.0000 0.72777  0.94040  0.53690  Biso   1.000  O
  O32      1.0000 0.27223  0.94040  0.96310  Biso   1.000  O
  N1       1.0000 0.65727  0.80480  0.69360  Biso   1.000  N
  N2       1.0000 0.34273  0.80480  0.80640  Biso   1.000  N
  N3       1.0000 0.15727  0.30480  0.69360  Biso   1.000  N
  N4       1.0000 0.84273  0.30480  0.80640  Biso   1.000  N
  N5       1.0000 0.34273  0.19520  0.30640  Biso   1.000  N
  N6       1.0000 0.65727  0.19520  0.19360  Biso   1.000  N
  N7       1.0000 0.84273  0.69520  0.30640  Biso   1.000  N
  N8       1.0000 0.15727  0.69520  0.19360  Biso   1.000  N
  C1       1.0000 0.64173  0.91480  0.71930  Biso   1.000  C
  C2       1.0000 0.35827  0.91480  0.78070  Biso   1.000  C
  C3       1.0000 0.14173  0.41480  0.71930  Biso   1.000  C
  C4       1.0000 0.85827  0.41480  0.78070  Biso   1.000  C
  C5       1.0000 0.35827  0.08520  0.28070  Biso   1.000  C
  C6       1.0000 0.64173  0.08520  0.21930  Biso   1.000  C
  C7       1.0000 0.85827  0.58520  0.28070  Biso   1.000  C
  C8       1.0000 0.14173  0.58520  0.21930  Biso   1.000  C
  H1       1.0000 0.65580  0.97920  0.68320  Biso   1.000  H
  H2       1.0000 0.34420  0.97920  0.81680  Biso   1.000  H
  H3       1.0000 0.15580  0.47920  0.68320  Biso   1.000  H
  H4       1.0000 0.84420  0.47920  0.81680  Biso   1.000  H
  H5       1.0000 0.34420  0.02080  0.31680  Biso   1.000  H
  H6       1.0000 0.65580  0.02080  0.18320  Biso   1.000  H
  H7       1.0000 0.84420  0.52080  0.31680  Biso   1.000  H
  H8       1.0000 0.15580  0.52080  0.18320  Biso   1.000  H
  C9       1.0000 0.60590  0.93850  0.79640  Biso   1.000  C
  C10      1.0000 0.39410  0.93850  0.70360  Biso   1.000  C
  C11      1.0000 0.10590  0.43850  0.79640  Biso   1.000  C
  C12      1.0000 0.89410  0.43850  0.70360  Biso   1.000  C
  C13      1.0000 0.39410  0.06150  0.20360  Biso   1.000  C
  C14      1.0000 0.60590  0.06150  0.29640  Biso   1.000  C
  C15      1.0000 0.89410  0.56150  0.20360  Biso   1.000  C
  C16      1.0000 0.10590  0.56150  0.29640  Biso   1.000  C
  H9       1.0000 0.59640  0.01690  0.81290  Biso   1.000  H
  H10      1.0000 0.40360  0.01690  0.68710  Biso   1.000  H
  H11      1.0000 0.09640  0.51690  0.81290  Biso   1.000  H
  H12      1.0000 0.90360  0.51690  0.68710  Biso   1.000  H
  H13      1.0000 0.40360  0.98310  0.18710  Biso   1.000  H
  H14      1.0000 0.59640  0.98310  0.31290  Biso   1.000  H
  H15      1.0000 0.90360  0.48310  0.18710  Biso   1.000  H
  H16      1.0000 0.09640  0.48310  0.31290  Biso   1.000  H
  C17      1.0000 0.58482  0.84400  0.84780  Biso   1.000  C
  C18      1.0000 0.41518  0.84400  0.65220  Biso   1.000  C
  C19      1.0000 0.08482  0.34400  0.84780  Biso   1.000  C
  C20      1.0000 0.91518  0.34400  0.65220  Biso   1.000  C
  C21      1.0000 0.41518  0.15600  0.15220  Biso   1.000  C
  C22      1.0000 0.58482  0.15600  0.34780  Biso   1.000  C
  C23      1.0000 0.91518  0.65600  0.15220  Biso   1.000  C
  C24      1.0000 0.08482  0.65600  0.34780  Biso   1.000  C
  C25      1.0000 0.59980  0.72980  0.82400  Biso   1.000  C
  C26      1.0000 0.40020  0.72980  0.67600  Biso   1.000  C
  C27      1.0000 0.09980  0.22980  0.82400  Biso   1.000  C
  C28      1.0000 0.90020  0.22980  0.67600  Biso   1.000  C
  C29      1.0000 0.40020  0.27020  0.17600  Biso   1.000  C
  C30      1.0000 0.59980  0.27020  0.32400  Biso   1.000  C
  C31      1.0000 0.90020  0.77020  0.17600  Biso   1.000  C
  C32      1.0000 0.09980  0.77020  0.32400  Biso   1.000  C
  H17      1.0000 0.58580  0.66460  0.85920  Biso   1.000  H
  H18      1.0000 0.41420  0.66460  0.64080  Biso   1.000  H
  H19      1.0000 0.08580  0.16460  0.85920  Biso   1.000  H
  H20      1.0000 0.91420  0.16460  0.64080  Biso   1.000  H
  H21      1.0000 0.41420  0.33540  0.14080  Biso   1.000  H
  H22      1.0000 0.58580  0.33540  0.35920  Biso   1.000  H
  H23      1.0000 0.91420  0.83540  0.14080  Biso   1.000  H
  H24      1.0000 0.08580  0.83540  0.35920  Biso   1.000  H
  C33      1.0000 0.63627  0.71400  0.74610  Biso   1.000  C
  C34      1.0000 0.36373  0.71400  0.75390  Biso   1.000  C
  C35      1.0000 0.13627  0.21400  0.74610  Biso   1.000  C
  C36      1.0000 0.86373  0.21400  0.75390  Biso   1.000  C
  C37      1.0000 0.36373  0.28600  0.25390  Biso   1.000  C
  C38      1.0000 0.63627  0.28600  0.24610  Biso   1.000  C
  C39      1.0000 0.86373  0.78600  0.25390  Biso   1.000  C
  C40      1.0000 0.13627  0.78600  0.24610  Biso   1.000  C
  H25      1.0000 0.64680  0.63630  0.72940  Biso   1.000  H
  H26      1.0000 0.35320  0.63630  0.77060  Biso   1.000  H
  H27      1.0000 0.14680  0.13630  0.72940  Biso   1.000  H
  H28      1.0000 0.85320  0.13630  0.77060  Biso   1.000  H
  H29      1.0000 0.35320  0.36370  0.27060  Biso   1.000  H
  H30      1.0000 0.64680  0.36370  0.22940  Biso   1.000  H
  H31      1.0000 0.85320  0.86370  0.27060  Biso   1.000  H
  H32      1.0000 0.14680  0.86370  0.22940  Biso   1.000  H
  C41      1.0000 0.64854  0.73580  0.35110  Biso   1.000  C
  C42      1.0000 0.35146  0.73580  0.14890  Biso   1.000  C
  C43      1.0000 0.14854  0.23580  0.35110  Biso   1.000  C
  C44      1.0000 0.85146  0.23580  0.14890  Biso   1.000  C
  C45      1.0000 0.35146  0.26420  0.64890  Biso   1.000  C
  C46      1.0000 0.64854  0.26420  0.85110  Biso   1.000  C
  C47      1.0000 0.85146  0.76420  0.64890  Biso   1.000  C
  C48      1.0000 0.14854  0.76420  0.85110  Biso   1.000  C
  C49      1.0000 0.58770  0.73020  0.26630  Biso   1.000  C
  C50      1.0000 0.41230  0.73020  0.23370  Biso   1.000  C
  C51      1.0000 0.08770  0.23020  0.26630  Biso   1.000  C
  C52      1.0000 0.91230  0.23020  0.23370  Biso   1.000  C
  C53      1.0000 0.41230  0.26980  0.73370  Biso   1.000  C
  C54      1.0000 0.58770  0.26980  0.76630  Biso   1.000  C
  C55      1.0000 0.91230  0.76980  0.73370  Biso   1.000  C
  C56      1.0000 0.08770  0.76980  0.76630  Biso   1.000  C
  H33      1.0000 0.59010  0.72310  0.19280  Biso   1.000  H
  H34      1.0000 0.40990  0.72310  0.30720  Biso   1.000  H
  H35      1.0000 0.09010  0.22310  0.19280  Biso   1.000  H
  H36      1.0000 0.90990  0.22310  0.30720  Biso   1.000  H
  H37      1.0000 0.40990  0.27690  0.80720  Biso   1.000  H
  H38      1.0000 0.59010  0.27690  0.69280  Biso   1.000  H
  H39      1.0000 0.90990  0.77690  0.80720  Biso   1.000  H
  H40      1.0000 0.09010  0.77690  0.69280  Biso   1.000  H
  C57      1.0000 0.53031  0.73470  0.29000  Biso   1.000  C
  C58      1.0000 0.46969  0.73470  0.21000  Biso   1.000  C
  C59      1.0000 0.03031  0.23470  0.29000  Biso   1.000  C
  C60      1.0000 0.96969  0.23470  0.21000  Biso   1.000  C
  C61      1.0000 0.46969  0.26530  0.71000  Biso   1.000  C
  C62      1.0000 0.53031  0.26530  0.79000  Biso   1.000  C
  C63      1.0000 0.96969  0.76530  0.71000  Biso   1.000  C
  C64      1.0000 0.03031  0.76530  0.79000  Biso   1.000  C
  H41      1.0000 0.52860  0.73810  0.36410  Biso   1.000  H
  H42      1.0000 0.47140  0.73810  0.13590  Biso   1.000  H
  H43      1.0000 0.02860  0.23810  0.36410  Biso   1.000  H
  H44      1.0000 0.97140  0.23810  0.13590  Biso   1.000  H
  H45      1.0000 0.47140  0.26190  0.63590  Biso   1.000  H
  H46      1.0000 0.52860  0.26190  0.86410  Biso   1.000  H
  H47      1.0000 0.97140  0.76190  0.63590  Biso   1.000  H
  H48      1.0000 0.02860  0.76190  0.86410  Biso   1.000  H
  C65      1.0000 0.74231  0.52790  0.53360  Biso   1.000  C
  C66      1.0000 0.25769  0.52790  0.96640  Biso   1.000  C
  C67      1.0000 0.24231  0.02790  0.53360  Biso   1.000  C
  C68      1.0000 0.75769  0.02790  0.96640  Biso   1.000  C
  C69      1.0000 0.25769  0.47210  0.46640  Biso   1.000  C
  C70      1.0000 0.74231  0.47210  0.03360  Biso   1.000  C
  C71      1.0000 0.75769  0.97210  0.46640  Biso   1.000  C
  C72      1.0000 0.24231  0.97210  0.03360  Biso   1.000  C
  C73      1.0000 0.73482  0.39820  0.55280  Biso   1.000  C
  C74      1.0000 0.26518  0.39820  0.94720  Biso   1.000  C
  C75      1.0000 0.23482  0.89820  0.55280  Biso   1.000  C
  C76      1.0000 0.76518  0.89820  0.94720  Biso   1.000  C
  C77      1.0000 0.26518  0.60180  0.44720  Biso   1.000  C
  C78      1.0000 0.73482  0.60180  0.05280  Biso   1.000  C
  C79      1.0000 0.76518  0.10180  0.44720  Biso   1.000  C
  C80      1.0000 0.23482  0.10180  0.05280  Biso   1.000  C
  H49      1.0000 0.71580  0.37510  0.61030  Biso   1.000  H
  H50      1.0000 0.28420  0.37510  0.88970  Biso   1.000  H
  H51      1.0000 0.21580  0.87510  0.61030  Biso   1.000  H
  H52      1.0000 0.78420  0.87510  0.88970  Biso   1.000  H
  H53      1.0000 0.28420  0.62490  0.38970  Biso   1.000  H
  H54      1.0000 0.71580  0.62490  0.11030  Biso   1.000  H
  H55      1.0000 0.78420  0.12490  0.38970  Biso   1.000  H
  H56      1.0000 0.21580  0.12490  0.11030  Biso   1.000  H
  C81      1.0000 0.75377  0.31320  0.49240  Biso   1.000  C
  C82      1.0000 0.24623  0.31320  0.00760  Biso   1.000  C
  C83      1.0000 0.25377  0.81320  0.49240  Biso   1.000  C
  C84      1.0000 0.74623  0.81320  0.00760  Biso   1.000  C
  C85      1.0000 0.24623  0.68680  0.50760  Biso   1.000  C
  C86      1.0000 0.75377  0.68680  0.99240  Biso   1.000  C
  C87      1.0000 0.74623  0.18680  0.50760  Biso   1.000  C
  C88      1.0000 0.25377  0.18680  0.99240  Biso   1.000  C
  H57      1.0000 0.77340  0.33730  0.43600  Biso   1.000  H
  H58      1.0000 0.22660  0.33730  0.06400  Biso   1.000  H
  H59      1.0000 0.27340  0.83730  0.43600  Biso   1.000  H
  H60      1.0000 0.72660  0.83730  0.06400  Biso   1.000  H
  H61      1.0000 0.22660  0.66270  0.56400  Biso   1.000  H
  H62      1.0000 0.77340  0.66270  0.93600  Biso   1.000  H
  H63      1.0000 0.72660  0.16270  0.56400  Biso   1.000  H
  H64      1.0000 0.27340  0.16270  0.93600  Biso   1.000  H
  O33      1.0000 0.47240  0.47900  0.46310  Biso   1.000  O
  O34      1.0000 0.52760  0.47900  0.03690  Biso   1.000  O
  O35      1.0000 0.97240  0.97900  0.46310  Biso   1.000  O
  O36      1.0000 0.02760  0.97900  0.03690  Biso   1.000  O
  O37      1.0000 0.52760  0.52100  0.53690  Biso   1.000  O
  O38      1.0000 0.47240  0.52100  0.96310  Biso   1.000  O
  O39      1.0000 0.02760  0.02100  0.53690  Biso   1.000  O
  O40      1.0000 0.97240  0.02100  0.96310  Biso   1.000  O
  H65      1.0000 0.47600  0.49600  0.39400  Biso   1.000  H
  H66      1.0000 0.52400  0.49600  0.10600  Biso   1.000  H
  H67      1.0000 0.97600  0.99600  0.39400  Biso   1.000  H
  H68      1.0000 0.02400  0.99600  0.10600  Biso   1.000  H
  H69      1.0000 0.52400  0.50400  0.60600  Biso   1.000  H
  H70      1.0000 0.47600  0.50400  0.89400  Biso   1.000  H
  H71      1.0000 0.02400  0.00400  0.60600  Biso   1.000  H
  H72      1.0000 0.97600  0.00400  0.89400  Biso   1.000  H
  H73      1.0000 0.48500  0.40200  0.46400  Biso   1.000  H
  H74      1.0000 0.51500  0.40200  0.03600  Biso   1.000  H
  H75      1.0000 0.98500  0.90200  0.46400  Biso   1.000  H
  H76      1.0000 0.01500  0.90200  0.03600  Biso   1.000  H
  H77      1.0000 0.51500  0.59800  0.53600  Biso   1.000  H
  H78      1.0000 0.48500  0.59800  0.96400  Biso   1.000  H
  H79      1.0000 0.01500  0.09800  0.53600  Biso   1.000  H
  H80      1.0000 0.98500  0.09800  0.96400  Biso   1.000  H
  O41      1.0000 0.42000  0.51430  0.48930  Biso   1.000  O
  O42      1.0000 0.58000  0.51430  0.01070  Biso   1.000  O
  O43      1.0000 0.92000  0.01430  0.48930  Biso   1.000  O
  O44      1.0000 0.08000  0.01430  0.01070  Biso   1.000  O
  O45      1.0000 0.58000  0.48570  0.51070  Biso   1.000  O
  O46      1.0000 0.42000  0.48570  0.98930  Biso   1.000  O
  O47      1.0000 0.08000  0.98570  0.51070  Biso   1.000  O
  O48      1.0000 0.92000  0.98570  0.98930  Biso   1.000  O
  H81      1.0000 0.44800  0.45200  0.50400  Biso   1.000  H
  H82      1.0000 0.55200  0.45200  0.99600  Biso   1.000  H
  H83      1.0000 0.94800  0.95200  0.50400  Biso   1.000  H
  H84      1.0000 0.05200  0.95200  0.99600  Biso   1.000  H
  H85      1.0000 0.55200  0.54800  0.49600  Biso   1.000  H
  H86      1.0000 0.44800  0.54800  0.00400  Biso   1.000  H
  H87      1.0000 0.05200  0.04800  0.49600  Biso   1.000  H
  H88      1.0000 0.94800  0.04800  0.00400  Biso   1.000  H
  H89      1.0000 0.44000  0.55400  0.44400  Biso   1.000  H
  H90      1.0000 0.56000  0.55400  0.05600  Biso   1.000  H
  H91      1.0000 0.94000  0.05400  0.44400  Biso   1.000  H
  H92      1.0000 0.06000  0.05400  0.05600  Biso   1.000  H
  H93      1.0000 0.56000  0.44600  0.55600  Biso   1.000  H
  H94      1.0000 0.44000  0.44600  0.94400  Biso   1.000  H
  H95      1.0000 0.06000  0.94600  0.55600  Biso   1.000  H
  H96      1.0000 0.94000  0.94600  0.94400  Biso   1.000  H
