data_image0
_cell_length_a       21.046
_cell_length_b       11.1739
_cell_length_c       12.1686
_cell_angle_alpha    90
_cell_angle_beta     101.017
_cell_angle_gamma    90

_symmetry_space_group_name_H-M    "P 1"
_symmetry_int_tables_number       1

loop_
  _symmetry_equiv_pos_as_xyz
  'x, y, z'

loop_
  _atom_site_label
  _atom_site_occupancy
  _atom_site_fract_x
  _atom_site_fract_y
  _atom_site_fract_z
  _atom_site_thermal_displace_type
  _atom_site_B_iso_or_equiv
  _atom_site_type_symbol
  Cu1      1.0000 0.71549  0.77199  0.57771  Biso   1.000  Cu
  Cu2      1.0000 0.28451  0.77199  0.92229  Biso   1.000  Cu
  Cu3      1.0000 0.21549  0.27199  0.57771  Biso   1.000  Cu
  Cu4      1.0000 0.78451  0.27199  0.92229  Biso   1.000  Cu
  Cu5      1.0000 0.28451  0.22801  0.42229  Biso   1.000  Cu
  Cu6      1.0000 0.71549  0.22801  0.07771  Biso   1.000  Cu
  Cu7      1.0000 0.78451  0.72801  0.42229  Biso   1.000  Cu
  Cu8      1.0000 0.21549  0.72801  0.07771  Biso   1.000  Cu
  Cl1      1.0000 0.53308  0.87011  0.95715  Biso   1.000  Cl
  Cl2      1.0000 0.46692  0.87011  0.54285  Biso   1.000  Cl
  Cl3      1.0000 0.03308  0.37011  0.95715  Biso   1.000  Cl
  Cl4      1.0000 0.96692  0.37011  0.54285  Biso   1.000  Cl
  Cl5      1.0000 0.46692  0.12989  0.04285  Biso   1.000  Cl
  Cl6      1.0000 0.53308  0.12989  0.45715  Biso   1.000  Cl
  Cl7      1.0000 0.96692  0.62989  0.04285  Biso   1.000  Cl
  Cl8      1.0000 0.03308  0.62989  0.45715  Biso   1.000  Cl
  O1       1.0000 0.64301  0.75570  0.44889  Biso   1.000  O
  O2       1.0000 0.35699  0.75570  0.05111  Biso   1.000  O
  O3       1.0000 0.14301  0.25570  0.44889  Biso   1.000  O
  O4       1.0000 0.85699  0.25570  0.05111  Biso   1.000  O
  O5       1.0000 0.35699  0.24430  0.55111  Biso   1.000  O
  O6       1.0000 0.64301  0.24430  0.94889  Biso   1.000  O
  O7       1.0000 0.85699  0.74430  0.55111  Biso   1.000  O
  O8       1.0000 0.14301  0.74430  0.94889  Biso   1.000  O
  O9       1.0000 0.70090  0.72160  0.31637  Biso   1.000  O
  O10      1.0000 0.29910  0.72160  0.18363  Biso   1.000  O
  O11      1.0000 0.20090  0.22160  0.31637  Biso   1.000  O
  O12      1.0000 0.79910  0.22160  0.18363  Biso   1.000  O
  O13      1.0000 0.29910  0.27840  0.68363  Biso   1.000  O
  O14      1.0000 0.70090  0.27840  0.81637  Biso   1.000  O
  O15      1.0000 0.79910  0.77840  0.68363  Biso   1.000  O
  O16      1.0000 0.20090  0.77840  0.81637  Biso   1.000  O
  O17      1.0000 0.71539  0.59734  0.59387  Biso   1.000  O
  O18      1.0000 0.28461  0.59734  0.90613  Biso   1.000  O
  O19      1.0000 0.21539  0.09734  0.59387  Biso   1.000  O
  O20      1.0000 0.78461  0.09734  0.90613  Biso   1.000  O
  O21      1.0000 0.28461  0.40266  0.40613  Biso   1.000  O
  O22      1.0000 0.71539  0.40266  0.09387  Biso   1.000  O
  O23      1.0000 0.78461  0.90266  0.40613  Biso   1.000  O
  O24      1.0000 0.21539  0.90266  0.09387  Biso   1.000  O
  O25      1.0000 0.77325  0.55969  0.46196  Biso   1.000  O
  O26      1.0000 0.22675  0.55969  0.03804  Biso   1.000  O
  O27      1.0000 0.27325  0.05969  0.46196  Biso   1.000  O
  O28      1.0000 0.72675  0.05969  0.03804  Biso   1.000  O
  O29      1.0000 0.22675  0.44031  0.53804  Biso   1.000  O
  O30      1.0000 0.77325  0.44031  0.96196  Biso   1.000  O
  O31      1.0000 0.72675  0.94031  0.53804  Biso   1.000  O
  O32      1.0000 0.27325  0.94031  0.96196  Biso   1.000  O
  N1       1.0000 0.65417  0.80490  0.69844  Biso   1.000  N
  N2       1.0000 0.34583  0.80490  0.80156  Biso   1.000  N
  N3       1.0000 0.15417  0.30490  0.69844  Biso   1.000  N
  N4       1.0000 0.84583  0.30490  0.80156  Biso   1.000  N
  N5       1.0000 0.34583  0.19510  0.30156  Biso   1.000  N
  N6       1.0000 0.65417  0.19510  0.19844  Biso   1.000  N
  N7       1.0000 0.84583  0.69510  0.30156  Biso   1.000  N
  N8       1.0000 0.15417  0.69510  0.19844  Biso   1.000  N
  C1       1.0000 0.63790  0.91520  0.72370  Biso   1.000  C
  C2       1.0000 0.36210  0.91520  0.77630  Biso   1.000  C
  C3       1.0000 0.13790  0.41520  0.72370  Biso   1.000  C
  C4       1.0000 0.86210  0.41520  0.77630  Biso   1.000  C
  C5       1.0000 0.36210  0.08480  0.27630  Biso   1.000  C
  C6       1.0000 0.63790  0.08480  0.22370  Biso   1.000  C
  C7       1.0000 0.86210  0.58480  0.27630  Biso   1.000  C
  C8       1.0000 0.13790  0.58480  0.22370  Biso   1.000  C
  H1       1.0000 0.65250  0.97900  0.68620  Biso   1.000  H
  H2       1.0000 0.34750  0.97900  0.81380  Biso   1.000  H
  H3       1.0000 0.15250  0.47900  0.68620  Biso   1.000  H
  H4       1.0000 0.84750  0.47900  0.81380  Biso   1.000  H
  H5       1.0000 0.34750  0.02100  0.31380  Biso   1.000  H
  H6       1.0000 0.65250  0.02100  0.18620  Biso   1.000  H
  H7       1.0000 0.84750  0.52100  0.31380  Biso   1.000  H
  H8       1.0000 0.15250  0.52100  0.18620  Biso   1.000  H
  C9       1.0000 0.60067  0.93990  0.80240  Biso   1.000  C
  C10      1.0000 0.39933  0.93990  0.69760  Biso   1.000  C
  C11      1.0000 0.10067  0.43990  0.80240  Biso   1.000  C
  C12      1.0000 0.89933  0.43990  0.69760  Biso   1.000  C
  C13      1.0000 0.39933  0.06010  0.19760  Biso   1.000  C
  C14      1.0000 0.60067  0.06010  0.30240  Biso   1.000  C
  C15      1.0000 0.89933  0.56010  0.19760  Biso   1.000  C
  C16      1.0000 0.10067  0.56010  0.30240  Biso   1.000  C
  H9       1.0000 0.59050  0.01810  0.81860  Biso   1.000  H
  H10      1.0000 0.40950  0.01810  0.68140  Biso   1.000  H
  H11      1.0000 0.09050  0.51810  0.81860  Biso   1.000  H
  H12      1.0000 0.90950  0.51810  0.68140  Biso   1.000  H
  H13      1.0000 0.40950  0.98190  0.18140  Biso   1.000  H
  H14      1.0000 0.59050  0.98190  0.31860  Biso   1.000  H
  H15      1.0000 0.90950  0.48190  0.18140  Biso   1.000  H
  H16      1.0000 0.09050  0.48190  0.31860  Biso   1.000  H
  C17      1.0000 0.57912  0.84450  0.85590  Biso   1.000  C
  C18      1.0000 0.42088  0.84450  0.64410  Biso   1.000  C
  C19      1.0000 0.07912  0.34450  0.85590  Biso   1.000  C
  C20      1.0000 0.92088  0.34450  0.64410  Biso   1.000  C
  C21      1.0000 0.42088  0.15550  0.14410  Biso   1.000  C
  C22      1.0000 0.57912  0.15550  0.35590  Biso   1.000  C
  C23      1.0000 0.92088  0.65550  0.14410  Biso   1.000  C
  C24      1.0000 0.07912  0.65550  0.35590  Biso   1.000  C
  C25      1.0000 0.59559  0.73030  0.83350  Biso   1.000  C
  C26      1.0000 0.40441  0.73030  0.66650  Biso   1.000  C
  C27      1.0000 0.09559  0.23030  0.83350  Biso   1.000  C
  C28      1.0000 0.90441  0.23030  0.66650  Biso   1.000  C
  C29      1.0000 0.40441  0.26970  0.16650  Biso   1.000  C
  C30      1.0000 0.59559  0.26970  0.33350  Biso   1.000  C
  C31      1.0000 0.90441  0.76970  0.16650  Biso   1.000  C
  C32      1.0000 0.09559  0.76970  0.33350  Biso   1.000  C
  H17      1.0000 0.58190  0.66520  0.87060  Biso   1.000  H
  H18      1.0000 0.41810  0.66520  0.62940  Biso   1.000  H
  H19      1.0000 0.08190  0.16520  0.87060  Biso   1.000  H
  H20      1.0000 0.91810  0.16520  0.62940  Biso   1.000  H
  H21      1.0000 0.41810  0.33480  0.12940  Biso   1.000  H
  H22      1.0000 0.58190  0.33480  0.37060  Biso   1.000  H
  H23      1.0000 0.91810  0.83480  0.12940  Biso   1.000  H
  H24      1.0000 0.08190  0.83480  0.37060  Biso   1.000  H
  C33      1.0000 0.63371  0.71520  0.75280  Biso   1.000  C
  C34      1.0000 0.36629  0.71520  0.74720  Biso   1.000  C
  C35      1.0000 0.13371  0.21520  0.75280  Biso   1.000  C
  C36      1.0000 0.86629  0.21520  0.74720  Biso   1.000  C
  C37      1.0000 0.36629  0.28480  0.24720  Biso   1.000  C
  C38      1.0000 0.63371  0.28480  0.25280  Biso   1.000  C
  C39      1.0000 0.86629  0.78480  0.24720  Biso   1.000  C
  C40      1.0000 0.13371  0.78480  0.25280  Biso   1.000  C
  H25      1.0000 0.64530  0.63780  0.73640  Biso   1.000  H
  H26      1.0000 0.35470  0.63780  0.76360  Biso   1.000  H
  H27      1.0000 0.14530  0.13780  0.73640  Biso   1.000  H
  H28      1.0000 0.85470  0.13780  0.76360  Biso   1.000  H
  H29      1.0000 0.35470  0.36220  0.26360  Biso   1.000  H
  H30      1.0000 0.64530  0.36220  0.23640  Biso   1.000  H
  H31      1.0000 0.85470  0.86220  0.26360  Biso   1.000  H
  H32      1.0000 0.14530  0.86220  0.23640  Biso   1.000  H
  C41      1.0000 0.64896  0.73560  0.35050  Biso   1.000  C
  C42      1.0000 0.35104  0.73560  0.14950  Biso   1.000  C
  C43      1.0000 0.14896  0.23560  0.35050  Biso   1.000  C
  C44      1.0000 0.85104  0.23560  0.14950  Biso   1.000  C
  C45      1.0000 0.35104  0.26440  0.64950  Biso   1.000  C
  C46      1.0000 0.64896  0.26440  0.85050  Biso   1.000  C
  C47      1.0000 0.85104  0.76440  0.64950  Biso   1.000  C
  C48      1.0000 0.14896  0.76440  0.85050  Biso   1.000  C
  C49      1.0000 0.58812  0.73040  0.26440  Biso   1.000  C
  C50      1.0000 0.41188  0.73040  0.23560  Biso   1.000  C
  C51      1.0000 0.08812  0.23040  0.26440  Biso   1.000  C
  C52      1.0000 0.91188  0.23040  0.23560  Biso   1.000  C
  C53      1.0000 0.41188  0.26960  0.73560  Biso   1.000  C
  C54      1.0000 0.58812  0.26960  0.76440  Biso   1.000  C
  C55      1.0000 0.91188  0.76960  0.73560  Biso   1.000  C
  C56      1.0000 0.08812  0.76960  0.76440  Biso   1.000  C
  H33      1.0000 0.59120  0.72450  0.18940  Biso   1.000  H
  H34      1.0000 0.40880  0.72450  0.31060  Biso   1.000  H
  H35      1.0000 0.09120  0.22450  0.18940  Biso   1.000  H
  H36      1.0000 0.90880  0.22450  0.31060  Biso   1.000  H
  H37      1.0000 0.40880  0.27550  0.81060  Biso   1.000  H
  H38      1.0000 0.59120  0.27550  0.68940  Biso   1.000  H
  H39      1.0000 0.90880  0.77550  0.81060  Biso   1.000  H
  H40      1.0000 0.09120  0.77550  0.68940  Biso   1.000  H
  C57      1.0000 0.53029  0.73360  0.29050  Biso   1.000  C
  C58      1.0000 0.46971  0.73360  0.20950  Biso   1.000  C
  C59      1.0000 0.03029  0.23360  0.29050  Biso   1.000  C
  C60      1.0000 0.96971  0.23360  0.20950  Biso   1.000  C
  C61      1.0000 0.46971  0.26640  0.70950  Biso   1.000  C
  C62      1.0000 0.53029  0.26640  0.79050  Biso   1.000  C
  C63      1.0000 0.96971  0.76640  0.70950  Biso   1.000  C
  C64      1.0000 0.03029  0.76640  0.79050  Biso   1.000  C
  H41      1.0000 0.52800  0.73610  0.36600  Biso   1.000  H
  H42      1.0000 0.47200  0.73610  0.13400  Biso   1.000  H
  H43      1.0000 0.02800  0.23610  0.36600  Biso   1.000  H
  H44      1.0000 0.97200  0.23610  0.13400  Biso   1.000  H
  H45      1.0000 0.47200  0.26390  0.63400  Biso   1.000  H
  H46      1.0000 0.52800  0.26390  0.86600  Biso   1.000  H
  H47      1.0000 0.97200  0.76390  0.63400  Biso   1.000  H
  H48      1.0000 0.02800  0.76390  0.86600  Biso   1.000  H
  C65      1.0000 0.74226  0.52810  0.53470  Biso   1.000  C
  C66      1.0000 0.25774  0.52810  0.96530  Biso   1.000  C
  C67      1.0000 0.24226  0.02810  0.53470  Biso   1.000  C
  C68      1.0000 0.75774  0.02810  0.96530  Biso   1.000  C
  C69      1.0000 0.25774  0.47190  0.46530  Biso   1.000  C
  C70      1.0000 0.74226  0.47190  0.03470  Biso   1.000  C
  C71      1.0000 0.75774  0.97190  0.46530  Biso   1.000  C
  C72      1.0000 0.24226  0.97190  0.03470  Biso   1.000  C
  C73      1.0000 0.73518  0.39770  0.55480  Biso   1.000  C
  C74      1.0000 0.26482  0.39770  0.94520  Biso   1.000  C
  C75      1.0000 0.23518  0.89770  0.55480  Biso   1.000  C
  C76      1.0000 0.76482  0.89770  0.94520  Biso   1.000  C
  C77      1.0000 0.26482  0.60230  0.44520  Biso   1.000  C
  C78      1.0000 0.73518  0.60230  0.05480  Biso   1.000  C
  C79      1.0000 0.76482  0.10230  0.44520  Biso   1.000  C
  C80      1.0000 0.23518  0.10230  0.05480  Biso   1.000  C
  H49      1.0000 0.71670  0.37410  0.61490  Biso   1.000  H
  H50      1.0000 0.28330  0.37410  0.88510  Biso   1.000  H
  H51      1.0000 0.21670  0.87410  0.61490  Biso   1.000  H
  H52      1.0000 0.78330  0.87410  0.88510  Biso   1.000  H
  H53      1.0000 0.28330  0.62590  0.38510  Biso   1.000  H
  H54      1.0000 0.71670  0.62590  0.11490  Biso   1.000  H
  H55      1.0000 0.78330  0.12590  0.38510  Biso   1.000  H
  H56      1.0000 0.21670  0.12590  0.11490  Biso   1.000  H
  C81      1.0000 0.75392  0.31380  0.49110  Biso   1.000  C
  C82      1.0000 0.24608  0.31380  0.00890  Biso   1.000  C
  C83      1.0000 0.25392  0.81380  0.49110  Biso   1.000  C
  C84      1.0000 0.74608  0.81380  0.00890  Biso   1.000  C
  C85      1.0000 0.24608  0.68620  0.50890  Biso   1.000  C
  C86      1.0000 0.75392  0.68620  0.99110  Biso   1.000  C
  C87      1.0000 0.74608  0.18620  0.50890  Biso   1.000  C
  C88      1.0000 0.25392  0.18620  0.99110  Biso   1.000  C
  H57      1.0000 0.77310  0.33750  0.43190  Biso   1.000  H
  H58      1.0000 0.22690  0.33750  0.06810  Biso   1.000  H
  H59      1.0000 0.27310  0.83750  0.43190  Biso   1.000  H
  H60      1.0000 0.72690  0.83750  0.06810  Biso   1.000  H
  H61      1.0000 0.22690  0.66250  0.56810  Biso   1.000  H
  H62      1.0000 0.77310  0.66250  0.93190  Biso   1.000  H
  H63      1.0000 0.72690  0.16250  0.56810  Biso   1.000  H
  H64      1.0000 0.27310  0.16250  0.93190  Biso   1.000  H
  O33      1.0000 0.42130  0.51430  0.48330  Biso   1.000  O
  O34      1.0000 0.57870  0.51430  0.01670  Biso   1.000  O
  O35      1.0000 0.92130  0.01430  0.48330  Biso   1.000  O
  O36      1.0000 0.07870  0.01430  0.01670  Biso   1.000  O
  O37      1.0000 0.57870  0.48570  0.51670  Biso   1.000  O
  O38      1.0000 0.42130  0.48570  0.98330  Biso   1.000  O
  O39      1.0000 0.07870  0.98570  0.51670  Biso   1.000  O
  O40      1.0000 0.92130  0.98570  0.98330  Biso   1.000  O
  H65      1.0000 0.44900  0.45500  0.50900  Biso   1.000  H
  H66      1.0000 0.55100  0.45500  0.99100  Biso   1.000  H
  H67      1.0000 0.94900  0.95500  0.50900  Biso   1.000  H
  H68      1.0000 0.05100  0.95500  0.99100  Biso   1.000  H
  H69      1.0000 0.55100  0.54500  0.49100  Biso   1.000  H
  H70      1.0000 0.44900  0.54500  0.00900  Biso   1.000  H
  H71      1.0000 0.05100  0.04500  0.49100  Biso   1.000  H
  H72      1.0000 0.94900  0.04500  0.00900  Biso   1.000  H
  H73      1.0000 0.39700  0.47300  0.42600  Biso   1.000  H
  H74      1.0000 0.60300  0.47300  0.07400  Biso   1.000  H
  H75      1.0000 0.89700  0.97300  0.42600  Biso   1.000  H
  H76      1.0000 0.10300  0.97300  0.07400  Biso   1.000  H
  H77      1.0000 0.60300  0.52700  0.57400  Biso   1.000  H
  H78      1.0000 0.39700  0.52700  0.92600  Biso   1.000  H
  H79      1.0000 0.10300  0.02700  0.57400  Biso   1.000  H
  H80      1.0000 0.89700  0.02700  0.92600  Biso   1.000  H
  O41      1.0000 0.47310  0.47730  0.46060  Biso   1.000  O
  O42      1.0000 0.52690  0.47730  0.03940  Biso   1.000  O
  O43      1.0000 0.97310  0.97730  0.46060  Biso   1.000  O
  O44      1.0000 0.02690  0.97730  0.03940  Biso   1.000  O
  O45      1.0000 0.52690  0.52270  0.53940  Biso   1.000  O
  O46      1.0000 0.47310  0.52270  0.96060  Biso   1.000  O
  O47      1.0000 0.02690  0.02270  0.53940  Biso   1.000  O
  O48      1.0000 0.97310  0.02270  0.96060  Biso   1.000  O
  H81      1.0000 0.47400  0.49100  0.38800  Biso   1.000  H
  H82      1.0000 0.52600  0.49100  0.11200  Biso   1.000  H
  H83      1.0000 0.97400  0.99100  0.38800  Biso   1.000  H
  H84      1.0000 0.02600  0.99100  0.11200  Biso   1.000  H
  H85      1.0000 0.52600  0.50900  0.61200  Biso   1.000  H
  H86      1.0000 0.47400  0.50900  0.88800  Biso   1.000  H
  H87      1.0000 0.02600  0.00900  0.61200  Biso   1.000  H
  H88      1.0000 0.97400  0.00900  0.88800  Biso   1.000  H
  H89      1.0000 0.48000  0.39800  0.46000  Biso   1.000  H
  H90      1.0000 0.52000  0.39800  0.04000  Biso   1.000  H
  H91      1.0000 0.98000  0.89800  0.46000  Biso   1.000  H
  H92      1.0000 0.02000  0.89800  0.04000  Biso   1.000  H
  H93      1.0000 0.52000  0.60200  0.54000  Biso   1.000  H
  H94      1.0000 0.48000  0.60200  0.96000  Biso   1.000  H
  H95      1.0000 0.02000  0.10200  0.54000  Biso   1.000  H
  H96      1.0000 0.98000  0.10200  0.96000  Biso   1.000  H
