data_image0
_cell_length_a       14.0337
_cell_length_b       11.9862
_cell_length_c       10.4162
_cell_angle_alpha    90
_cell_angle_beta     90
_cell_angle_gamma    90

_symmetry_space_group_name_H-M    "P 1"
_symmetry_int_tables_number       1

loop_
  _symmetry_equiv_pos_as_xyz
  'x, y, z'

loop_
  _atom_site_label
  _atom_site_occupancy
  _atom_site_fract_x
  _atom_site_fract_y
  _atom_site_fract_z
  _atom_site_thermal_displace_type
  _atom_site_B_iso_or_equiv
  _atom_site_type_symbol
  Cu1      1.0000 0.11734  0.25000  0.90979  Biso   1.000  Cu
  Cu2      1.0000 0.61734  0.25000  0.59021  Biso   1.000  Cu
  Cu3      1.0000 0.38266  0.75000  0.40979  Biso   1.000  Cu
  Cu4      1.0000 0.88266  0.75000  0.09021  Biso   1.000  Cu
  C1       1.0000 0.37528  0.25000  0.22370  Biso   1.000  C
  C2       1.0000 0.87528  0.25000  0.27630  Biso   1.000  C
  C3       1.0000 0.12472  0.75000  0.72370  Biso   1.000  C
  C4       1.0000 0.62472  0.75000  0.77630  Biso   1.000  C
  N1       1.0000 0.19644  0.13169  0.98935  Biso   1.000  N
  N2       1.0000 0.69644  0.13169  0.51065  Biso   1.000  N
  N3       1.0000 0.19644  0.36831  0.98935  Biso   1.000  N
  N4       1.0000 0.30356  0.63169  0.48935  Biso   1.000  N
  N5       1.0000 0.80356  0.86831  0.01065  Biso   1.000  N
  N6       1.0000 0.30356  0.86831  0.48935  Biso   1.000  N
  N7       1.0000 0.80356  0.63169  0.01065  Biso   1.000  N
  N8       1.0000 0.69644  0.36831  0.51065  Biso   1.000  N
  N9       1.0000 0.50952  0.25000  0.42148  Biso   1.000  N
  N10      1.0000 0.00952  0.25000  0.07852  Biso   1.000  N
  N11      1.0000 0.99048  0.75000  0.92148  Biso   1.000  N
  N12      1.0000 0.49048  0.75000  0.57852  Biso   1.000  N
  C5       1.0000 0.26856  0.14596  0.07989  Biso   1.000  C
  C6       1.0000 0.76856  0.14596  0.42011  Biso   1.000  C
  C7       1.0000 0.26856  0.35404  0.07989  Biso   1.000  C
  C8       1.0000 0.23144  0.64596  0.57989  Biso   1.000  C
  C9       1.0000 0.73144  0.85404  0.92011  Biso   1.000  C
  C10      1.0000 0.23144  0.85404  0.57989  Biso   1.000  C
  C11      1.0000 0.73144  0.64596  0.92011  Biso   1.000  C
  C12      1.0000 0.76856  0.35404  0.42011  Biso   1.000  C
  C13      1.0000 0.94179  0.25000  0.70060  Biso   1.000  C
  C14      1.0000 0.44179  0.25000  0.79940  Biso   1.000  C
  C15      1.0000 0.55821  0.75000  0.20060  Biso   1.000  C
  C16      1.0000 0.05821  0.75000  0.29940  Biso   1.000  C
  H1       1.0000 0.88610  0.25000  0.64870  Biso   1.000  H
  H2       1.0000 0.38610  0.25000  0.85130  Biso   1.000  H
  H3       1.0000 0.61390  0.75000  0.14870  Biso   1.000  H
  H4       1.0000 0.11390  0.75000  0.35130  Biso   1.000  H
  C17      1.0000 0.29824  0.03960  0.12458  Biso   1.000  C
  C18      1.0000 0.79824  0.03960  0.37542  Biso   1.000  C
  C19      1.0000 0.29824  0.46040  0.12458  Biso   1.000  C
  C20      1.0000 0.20176  0.53960  0.62458  Biso   1.000  C
  C21      1.0000 0.70176  0.96040  0.87542  Biso   1.000  C
  C22      1.0000 0.20176  0.96040  0.62458  Biso   1.000  C
  C23      1.0000 0.70176  0.53960  0.87542  Biso   1.000  C
  C24      1.0000 0.79824  0.46040  0.37542  Biso   1.000  C
  H5       1.0000 0.34660  0.02520  0.18620  Biso   1.000  H
  H6       1.0000 0.84660  0.02520  0.31380  Biso   1.000  H
  H7       1.0000 0.34660  0.47480  0.18620  Biso   1.000  H
  H8       1.0000 0.15340  0.52520  0.68620  Biso   1.000  H
  H9       1.0000 0.65340  0.97480  0.81380  Biso   1.000  H
  H10      1.0000 0.15340  0.97480  0.68620  Biso   1.000  H
  H11      1.0000 0.65340  0.52520  0.81380  Biso   1.000  H
  H12      1.0000 0.84660  0.47480  0.31380  Biso   1.000  H
  C25      1.0000 0.30120  0.25000  0.12023  Biso   1.000  C
  C26      1.0000 0.80120  0.25000  0.37977  Biso   1.000  C
  C27      1.0000 0.19880  0.75000  0.62023  Biso   1.000  C
  C28      1.0000 0.69880  0.75000  0.87977  Biso   1.000  C
  C29      1.0000 0.98012  0.14730  0.73634  Biso   1.000  C
  C30      1.0000 0.48012  0.14730  0.76366  Biso   1.000  C
  C31      1.0000 0.98012  0.35270  0.73634  Biso   1.000  C
  C32      1.0000 0.51988  0.64730  0.23634  Biso   1.000  C
  C33      1.0000 0.01988  0.85270  0.26366  Biso   1.000  C
  C34      1.0000 0.51988  0.85270  0.23634  Biso   1.000  C
  C35      1.0000 0.01988  0.64730  0.26366  Biso   1.000  C
  C36      1.0000 0.48012  0.35270  0.76366  Biso   1.000  C
  C37      1.0000 0.41651  0.25000  0.44570  Biso   1.000  C
  C38      1.0000 0.91651  0.25000  0.05430  Biso   1.000  C
  C39      1.0000 0.08349  0.75000  0.94570  Biso   1.000  C
  C40      1.0000 0.58349  0.75000  0.55430  Biso   1.000  C
  H13      1.0000 0.39630  0.25000  0.53280  Biso   1.000  H
  H14      1.0000 0.89630  0.25000  0.96720  Biso   1.000  H
  H15      1.0000 0.10370  0.75000  0.03280  Biso   1.000  H
  H16      1.0000 0.60370  0.75000  0.46720  Biso   1.000  H
  C41      1.0000 0.18217  0.02174  0.98052  Biso   1.000  C
  C42      1.0000 0.68217  0.02174  0.51948  Biso   1.000  C
  C43      1.0000 0.18217  0.47826  0.98052  Biso   1.000  C
  C44      1.0000 0.31783  0.52174  0.48052  Biso   1.000  C
  C45      1.0000 0.81783  0.97826  0.01948  Biso   1.000  C
  C46      1.0000 0.31783  0.97826  0.48052  Biso   1.000  C
  C47      1.0000 0.81783  0.52174  0.01948  Biso   1.000  C
  C48      1.0000 0.68217  0.47826  0.51948  Biso   1.000  C
  H17      1.0000 0.13610  0.98800  0.92610  Biso   1.000  H
  H18      1.0000 0.63610  0.98800  0.57390  Biso   1.000  H
  H19      1.0000 0.13610  0.51200  0.92610  Biso   1.000  H
  H20      1.0000 0.36390  0.48800  0.42610  Biso   1.000  H
  H21      1.0000 0.86390  0.01200  0.07390  Biso   1.000  H
  H22      1.0000 0.36390  0.01200  0.42610  Biso   1.000  H
  H23      1.0000 0.86390  0.48800  0.07390  Biso   1.000  H
  H24      1.0000 0.63610  0.51200  0.57390  Biso   1.000  H
  C49      1.0000 0.24416  0.96201  0.06218  Biso   1.000  C
  C50      1.0000 0.74416  0.96201  0.43782  Biso   1.000  C
  C51      1.0000 0.24416  0.53799  0.06218  Biso   1.000  C
  C52      1.0000 0.25584  0.46201  0.56218  Biso   1.000  C
  C53      1.0000 0.75584  0.03799  0.93782  Biso   1.000  C
  C54      1.0000 0.25584  0.03799  0.56218  Biso   1.000  C
  C55      1.0000 0.75584  0.46201  0.93782  Biso   1.000  C
  C56      1.0000 0.74416  0.53799  0.43782  Biso   1.000  C
  H25      1.0000 0.24760  0.88330  0.07180  Biso   1.000  H
  H26      1.0000 0.74760  0.88330  0.42820  Biso   1.000  H
  H27      1.0000 0.24760  0.61670  0.07180  Biso   1.000  H
  H28      1.0000 0.25240  0.38330  0.57180  Biso   1.000  H
  H29      1.0000 0.75240  0.11670  0.92820  Biso   1.000  H
  H30      1.0000 0.25240  0.11670  0.57180  Biso   1.000  H
  H31      1.0000 0.75240  0.38330  0.92820  Biso   1.000  H
  H32      1.0000 0.74760  0.61670  0.42820  Biso   1.000  H
  C57      1.0000 0.47161  0.25000  0.19730  Biso   1.000  C
  C58      1.0000 0.97161  0.25000  0.30270  Biso   1.000  C
  C59      1.0000 0.02839  0.75000  0.69730  Biso   1.000  C
  C60      1.0000 0.52839  0.75000  0.80270  Biso   1.000  C
  H33      1.0000 0.49370  0.25000  0.11100  Biso   1.000  H
  H34      1.0000 0.99370  0.25000  0.38900  Biso   1.000  H
  H35      1.0000 0.00630  0.75000  0.61100  Biso   1.000  H
  H36      1.0000 0.50630  0.75000  0.88900  Biso   1.000  H
  C61      1.0000 0.34769  0.25000  0.35070  Biso   1.000  C
  C62      1.0000 0.84769  0.25000  0.14930  Biso   1.000  C
  C63      1.0000 0.15231  0.75000  0.85070  Biso   1.000  C
  C64      1.0000 0.65231  0.75000  0.64930  Biso   1.000  C
  H37      1.0000 0.28200  0.25000  0.37280  Biso   1.000  H
  H38      1.0000 0.78200  0.25000  0.12720  Biso   1.000  H
  H39      1.0000 0.21800  0.75000  0.87280  Biso   1.000  H
  H40      1.0000 0.71800  0.75000  0.62720  Biso   1.000  H
  C65      1.0000 0.93635  0.04195  0.68585  Biso   1.000  C
  C66      1.0000 0.43635  0.04195  0.81415  Biso   1.000  C
  C67      1.0000 0.93635  0.45805  0.68585  Biso   1.000  C
  C68      1.0000 0.56365  0.54195  0.18585  Biso   1.000  C
  C69      1.0000 0.06365  0.95805  0.31415  Biso   1.000  C
  C70      1.0000 0.56365  0.95805  0.18585  Biso   1.000  C
  C71      1.0000 0.06365  0.54195  0.31415  Biso   1.000  C
  C72      1.0000 0.43635  0.45805  0.81415  Biso   1.000  C
  H41      1.0000 0.97990  0.00710  0.62430  Biso   1.000  H
  H42      1.0000 0.47990  0.00710  0.87570  Biso   1.000  H
  H43      1.0000 0.97990  0.49290  0.62430  Biso   1.000  H
  H44      1.0000 0.52010  0.50710  0.12430  Biso   1.000  H
  H45      1.0000 0.02010  0.99290  0.37570  Biso   1.000  H
  H46      1.0000 0.52010  0.99290  0.12430  Biso   1.000  H
  H47      1.0000 0.02010  0.50710  0.37570  Biso   1.000  H
  H48      1.0000 0.47990  0.49290  0.87570  Biso   1.000  H
  H49      1.0000 0.87600  0.05950  0.64310  Biso   1.000  H
  H50      1.0000 0.37600  0.05950  0.85690  Biso   1.000  H
  H51      1.0000 0.87600  0.44050  0.64310  Biso   1.000  H
  H52      1.0000 0.62400  0.55950  0.14310  Biso   1.000  H
  H53      1.0000 0.12400  0.94050  0.35690  Biso   1.000  H
  H54      1.0000 0.62400  0.94050  0.14310  Biso   1.000  H
  H55      1.0000 0.12400  0.55950  0.35690  Biso   1.000  H
  H56      1.0000 0.37600  0.44050  0.85690  Biso   1.000  H
  H57      1.0000 0.92450  0.99050  0.75720  Biso   1.000  H
  H58      1.0000 0.42450  0.99050  0.74280  Biso   1.000  H
  H59      1.0000 0.92450  0.50950  0.75720  Biso   1.000  H
  H60      1.0000 0.57550  0.49050  0.25720  Biso   1.000  H
  H61      1.0000 0.07550  0.00950  0.24280  Biso   1.000  H
  H62      1.0000 0.57550  0.00950  0.25720  Biso   1.000  H
  H63      1.0000 0.07550  0.49050  0.24280  Biso   1.000  H
  H64      1.0000 0.42450  0.50950  0.74280  Biso   1.000  H
  C73      1.0000 0.53549  0.25000  0.29810  Biso   1.000  C
  C74      1.0000 0.03549  0.25000  0.20190  Biso   1.000  C
  C75      1.0000 0.96451  0.75000  0.79810  Biso   1.000  C
  C76      1.0000 0.46451  0.75000  0.70190  Biso   1.000  C
  H65      1.0000 0.60160  0.25000  0.27870  Biso   1.000  H
  H66      1.0000 0.10160  0.25000  0.22130  Biso   1.000  H
  H67      1.0000 0.89840  0.75000  0.77870  Biso   1.000  H
  H68      1.0000 0.39840  0.75000  0.72130  Biso   1.000  H
  O1       1.0000 0.05114  0.13442  0.81144  Biso   1.000  O
  O2       1.0000 0.55114  0.13442  0.68856  Biso   1.000  O
  O3       1.0000 0.05114  0.36558  0.81144  Biso   1.000  O
  O4       1.0000 0.44886  0.63442  0.31144  Biso   1.000  O
  O5       1.0000 0.94886  0.86558  0.18856  Biso   1.000  O
  O6       1.0000 0.44886  0.86558  0.31144  Biso   1.000  O
  O7       1.0000 0.94886  0.63442  0.18856  Biso   1.000  O
  O8       1.0000 0.55114  0.36558  0.68856  Biso   1.000  O
