data_image0
_cell_length_a       8.3811
_cell_length_b       15.5837
_cell_length_c       16.5921
_cell_angle_alpha    117.52
_cell_angle_beta     91.737
_cell_angle_gamma    98.95

_symmetry_space_group_name_H-M    "P 1"
_symmetry_int_tables_number       1

loop_
  _symmetry_equiv_pos_as_xyz
  'x, y, z'

loop_
  _atom_site_label
  _atom_site_occupancy
  _atom_site_fract_x
  _atom_site_fract_y
  _atom_site_fract_z
  _atom_site_thermal_displace_type
  _atom_site_B_iso_or_equiv
  _atom_site_type_symbol
  Cu1      1.0000 0.32592  0.68427  0.35962  Biso   1.000  Cu
  Cu2      1.0000 0.67408  0.31573  0.64038  Biso   1.000  Cu
  O1       1.0000 0.41230  0.59143  0.38992  Biso   1.000  O
  O2       1.0000 0.58770  0.40857  0.61008  Biso   1.000  O
  O3       1.0000 0.39860  0.62496  0.23869  Biso   1.000  O
  O4       1.0000 0.60140  0.37504  0.76131  Biso   1.000  O
  N1       1.0000 0.22020  0.72934  0.47346  Biso   1.000  N
  N2       1.0000 0.77980  0.27066  0.52654  Biso   1.000  N
  N3       1.0000 0.20360  0.75912  0.31945  Biso   1.000  N
  N4       1.0000 0.79640  0.24088  0.68055  Biso   1.000  N
  C1       1.0000 0.00330  0.79535  0.43034  Biso   1.000  C
  C2       1.0000 0.99670  0.20465  0.56966  Biso   1.000  C
  C3       1.0000 0.45470  0.54570  0.20123  Biso   1.000  C
  C4       1.0000 0.54530  0.45430  0.79877  Biso   1.000  C
  C5       1.0000 0.25610  0.71590  0.54499  Biso   1.000  C
  C6       1.0000 0.74390  0.28410  0.45501  Biso   1.000  C
  H1       1.0000 0.34860  0.69090  0.55260  Biso   1.000  H
  H2       1.0000 0.65140  0.30910  0.44740  Biso   1.000  H
  C7       1.0000 0.02560  0.77410  0.57228  Biso   1.000  C
  C8       1.0000 0.97440  0.22590  0.42772  Biso   1.000  C
  H3       1.0000 0.93060  0.79580  0.59810  Biso   1.000  H
  H4       1.0000 0.06940  0.20420  0.40190  Biso   1.000  H
  C9       1.0000 0.47310  0.51800  0.33593  Biso   1.000  C
  C10      1.0000 0.52690  0.48200  0.66407  Biso   1.000  C
  C11      1.0000 0.07650  0.76742  0.48862  Biso   1.000  C
  C12      1.0000 0.92350  0.23258  0.51138  Biso   1.000  C
  C13      1.0000 0.47710  0.50920  0.10228  Biso   1.000  C
  C14      1.0000 0.52290  0.49080  0.89772  Biso   1.000  C
  H5       1.0000 0.37260  0.49790  0.06730  Biso   1.000  H
  H6       1.0000 0.62740  0.50210  0.93270  Biso   1.000  H
  H7       1.0000 0.51770  0.44740  0.07900  Biso   1.000  H
  H8       1.0000 0.48230  0.55260  0.92100  Biso   1.000  H
  H9       1.0000 0.55560  0.55860  0.09570  Biso   1.000  H
  H10      1.0000 0.44440  0.44140  0.90430  Biso   1.000  H
  C15      1.0000 0.06310  0.79350  0.35169  Biso   1.000  C
  C16      1.0000 0.93690  0.20650  0.64831  Biso   1.000  C
  C17      1.0000 0.00090  0.83140  0.29635  Biso   1.000  C
  C18      1.0000 0.99910  0.16860  0.70365  Biso   1.000  C
  H11      1.0000 0.90490  0.85830  0.30270  Biso   1.000  H
  H12      1.0000 0.09510  0.14170  0.69730  Biso   1.000  H
  C19      1.0000 0.10580  0.82160  0.23210  Biso   1.000  C
  C20      1.0000 0.89420  0.17840  0.76790  Biso   1.000  C
  H13      1.0000 0.09760  0.84100  0.18580  Biso   1.000  H
  H14      1.0000 0.90240  0.15900  0.81420  Biso   1.000  H
  C21      1.0000 0.22910  0.77670  0.24847  Biso   1.000  C
  C22      1.0000 0.77090  0.22330  0.75153  Biso   1.000  C
  H15      1.0000 0.31820  0.76120  0.21370  Biso   1.000  H
  H16      1.0000 0.68180  0.23880  0.78630  Biso   1.000  H
  C23      1.0000 0.14030  0.74330  0.60860  Biso   1.000  C
  C24      1.0000 0.85970  0.25670  0.39140  Biso   1.000  C
  H17      1.0000 0.14160  0.74080  0.66470  Biso   1.000  H
  H18      1.0000 0.85840  0.25920  0.33530  Biso   1.000  H
  C25      1.0000 0.52350  0.45570  0.37590  Biso   1.000  C
  C26      1.0000 0.47650  0.54430  0.62410  Biso   1.000  C
  H19      1.0000 0.60280  0.49710  0.43010  Biso   1.000  H
  H20      1.0000 0.39720  0.50290  0.56990  Biso   1.000  H
  H21      1.0000 0.57270  0.40340  0.33030  Biso   1.000  H
  H22      1.0000 0.42730  0.59660  0.66970  Biso   1.000  H
  H23      1.0000 0.42790  0.42620  0.39330  Biso   1.000  H
  H24      1.0000 0.57210  0.57380  0.60670  Biso   1.000  H
  C27      1.0000 0.49350  0.49240  0.24460  Biso   1.000  C
  C28      1.0000 0.50650  0.50760  0.75540  Biso   1.000  C
  H25      1.0000 0.53660  0.43480  0.21010  Biso   1.000  H
  H26      1.0000 0.46340  0.56520  0.78990  Biso   1.000  H
  Cu3      1.0000 0.15550  0.32015  0.14111  Biso   1.000  Cu
  Cu4      1.0000 0.84450  0.67985  0.85889  Biso   1.000  Cu
  O5       1.0000 0.06930  0.41290  0.11016  Biso   1.000  O
  O6       1.0000 0.93070  0.58710  0.88984  Biso   1.000  O
  O7       1.0000 0.08020  0.37988  0.26164  Biso   1.000  O
  O8       1.0000 0.91980  0.62012  0.73836  Biso   1.000  O
  N5       1.0000 0.27920  0.24686  0.18281  Biso   1.000  N
  N6       1.0000 0.72080  0.75314  0.81719  Biso   1.000  N
  N7       1.0000 0.26150  0.27440  0.02764  Biso   1.000  N
  N8       1.0000 0.73850  0.72560  0.97236  Biso   1.000  N
  N9       1.0000 0.92320  0.20370  0.07455  Biso   1.000  N
  N10      1.0000 0.07680  0.79630  0.92545  Biso   1.000  N
  C29      1.0000 0.47760  0.20780  0.07070  Biso   1.000  C
  C30      1.0000 0.52240  0.79220  0.92930  Biso   1.000  C
  C31      1.0000 0.22520  0.28800  0.95561  Biso   1.000  C
  C32      1.0000 0.77480  0.71200  0.04439  Biso   1.000  C
  H27      1.0000 0.13350  0.31380  0.94820  Biso   1.000  H
  H28      1.0000 0.86650  0.68620  0.05180  Biso   1.000  H
  C33      1.0000 0.48210  0.17510  0.20709  Biso   1.000  C
  C34      1.0000 0.51790  0.82490  0.79291  Biso   1.000  C
  H29      1.0000 0.57770  0.14800  0.20110  Biso   1.000  H
  H30      1.0000 0.42230  0.85200  0.79890  Biso   1.000  H
  C35      1.0000 0.02380  0.45880  0.29861  Biso   1.000  C
  C36      1.0000 0.97620  0.54120  0.70139  Biso   1.000  C
  C37      1.0000 0.92460  0.11560  0.00400  Biso   1.000  C
  C38      1.0000 0.07540  0.88440  0.99600  Biso   1.000  C
  H31      1.0000 0.02650  0.09620  0.98960  Biso   1.000  H
  H32      1.0000 0.97350  0.90380  0.01040  Biso   1.000  H
  C39      1.0000 0.00870  0.48620  0.16381  Biso   1.000  C
  C40      1.0000 0.99130  0.51380  0.83619  Biso   1.000  C
  C41      1.0000 0.77900  0.22980  0.09544  Biso   1.000  C
  C42      1.0000 0.22100  0.77020  0.90456  Biso   1.000  C
  H33      1.0000 0.77690  0.29180  0.14660  Biso   1.000  H
  H34      1.0000 0.22310  0.70820  0.85340  Biso   1.000  H
  C43      1.0000 0.37770  0.18700  0.27220  Biso   1.000  C
  C44      1.0000 0.62230  0.81300  0.72780  Biso   1.000  C
  H35      1.0000 0.38630  0.16910  0.31940  Biso   1.000  H
  H36      1.0000 0.61370  0.83090  0.68060  Biso   1.000  H
  C45      1.0000 0.34000  0.25930  0.89213  Biso   1.000  C
  C46      1.0000 0.66000  0.74070  0.10787  Biso   1.000  C
  H37      1.0000 0.33910  0.26160  0.83590  Biso   1.000  H
  H38      1.0000 0.66090  0.73840  0.16410  Biso   1.000  H
  C47      1.0000 0.40350  0.23530  0.01203  Biso   1.000  C
  C48      1.0000 0.59650  0.76470  0.98797  Biso   1.000  C
  C49      1.0000 0.41940  0.21120  0.15011  Biso   1.000  C
  C50      1.0000 0.58060  0.78880  0.84989  Biso   1.000  C
  C51      1.0000 0.78510  0.05100  0.95070  Biso   1.000  C
  C52      1.0000 0.21490  0.94900  0.04930  Biso   1.000  C
  H39      1.0000 0.79090  0.98870  0.90090  Biso   1.000  H
  H40      1.0000 0.20910  0.01130  0.09910  Biso   1.000  H
  C53      1.0000 0.25470  0.23120  0.25480  Biso   1.000  C
  C54      1.0000 0.74530  0.76880  0.74520  Biso   1.000  C
  H41      1.0000 0.16600  0.24770  0.28980  Biso   1.000  H
  H42      1.0000 0.83400  0.75230  0.71020  Biso   1.000  H
  C55      1.0000 0.99820  0.49510  0.39709  Biso   1.000  C
  C56      1.0000 0.00180  0.50490  0.60291  Biso   1.000  C
  H43      1.0000 0.91390  0.44750  0.40260  Biso   1.000  H
  H44      1.0000 0.08610  0.55250  0.59740  Biso   1.000  H
  H45      1.0000 0.96380  0.55890  0.42080  Biso   1.000  H
  H46      1.0000 0.03620  0.44110  0.57920  Biso   1.000  H
  H47      1.0000 0.10010  0.50280  0.43240  Biso   1.000  H
  H48      1.0000 0.89990  0.49720  0.56760  Biso   1.000  H
  C57      1.0000 0.63230  0.17030  0.04552  Biso   1.000  C
  C58      1.0000 0.36770  0.82970  0.95448  Biso   1.000  C
  C59      1.0000 0.63600  0.07940  0.97162  Biso   1.000  C
  C60      1.0000 0.36400  0.92060  0.02838  Biso   1.000  C
  H49      1.0000 0.53800  0.03710  0.93580  Biso   1.000  H
  H50      1.0000 0.46200  0.96290  0.06420  Biso   1.000  H
  C61      1.0000 0.45400  0.22740  0.92824  Biso   1.000  C
  C62      1.0000 0.54600  0.77260  0.07176  Biso   1.000  C
  H51      1.0000 0.54810  0.20450  0.90210  Biso   1.000  H
  H52      1.0000 0.45190  0.79550  0.09790  Biso   1.000  H
  C63      1.0000 0.98610  0.51190  0.25482  Biso   1.000  C
  C64      1.0000 0.01390  0.48810  0.74518  Biso   1.000  C
  H53      1.0000 0.94210  0.56930  0.28890  Biso   1.000  H
  H54      1.0000 0.05790  0.43070  0.71110  Biso   1.000  H
  C65      1.0000 0.95870  0.54890  0.12370  Biso   1.000  C
  C66      1.0000 0.04130  0.45110  0.87630  Biso   1.000  C
  H55      1.0000 0.05450  0.57780  0.10590  Biso   1.000  H
  H56      1.0000 0.94550  0.42220  0.89410  Biso   1.000  H
  H57      1.0000 0.91060  0.60170  0.16950  Biso   1.000  H
  H58      1.0000 0.08940  0.39830  0.83050  Biso   1.000  H
  H59      1.0000 0.87870  0.50790  0.06980  Biso   1.000  H
  H60      1.0000 0.12130  0.49210  0.93020  Biso   1.000  H
  C67      1.0000 0.70180  0.77370  0.40665  Biso   1.000  C
  C68      1.0000 0.29820  0.22630  0.59335  Biso   1.000  C
  H61      1.0000 0.70290  0.71100  0.35630  Biso   1.000  H
  H62      1.0000 0.29710  0.28900  0.64370  Biso   1.000  H
  C69      1.0000 0.84670  0.92480  0.52780  Biso   1.000  C
  C70      1.0000 0.15330  0.07520  0.47220  Biso   1.000  C
  H63      1.0000 0.94530  0.96720  0.56270  Biso   1.000  H
  H64      1.0000 0.05470  0.03280  0.43730  Biso   1.000  H
  C71      1.0000 0.84940  0.83310  0.45545  Biso   1.000  C
  C72      1.0000 0.15060  0.16690  0.54455  Biso   1.000  C
  Cl1      1.0000 0.83702  0.04424  0.16471  Biso   1.000  Cl
  Cl2      1.0000 0.16298  0.95576  0.83529  Biso   1.000  Cl
  N11      1.0000 0.55810  0.80086  0.42737  Biso   1.000  N
  N12      1.0000 0.44190  0.19914  0.57263  Biso   1.000  N
  C73      1.0000 0.55750  0.88970  0.49740  Biso   1.000  C
  C74      1.0000 0.44250  0.11030  0.50260  Biso   1.000  C
  H65      1.0000 0.45590  0.90920  0.51230  Biso   1.000  H
  H66      1.0000 0.54410  0.09080  0.48770  Biso   1.000  H
  C75      1.0000 0.69800  0.95470  0.54920  Biso   1.000  C
  C76      1.0000 0.30200  0.04530  0.45080  Biso   1.000  C
  H67      1.0000 0.69340  0.01790  0.59790  Biso   1.000  H
  H68      1.0000 0.30660  0.98210  0.40210  Biso   1.000  H
  Cl3      1.0000 0.63987  0.99897  0.28694  Biso   1.000  Cl
  Cl4      1.0000 0.36013  0.00103  0.71306  Biso   1.000  Cl
  C77      1.0000 0.82700  0.99150  0.23480  Biso   1.000  C
  C78      1.0000 0.17300  0.00850  0.76520  Biso   1.000  C
  H69      1.0000 0.92020  0.02490  0.28340  Biso   1.000  H
  H70      1.0000 0.07980  0.97510  0.71660  Biso   1.000  H
  H71      1.0000 0.83580  0.92140  0.19900  Biso   1.000  H
  H72      1.0000 0.16420  0.07860  0.80100  Biso   1.000  H
