data_image0
_cell_length_a       10.1295
_cell_length_b       10.3212
_cell_length_c       10.677
_cell_angle_alpha    84.876
_cell_angle_beta     64.691
_cell_angle_gamma    77.508

_symmetry_space_group_name_H-M    "P 1"
_symmetry_int_tables_number       1

loop_
  _symmetry_equiv_pos_as_xyz
  'x, y, z'

loop_
  _atom_site_label
  _atom_site_occupancy
  _atom_site_fract_x
  _atom_site_fract_y
  _atom_site_fract_z
  _atom_site_thermal_displace_type
  _atom_site_B_iso_or_equiv
  _atom_site_type_symbol
  Cu1      1.0000 0.35749  0.11288  0.04400  Biso   1.000  Cu
  Cu2      1.0000 0.64251  0.88712  0.95600  Biso   1.000  Cu
  Cl1      1.0000 0.32863  0.86124  0.71027  Biso   1.000  Cl
  Cl2      1.0000 0.67137  0.13876  0.28973  Biso   1.000  Cl
  O1       1.0000 0.46300  0.96420  0.12180  Biso   1.000  O
  O2       1.0000 0.53700  0.03580  0.87820  Biso   1.000  O
  N1       1.0000 0.17650  0.13760  0.22110  Biso   1.000  N
  N2       1.0000 0.82350  0.86240  0.77890  Biso   1.000  N
  N3       1.0000 0.73260  0.78300  0.07490  Biso   1.000  N
  N4       1.0000 0.26740  0.21700  0.92510  Biso   1.000  N
  N5       1.0000 0.45790  0.26570  0.08530  Biso   1.000  N
  N6       1.0000 0.54210  0.73430  0.91470  Biso   1.000  N
  N7       1.0000 0.48010  0.43770  0.17130  Biso   1.000  N
  N8       1.0000 0.51990  0.56230  0.82870  Biso   1.000  N
  N9       1.0000 0.61780  0.39020  0.07270  Biso   1.000  N
  N10      1.0000 0.38220  0.60980  0.92730  Biso   1.000  N
  C1       1.0000 0.47370  0.52600  0.38230  Biso   1.000  C
  C2       1.0000 0.52630  0.47400  0.61770  Biso   1.000  C
  C3       1.0000 0.43160  0.94080  0.25430  Biso   1.000  C
  C4       1.0000 0.56840  0.05920  0.74570  Biso   1.000  C
  C5       1.0000 0.53790  0.85880  0.29620  Biso   1.000  C
  C6       1.0000 0.46210  0.14120  0.70380  Biso   1.000  C
  C7       1.0000 0.50400  0.83670  0.43700  Biso   1.000  C
  C8       1.0000 0.49600  0.16330  0.56300  Biso   1.000  C
  H1       1.0000 0.57510  0.78460  0.46330  Biso   1.000  H
  H2       1.0000 0.42490  0.21540  0.53670  Biso   1.000  H
  C9       1.0000 0.68050  0.78980  0.20490  Biso   1.000  C
  C10      1.0000 0.31950  0.21020  0.79510  Biso   1.000  C
  H3       1.0000 0.74210  0.74470  0.24560  Biso   1.000  H
  H4       1.0000 0.25790  0.25530  0.75440  Biso   1.000  H
  C11      1.0000 0.36760  0.89110  0.53590  Biso   1.000  C
  C12      1.0000 0.63240  0.10890  0.46410  Biso   1.000  C
  C13      1.0000 0.29300  0.99700  0.35980  Biso   1.000  C
  C14      1.0000 0.70700  0.00300  0.64020  Biso   1.000  C
  C15      1.0000 0.35690  0.53710  0.50990  Biso   1.000  C
  C16      1.0000 0.64310  0.46290  0.49010  Biso   1.000  C
  H5       1.0000 0.25990  0.56190  0.51740  Biso   1.000  H
  H6       1.0000 0.74010  0.43810  0.48260  Biso   1.000  H
  C17      1.0000 0.38710  0.36220  0.17740  Biso   1.000  C
  C18      1.0000 0.61290  0.63780  0.82260  Biso   1.000  C
  H7       1.0000 0.28660  0.37550  0.23770  Biso   1.000  H
  H8       1.0000 0.71340  0.62450  0.76230  Biso   1.000  H
  C19      1.0000 0.59940  0.28630  0.02450  Biso   1.000  C
  C20      1.0000 0.40060  0.71370  0.97550  Biso   1.000  C
  H9       1.0000 0.67640  0.23170  0.95510  Biso   1.000  H
  H10      1.0000 0.32360  0.76830  0.04490  Biso   1.000  H
  C21      1.0000 0.01840  0.26360  0.10700  Biso   1.000  C
  C22      1.0000 0.98160  0.73640  0.89300  Biso   1.000  C
  H11      1.0000 0.00600  0.18270  0.07720  Biso   1.000  H
  H12      1.0000 0.99400  0.81730  0.92280  Biso   1.000  H
  H13      1.0000 0.92510  0.32630  0.12940  Biso   1.000  H
  H14      1.0000 0.07490  0.67370  0.87060  Biso   1.000  H
  C23      1.0000 0.44670  0.55620  0.25240  Biso   1.000  C
  C24      1.0000 0.55330  0.44380  0.74760  Biso   1.000  C
  H15      1.0000 0.34330  0.59880  0.27850  Biso   1.000  H
  H16      1.0000 0.65670  0.40120  0.72150  Biso   1.000  H
  H17      1.0000 0.50810  0.61790  0.19550  Biso   1.000  H
  H18      1.0000 0.49190  0.38210  0.80450  Biso   1.000  H
  C25      1.0000 0.61850  0.48810  0.37300  Biso   1.000  C
  C26      1.0000 0.38150  0.51190  0.62700  Biso   1.000  C
  H19      1.0000 0.69890  0.47990  0.28650  Biso   1.000  H
  H20      1.0000 0.30110  0.52010  0.71350  Biso   1.000  H
  C27      1.0000 0.26340  0.97140  0.49770  Biso   1.000  C
  C28      1.0000 0.73660  0.02860  0.50230  Biso   1.000  C
  H21      1.0000 0.17130  0.00920  0.56590  Biso   1.000  H
  H22      1.0000 0.82870  0.99080  0.43410  Biso   1.000  H
  C29      1.0000 0.03230  0.23200  0.23880  Biso   1.000  C
  C30      1.0000 0.96770  0.76800  0.76120  Biso   1.000  C
  H23      1.0000 0.94900  0.19260  0.30140  Biso   1.000  H
  H24      1.0000 0.05100  0.80740  0.69860  Biso   1.000  H
  H25      1.0000 0.02670  0.31360  0.28080  Biso   1.000  H
  H26      1.0000 0.97330  0.68640  0.71920  Biso   1.000  H
  C31      1.0000 0.17360  0.08390  0.33400  Biso   1.000  C
  C32      1.0000 0.82640  0.91610  0.66600  Biso   1.000  C
  H27      1.0000 0.08250  0.10280  0.41060  Biso   1.000  H
  H28      1.0000 0.91750  0.89720  0.58940  Biso   1.000  H
  C33      1.0000 0.87540  0.68600  0.01030  Biso   1.000  C
  C34      1.0000 0.12460  0.31400  0.98970  Biso   1.000  C
  H29      1.0000 0.91610  0.66010  0.07820  Biso   1.000  H
  H30      1.0000 0.08390  0.33990  0.92180  Biso   1.000  H
  H31      1.0000 0.85570  0.60710  0.98390  Biso   1.000  H
  H32      1.0000 0.14430  0.39290  0.01610  Biso   1.000  H
  Cl3      1.0000 0.00665  0.69620  0.33780  Biso   1.000  Cl
  Cl4      1.0000 0.99335  0.30380  0.66220  Biso   1.000  Cl
  O3       1.0000 0.85730  0.70920  0.43120  Biso   1.000  O
  O4       1.0000 0.14270  0.29080  0.56880  Biso   1.000  O
  O5       1.0000 0.09390  0.73530  0.39470  Biso   1.000  O
  O6       1.0000 0.90610  0.26470  0.60530  Biso   1.000  O
  O7       1.0000 0.00650  0.80890  0.24380  Biso   1.000  O
  O8       1.0000 0.99350  0.19110  0.75620  Biso   1.000  O
  O9       1.0000 0.07250  0.58900  0.25500  Biso   1.000  O
  O10      1.0000 0.92750  0.41100  0.74500  Biso   1.000  O
