data_image0
_cell_length_a       8.1662
_cell_length_b       9.495
_cell_length_c       10.092
_cell_angle_alpha    69.64
_cell_angle_beta     71
_cell_angle_gamma    89.72

_symmetry_space_group_name_H-M    "P 1"
_symmetry_int_tables_number       1

loop_
  _symmetry_equiv_pos_as_xyz
  'x, y, z'

loop_
  _atom_site_label
  _atom_site_occupancy
  _atom_site_fract_x
  _atom_site_fract_y
  _atom_site_fract_z
  _atom_site_thermal_displace_type
  _atom_site_B_iso_or_equiv
  _atom_site_type_symbol
  Cu1      1.0000 0.55433  0.66677  0.37191  Biso   1.000  Cu
  Cu2      1.0000 0.44567  0.33323  0.62809  Biso   1.000  Cu
  P1       1.0000 0.69140  0.40610  0.29060  Biso   1.000  P
  P2       1.0000 0.30860  0.59390  0.70940  Biso   1.000  P
  O1       1.0000 0.73110  0.57620  0.25710  Biso   1.000  O
  O2       1.0000 0.26890  0.42380  0.74290  Biso   1.000  O
  O3       1.0000 0.83190  0.34650  0.19630  Biso   1.000  O
  O4       1.0000 0.16810  0.65350  0.80370  Biso   1.000  O
  O5       1.0000 0.62820  0.31110  0.45770  Biso   1.000  O
  O6       1.0000 0.37180  0.68890  0.54230  Biso   1.000  O
  O7       1.0000 0.36100  0.54440  0.36810  Biso   1.000  O
  O8       1.0000 0.63900  0.45560  0.63190  Biso   1.000  O
  O9       1.0000 0.49800  0.87930  0.19500  Biso   1.000  O
  O10      1.0000 0.50200  0.12070  0.80500  Biso   1.000  O
  H1       1.0000 0.59300  0.92300  0.12100  Biso   1.000  H
  H2       1.0000 0.40700  0.07700  0.87900  Biso   1.000  H
  H3       1.0000 0.39600  0.88500  0.18800  Biso   1.000  H
  H4       1.0000 0.60400  0.11500  0.81200  Biso   1.000  H
  N1       1.0000 0.36930  0.47480  0.27100  Biso   1.000  N
  N2       1.0000 0.63070  0.52520  0.72900  Biso   1.000  N
  N3       1.0000 0.73510  0.79630  0.39120  Biso   1.000  N
  N4       1.0000 0.26490  0.20370  0.60880  Biso   1.000  N
  C1       1.0000 0.50350  0.39460  0.23250  Biso   1.000  C
  C2       1.0000 0.49650  0.60540  0.76750  Biso   1.000  C
  C3       1.0000 0.49250  0.31230  0.14550  Biso   1.000  C
  C4       1.0000 0.50750  0.68770  0.85450  Biso   1.000  C
  H5       1.0000 0.58090  0.25440  0.11970  Biso   1.000  H
  H6       1.0000 0.41910  0.74560  0.88030  Biso   1.000  H
  C5       1.0000 0.35340  0.31440  0.09650  Biso   1.000  C
  C6       1.0000 0.64660  0.68560  0.90350  Biso   1.000  C
  H7       1.0000 0.34730  0.25820  0.03860  Biso   1.000  H
  H8       1.0000 0.65270  0.74180  0.96140  Biso   1.000  H
  C7       1.0000 0.22350  0.40100  0.13450  Biso   1.000  C
  C8       1.0000 0.77650  0.59900  0.86550  Biso   1.000  C
  H9       1.0000 0.12950  0.40550  0.10080  Biso   1.000  H
  H10      1.0000 0.87050  0.59450  0.89920  Biso   1.000  H
  C9       1.0000 0.23360  0.48060  0.22220  Biso   1.000  C
  C10      1.0000 0.76640  0.51940  0.77780  Biso   1.000  C
  H11      1.0000 0.14600  0.53910  0.24830  Biso   1.000  H
  H12      1.0000 0.85400  0.46090  0.75170  Biso   1.000  H
  C11      1.0000 0.88270  0.74880  0.41090  Biso   1.000  C
  C12      1.0000 0.11730  0.25120  0.58910  Biso   1.000  C
  H13      1.0000 0.91470  0.65960  0.39640  Biso   1.000  H
  H14      1.0000 0.08530  0.34040  0.60360  Biso   1.000  H
  C13      1.0000 0.99060  0.82470  0.45170  Biso   1.000  C
  C14      1.0000 0.00940  0.17530  0.54830  Biso   1.000  C
  H15      1.0000 0.09230  0.78680  0.46340  Biso   1.000  H
  H16      1.0000 0.90770  0.21320  0.53660  Biso   1.000  H
  C15      1.0000 0.94640  0.95790  0.47520  Biso   1.000  C
  C16      1.0000 0.05360  0.04210  0.52480  Biso   1.000  C
  C17      1.0000 0.79590  0.00830  0.45040  Biso   1.000  C
  C18      1.0000 0.20410  0.99170  0.54960  Biso   1.000  C
  H17      1.0000 0.76180  0.09810  0.46200  Biso   1.000  H
  H18      1.0000 0.23820  0.90190  0.53800  Biso   1.000  H
  C19      1.0000 0.69580  0.92680  0.40880  Biso   1.000  C
  C20      1.0000 0.30420  0.07320  0.59120  Biso   1.000  C
  H19      1.0000 0.59610  0.96460  0.39220  Biso   1.000  H
  H20      1.0000 0.40390  0.03540  0.60780  Biso   1.000  H
  O11      1.0000 0.21210  0.96860  0.05810  Biso   1.000  O
  O12      1.0000 0.78790  0.03140  0.94190  Biso   1.000  O
  H21      1.0000 0.14600  0.03400  0.05200  Biso   1.000  H
  H22      1.0000 0.85400  0.96600  0.94800  Biso   1.000  H
  H23      1.0000 0.16000  0.91100  0.04000  Biso   1.000  H
  H24      1.0000 0.84000  0.08900  0.96000  Biso   1.000  H
  O13      1.0000 0.99610  0.22130  0.99180  Biso   1.000  O
  O14      1.0000 0.00390  0.77870  0.00820  Biso   1.000  O
  H25      1.0000 0.94200  0.25700  0.04600  Biso   1.000  H
  H26      1.0000 0.05800  0.74300  0.95400  Biso   1.000  H
  H27      1.0000 0.06900  0.28200  0.92100  Biso   1.000  H
  H28      1.0000 0.93100  0.71800  0.07900  Biso   1.000  H
