data_image0
_cell_length_a       8.221
_cell_length_b       20.882
_cell_length_c       15.161
_cell_angle_alpha    90
_cell_angle_beta     97.94
_cell_angle_gamma    90

_symmetry_space_group_name_H-M    "P 1"
_symmetry_int_tables_number       1

loop_
  _symmetry_equiv_pos_as_xyz
  'x, y, z'

loop_
  _atom_site_label
  _atom_site_occupancy
  _atom_site_fract_x
  _atom_site_fract_y
  _atom_site_fract_z
  _atom_site_thermal_displace_type
  _atom_site_B_iso_or_equiv
  _atom_site_type_symbol
  Cu1      1.0000 0.87070  0.83860  0.83480  Biso   1.000  Cu
  Cu2      1.0000 0.12930  0.33860  0.66520  Biso   1.000  Cu
  Cu3      1.0000 0.12930  0.16140  0.16520  Biso   1.000  Cu
  Cu4      1.0000 0.87070  0.66140  0.33480  Biso   1.000  Cu
  Cu5      1.0000 0.79460  0.92650  0.00650  Biso   1.000  Cu
  Cu6      1.0000 0.20540  0.42650  0.49350  Biso   1.000  Cu
  Cu7      1.0000 0.20540  0.07350  0.99350  Biso   1.000  Cu
  Cu8      1.0000 0.79460  0.57350  0.50650  Biso   1.000  Cu
  P1       1.0000 0.90460  0.78880  0.02930  Biso   1.000  P
  P2       1.0000 0.09540  0.28880  0.47070  Biso   1.000  P
  P3       1.0000 0.09540  0.21120  0.97070  Biso   1.000  P
  P4       1.0000 0.90460  0.71120  0.52930  Biso   1.000  P
  P5       1.0000 0.05790  0.96090  0.84030  Biso   1.000  P
  P6       1.0000 0.94210  0.46090  0.65970  Biso   1.000  P
  P7       1.0000 0.94210  0.03910  0.15970  Biso   1.000  P
  P8       1.0000 0.05790  0.53910  0.34030  Biso   1.000  P
  O1       1.0000 0.90740  0.85630  0.06900  Biso   1.000  O
  O2       1.0000 0.09260  0.35630  0.43100  Biso   1.000  O
  O3       1.0000 0.09260  0.14370  0.93100  Biso   1.000  O
  O4       1.0000 0.90740  0.64370  0.56900  Biso   1.000  O
  O5       1.0000 0.95610  0.78600  0.93670  Biso   1.000  O
  O6       1.0000 0.04390  0.28600  0.56330  Biso   1.000  O
  O7       1.0000 0.04390  0.21400  0.06330  Biso   1.000  O
  O8       1.0000 0.95610  0.71400  0.43670  Biso   1.000  O
  O9       1.0000 0.98880  0.73960  0.09130  Biso   1.000  O
  O10      1.0000 0.01120  0.23960  0.40870  Biso   1.000  O
  O11      1.0000 0.01120  0.26040  0.90870  Biso   1.000  O
  O12      1.0000 0.98880  0.76040  0.59130  Biso   1.000  O
  O13      1.0000 0.63750  0.86510  0.93270  Biso   1.000  O
  O14      1.0000 0.36250  0.36510  0.56730  Biso   1.000  O
  O15      1.0000 0.36250  0.13490  0.06730  Biso   1.000  O
  O16      1.0000 0.63750  0.63490  0.43270  Biso   1.000  O
  O17      1.0000 0.18540  0.92810  0.79440  Biso   1.000  O
  O18      1.0000 0.81460  0.42810  0.70560  Biso   1.000  O
  O19      1.0000 0.81460  0.07190  0.20560  Biso   1.000  O
  O20      1.0000 0.18540  0.57190  0.29440  Biso   1.000  O
  O21      1.0000 0.96330  0.91500  0.89440  Biso   1.000  O
  O22      1.0000 0.03670  0.41500  0.60560  Biso   1.000  O
  O23      1.0000 0.03670  0.08500  0.10560  Biso   1.000  O
  O24      1.0000 0.96330  0.58500  0.39440  Biso   1.000  O
  O25      1.0000 0.11610  0.01940  0.89390  Biso   1.000  O
  O26      1.0000 0.88390  0.51940  0.60610  Biso   1.000  O
  O27      1.0000 0.88390  0.98060  0.10610  Biso   1.000  O
  O28      1.0000 0.11610  0.48060  0.39390  Biso   1.000  O
  O29      1.0000 0.79260  0.88670  0.72330  Biso   1.000  O
  O30      1.0000 0.20740  0.38670  0.77670  Biso   1.000  O
  O31      1.0000 0.20740  0.11330  0.27670  Biso   1.000  O
  O32      1.0000 0.79260  0.61330  0.22330  Biso   1.000  O
  N1       1.0000 0.57940  0.81020  0.96510  Biso   1.000  N
  N2       1.0000 0.42060  0.31020  0.53490  Biso   1.000  N
  N3       1.0000 0.42060  0.18980  0.03490  Biso   1.000  N
  N4       1.0000 0.57940  0.68980  0.46510  Biso   1.000  N
  N5       1.0000 0.79120  0.95000  0.70710  Biso   1.000  N
  N6       1.0000 0.20880  0.45000  0.79290  Biso   1.000  N
  N7       1.0000 0.20880  0.05000  0.29290  Biso   1.000  N
  N8       1.0000 0.79120  0.55000  0.20710  Biso   1.000  N
  N9       1.0000 0.72990  0.76560  0.78290  Biso   1.000  N
  N10      1.0000 0.27010  0.26560  0.71710  Biso   1.000  N
  N11      1.0000 0.27010  0.23440  0.21710  Biso   1.000  N
  N12      1.0000 0.72990  0.73440  0.28290  Biso   1.000  N
  N13      1.0000 0.31790  0.49990  0.56430  Biso   1.000  N
  N14      1.0000 0.68210  0.99990  0.93570  Biso   1.000  N
  N15      1.0000 0.68210  0.50010  0.43570  Biso   1.000  N
  N16      1.0000 0.31790  0.00010  0.06430  Biso   1.000  N
  C1       1.0000 0.68510  0.76780  0.01130  Biso   1.000  C
  C2       1.0000 0.31490  0.26780  0.48870  Biso   1.000  C
  C3       1.0000 0.31490  0.23220  0.98870  Biso   1.000  C
  C4       1.0000 0.68510  0.73220  0.51130  Biso   1.000  C
  C5       1.0000 0.61930  0.71130  0.03940  Biso   1.000  C
  C6       1.0000 0.38070  0.21130  0.46060  Biso   1.000  C
  C7       1.0000 0.38070  0.28870  0.96060  Biso   1.000  C
  C8       1.0000 0.61930  0.78870  0.53940  Biso   1.000  C
  H1       1.0000 0.68780  0.68170  0.07200  Biso   1.000  H
  H2       1.0000 0.31220  0.18170  0.42800  Biso   1.000  H
  H3       1.0000 0.31220  0.31830  0.92800  Biso   1.000  H
  H4       1.0000 0.68780  0.81830  0.57200  Biso   1.000  H
  C9       1.0000 0.45260  0.69820  0.01940  Biso   1.000  C
  C10      1.0000 0.54740  0.19820  0.48060  Biso   1.000  C
  C11      1.0000 0.54740  0.30180  0.98060  Biso   1.000  C
  C12      1.0000 0.45260  0.80180  0.51940  Biso   1.000  C
  H5       1.0000 0.40980  0.66020  0.03830  Biso   1.000  H
  H6       1.0000 0.59020  0.16020  0.46170  Biso   1.000  H
  H7       1.0000 0.59020  0.33980  0.96170  Biso   1.000  H
  H8       1.0000 0.40980  0.83980  0.53830  Biso   1.000  H
  C13      1.0000 0.35080  0.74220  0.97130  Biso   1.000  C
  C14      1.0000 0.64920  0.24220  0.52870  Biso   1.000  C
  C15      1.0000 0.64920  0.25780  0.02870  Biso   1.000  C
  C16      1.0000 0.35080  0.75780  0.47130  Biso   1.000  C
  H9       1.0000 0.23910  0.73390  0.95710  Biso   1.000  H
  H10      1.0000 0.76090  0.23390  0.54290  Biso   1.000  H
  H11      1.0000 0.76090  0.26610  0.04290  Biso   1.000  H
  H12      1.0000 0.23910  0.76610  0.45710  Biso   1.000  H
  C17      1.0000 0.41640  0.79860  0.94450  Biso   1.000  C
  C18      1.0000 0.58360  0.29860  0.55550  Biso   1.000  C
  C19      1.0000 0.58360  0.20140  0.05550  Biso   1.000  C
  C20      1.0000 0.41640  0.70140  0.44450  Biso   1.000  C
  H13      1.0000 0.34880  0.82860  0.91220  Biso   1.000  H
  H14      1.0000 0.65120  0.32860  0.58780  Biso   1.000  H
  H15      1.0000 0.65120  0.17140  0.08780  Biso   1.000  H
  H16      1.0000 0.34880  0.67140  0.41220  Biso   1.000  H
  C21      1.0000 0.89970  0.99150  0.75330  Biso   1.000  C
  C22      1.0000 0.10030  0.49150  0.74670  Biso   1.000  C
  C23      1.0000 0.10030  0.00850  0.24670  Biso   1.000  C
  C24      1.0000 0.89970  0.50850  0.25330  Biso   1.000  C
  C25      1.0000 0.88690  0.05620  0.73130  Biso   1.000  C
  C26      1.0000 0.11310  0.55620  0.76870  Biso   1.000  C
  C27      1.0000 0.11310  0.94380  0.26870  Biso   1.000  C
  C28      1.0000 0.88690  0.44380  0.23130  Biso   1.000  C
  H17      1.0000 0.95560  0.08550  0.76400  Biso   1.000  H
  H18      1.0000 0.04440  0.58550  0.73600  Biso   1.000  H
  H19      1.0000 0.04440  0.91450  0.23600  Biso   1.000  H
  H20      1.0000 0.95560  0.41450  0.26400  Biso   1.000  H
  C29      1.0000 0.77340  0.07750  0.66140  Biso   1.000  C
  C30      1.0000 0.22660  0.57750  0.83860  Biso   1.000  C
  C31      1.0000 0.22660  0.92250  0.33860  Biso   1.000  C
  C32      1.0000 0.77340  0.42250  0.16140  Biso   1.000  C
  H21      1.0000 0.76780  0.12060  0.64590  Biso   1.000  H
  H22      1.0000 0.23220  0.62060  0.85410  Biso   1.000  H
  H23      1.0000 0.23220  0.87940  0.35410  Biso   1.000  H
  H24      1.0000 0.76780  0.37940  0.14590  Biso   1.000  H
  C33      1.0000 0.66880  0.03360  0.61550  Biso   1.000  C
  C34      1.0000 0.33120  0.53360  0.88450  Biso   1.000  C
  C35      1.0000 0.33120  0.96640  0.38450  Biso   1.000  C
  C36      1.0000 0.66880  0.46640  0.11550  Biso   1.000  C
  H25      1.0000 0.59280  0.04680  0.56780  Biso   1.000  H
  H26      1.0000 0.40720  0.54680  0.93220  Biso   1.000  H
  H27      1.0000 0.40720  0.95320  0.43220  Biso   1.000  H
  H28      1.0000 0.59280  0.45320  0.06780  Biso   1.000  H
  C37      1.0000 0.67710  0.97020  0.64030  Biso   1.000  C
  C38      1.0000 0.32290  0.47020  0.85970  Biso   1.000  C
  C39      1.0000 0.32290  0.02980  0.35970  Biso   1.000  C
  C40      1.0000 0.67710  0.52980  0.14030  Biso   1.000  C
  H29      1.0000 0.60350  0.94100  0.61070  Biso   1.000  H
  H30      1.0000 0.39650  0.44100  0.88930  Biso   1.000  H
  H31      1.0000 0.39650  0.05900  0.38930  Biso   1.000  H
  H32      1.0000 0.60350  0.55900  0.11070  Biso   1.000  H
  C41      1.0000 0.80400  0.70910  0.77310  Biso   1.000  C
  C42      1.0000 0.19600  0.20910  0.72690  Biso   1.000  C
  C43      1.0000 0.19600  0.29090  0.22690  Biso   1.000  C
  C44      1.0000 0.80400  0.79090  0.27310  Biso   1.000  C
  H33      1.0000 0.91620  0.70550  0.79210  Biso   1.000  H
  H34      1.0000 0.08380  0.20550  0.70790  Biso   1.000  H
  H35      1.0000 0.08380  0.29450  0.20790  Biso   1.000  H
  H36      1.0000 0.91620  0.79450  0.29210  Biso   1.000  H
  C45      1.0000 0.72040  0.65650  0.73610  Biso   1.000  C
  C46      1.0000 0.27960  0.15650  0.76390  Biso   1.000  C
  C47      1.0000 0.27960  0.34350  0.26390  Biso   1.000  C
  C48      1.0000 0.72040  0.84350  0.23610  Biso   1.000  C
  H37      1.0000 0.77680  0.61860  0.72920  Biso   1.000  H
  H38      1.0000 0.22320  0.11860  0.77080  Biso   1.000  H
  H39      1.0000 0.22320  0.38140  0.27080  Biso   1.000  H
  H40      1.0000 0.77680  0.88140  0.22920  Biso   1.000  H
  C49      1.0000 0.55110  0.65960  0.70870  Biso   1.000  C
  C50      1.0000 0.44890  0.15960  0.79130  Biso   1.000  C
  C51      1.0000 0.44890  0.34040  0.29130  Biso   1.000  C
  C52      1.0000 0.55110  0.84040  0.20870  Biso   1.000  C
  C53      1.0000 0.47400  0.71800  0.72160  Biso   1.000  C
  C54      1.0000 0.52600  0.21800  0.77840  Biso   1.000  C
  C55      1.0000 0.52600  0.28200  0.27840  Biso   1.000  C
  C56      1.0000 0.47400  0.78200  0.22160  Biso   1.000  C
  H41      1.0000 0.36100  0.72220  0.70650  Biso   1.000  H
  H42      1.0000 0.63900  0.22220  0.79350  Biso   1.000  H
  H43      1.0000 0.63900  0.27780  0.29350  Biso   1.000  H
  H44      1.0000 0.36100  0.77780  0.20650  Biso   1.000  H
  C57      1.0000 0.56760  0.76920  0.75680  Biso   1.000  C
  C58      1.0000 0.43240  0.26920  0.74320  Biso   1.000  C
  C59      1.0000 0.43240  0.23080  0.24320  Biso   1.000  C
  C60      1.0000 0.56760  0.73080  0.25680  Biso   1.000  C
  H45      1.0000 0.51530  0.80820  0.76270  Biso   1.000  H
  H46      1.0000 0.48470  0.30820  0.73730  Biso   1.000  H
  H47      1.0000 0.48470  0.19180  0.23730  Biso   1.000  H
  H48      1.0000 0.51530  0.69180  0.26270  Biso   1.000  H
  C61      1.0000 0.46410  0.60430  0.66300  Biso   1.000  C
  C62      1.0000 0.53590  0.10430  0.83700  Biso   1.000  C
  C63      1.0000 0.53590  0.39570  0.33700  Biso   1.000  C
  C64      1.0000 0.46410  0.89570  0.16300  Biso   1.000  C
  C65      1.0000 0.53120  0.54260  0.67180  Biso   1.000  C
  C66      1.0000 0.46880  0.04260  0.82820  Biso   1.000  C
  C67      1.0000 0.46880  0.45740  0.32820  Biso   1.000  C
  C68      1.0000 0.53120  0.95740  0.17180  Biso   1.000  C
  H49      1.0000 0.62640  0.53530  0.71140  Biso   1.000  H
  H50      1.0000 0.37360  0.03530  0.78860  Biso   1.000  H
  H51      1.0000 0.37360  0.46470  0.28860  Biso   1.000  H
  H52      1.0000 0.62640  0.96470  0.21140  Biso   1.000  H
  C69      1.0000 0.45690  0.49270  0.62220  Biso   1.000  C
  C70      1.0000 0.54310  0.99270  0.87780  Biso   1.000  C
  C71      1.0000 0.54310  0.50730  0.37780  Biso   1.000  C
  C72      1.0000 0.45690  0.00730  0.12220  Biso   1.000  C
  H53      1.0000 0.50450  0.45230  0.62890  Biso   1.000  H
  H54      1.0000 0.49550  0.95230  0.87110  Biso   1.000  H
  H55      1.0000 0.49550  0.54770  0.37110  Biso   1.000  H
  H56      1.0000 0.50450  0.04770  0.12890  Biso   1.000  H
  C73      1.0000 0.24940  0.55840  0.55880  Biso   1.000  C
  C74      1.0000 0.75060  0.05840  0.94120  Biso   1.000  C
  C75      1.0000 0.75060  0.44160  0.44120  Biso   1.000  C
  C76      1.0000 0.24940  0.94160  0.05880  Biso   1.000  C
  H57      1.0000 0.15120  0.56390  0.52100  Biso   1.000  H
  H58      1.0000 0.84880  0.06390  0.97900  Biso   1.000  H
  H59      1.0000 0.84880  0.43610  0.47900  Biso   1.000  H
  H60      1.0000 0.15120  0.93610  0.02100  Biso   1.000  H
  C77      1.0000 0.31680  0.61080  0.60620  Biso   1.000  C
  C78      1.0000 0.68320  0.11080  0.89380  Biso   1.000  C
  C79      1.0000 0.68320  0.38920  0.39380  Biso   1.000  C
  C80      1.0000 0.31680  0.88920  0.10620  Biso   1.000  C
  H61      1.0000 0.26400  0.65030  0.60010  Biso   1.000  H
  H62      1.0000 0.73600  0.15030  0.89990  Biso   1.000  H
  H63      1.0000 0.73600  0.34970  0.39990  Biso   1.000  H
  H64      1.0000 0.26400  0.84970  0.10010  Biso   1.000  H
  O33      1.0000 0.10700  0.80000  0.76210  Biso   1.000  O
  O34      1.0000 0.89300  0.30000  0.73790  Biso   1.000  O
  O35      1.0000 0.89300  0.20000  0.23790  Biso   1.000  O
  O36      1.0000 0.10700  0.70000  0.26210  Biso   1.000  O
  H65      1.0000 0.06500  0.78520  0.71150  Biso   1.000  H
  H66      1.0000 0.93500  0.28520  0.78850  Biso   1.000  H
  H67      1.0000 0.93500  0.21480  0.28850  Biso   1.000  H
  H68      1.0000 0.06500  0.71480  0.21150  Biso   1.000  H
  H69      1.0000 0.16200  0.83560  0.76900  Biso   1.000  H
  H70      1.0000 0.83800  0.33560  0.73100  Biso   1.000  H
  H71      1.0000 0.83800  0.16440  0.23100  Biso   1.000  H
  H72      1.0000 0.16200  0.66440  0.26900  Biso   1.000  H
  O37      1.0000 0.27410  0.55520  0.12410  Biso   1.000  O
  O38      1.0000 0.72590  0.05520  0.37590  Biso   1.000  O
  O39      1.0000 0.72590  0.44480  0.87590  Biso   1.000  O
  O40      1.0000 0.27410  0.94480  0.62410  Biso   1.000  O
  H73      1.0000 0.24370  0.56340  0.17600  Biso   1.000  H
  H74      1.0000 0.75630  0.06340  0.32400  Biso   1.000  H
  H75      1.0000 0.75630  0.43660  0.82400  Biso   1.000  H
  H76      1.0000 0.24370  0.93660  0.67600  Biso   1.000  H
  H77      1.0000 0.34450  0.52590  0.13850  Biso   1.000  H
  H78      1.0000 0.65550  0.02590  0.36150  Biso   1.000  H
  H79      1.0000 0.65550  0.47410  0.86150  Biso   1.000  H
  H80      1.0000 0.34450  0.97410  0.63850  Biso   1.000  H
  O41      1.0000 0.25490  0.42700  0.06850  Biso   1.000  O
  O42      1.0000 0.74510  0.92700  0.43150  Biso   1.000  O
  O43      1.0000 0.74510  0.57300  0.93150  Biso   1.000  O
  O44      1.0000 0.25490  0.07300  0.56850  Biso   1.000  O
  H81      1.0000 0.25180  0.38970  0.04600  Biso   1.000  H
  H82      1.0000 0.74820  0.88970  0.45400  Biso   1.000  H
  H83      1.0000 0.74820  0.61030  0.95400  Biso   1.000  H
  H84      1.0000 0.25180  0.11030  0.54600  Biso   1.000  H
  H85      1.0000 0.15780  0.44140  0.06660  Biso   1.000  H
  H86      1.0000 0.84220  0.94140  0.43340  Biso   1.000  H
  H87      1.0000 0.84220  0.55860  0.93340  Biso   1.000  H
  H88      1.0000 0.15780  0.05860  0.56660  Biso   1.000  H
  O45      1.0000 0.95560  0.37540  0.98790  Biso   1.000  O
  O46      1.0000 0.04440  0.87540  0.51210  Biso   1.000  O
  O47      1.0000 0.04440  0.62460  0.01210  Biso   1.000  O
  O48      1.0000 0.95560  0.12460  0.48790  Biso   1.000  O
  H89      1.0000 0.99360  0.34850  0.95360  Biso   1.000  H
  H90      1.0000 0.00640  0.84850  0.54640  Biso   1.000  H
  H91      1.0000 0.00640  0.65150  0.04640  Biso   1.000  H
  H92      1.0000 0.99360  0.15150  0.45360  Biso   1.000  H
  H93      1.0000 0.87470  0.39530  0.95930  Biso   1.000  H
  H94      1.0000 0.12530  0.89530  0.54070  Biso   1.000  H
  H95      1.0000 0.12530  0.60470  0.04070  Biso   1.000  H
  H96      1.0000 0.87470  0.10470  0.45930  Biso   1.000  H
