data_image0
_cell_length_a       8.07
_cell_length_b       14.318
_cell_length_c       11.048
_cell_angle_alpha    90
_cell_angle_beta     90.68
_cell_angle_gamma    90

_symmetry_space_group_name_H-M    "P 1"
_symmetry_int_tables_number       1

loop_
  _symmetry_equiv_pos_as_xyz
  'x, y, z'

loop_
  _atom_site_label
  _atom_site_occupancy
  _atom_site_fract_x
  _atom_site_fract_y
  _atom_site_fract_z
  _atom_site_thermal_displace_type
  _atom_site_B_iso_or_equiv
  _atom_site_type_symbol
  Cu1      1.0000 0.00000  0.00000  0.50000  Biso   1.000  Cu
  Cu2      1.0000 0.50000  0.50000  0.00000  Biso   1.000  Cu
  P1       1.0000 0.17991  0.81266  0.45682  Biso   1.000  P
  P2       1.0000 0.32009  0.31266  0.04318  Biso   1.000  P
  P3       1.0000 0.82009  0.18734  0.54318  Biso   1.000  P
  P4       1.0000 0.67991  0.68734  0.95682  Biso   1.000  P
  O1       1.0000 0.13120  0.72174  0.38550  Biso   1.000  O
  O2       1.0000 0.36880  0.22174  0.11450  Biso   1.000  O
  O3       1.0000 0.86880  0.27826  0.61450  Biso   1.000  O
  O4       1.0000 0.63120  0.77826  0.88550  Biso   1.000  O
  H1       1.0000 0.03800  0.72000  0.36100  Biso   1.000  H
  H2       1.0000 0.46200  0.22000  0.13900  Biso   1.000  H
  H3       1.0000 0.96200  0.28000  0.63900  Biso   1.000  H
  H4       1.0000 0.53800  0.78000  0.86100  Biso   1.000  H
  O5       1.0000 0.02340  0.86355  0.48942  Biso   1.000  O
  O6       1.0000 0.47660  0.36355  0.01058  Biso   1.000  O
  O7       1.0000 0.97660  0.13645  0.51058  Biso   1.000  O
  O8       1.0000 0.52340  0.63645  0.98942  Biso   1.000  O
  O9       1.0000 0.30090  0.78765  0.55430  Biso   1.000  O
  O10      1.0000 0.19910  0.28765  0.94570  Biso   1.000  O
  O11      1.0000 0.69910  0.21235  0.44570  Biso   1.000  O
  O12      1.0000 0.80090  0.71235  0.05430  Biso   1.000  O
  O13      1.0000 0.29900  0.00373  0.47700  Biso   1.000  O
  O14      1.0000 0.20100  0.50373  0.02300  Biso   1.000  O
  O15      1.0000 0.70100  0.99627  0.52300  Biso   1.000  O
  O16      1.0000 0.79900  0.49627  0.97700  Biso   1.000  O
  N1       1.0000 0.34820  0.96618  0.37414  Biso   1.000  N
  N2       1.0000 0.15180  0.46618  0.12586  Biso   1.000  N
  N3       1.0000 0.65180  0.03382  0.62586  Biso   1.000  N
  N4       1.0000 0.84820  0.53382  0.87414  Biso   1.000  N
  N5       1.0000 0.02900  0.99246  0.68059  Biso   1.000  N
  N6       1.0000 0.47100  0.49246  0.81941  Biso   1.000  N
  N7       1.0000 0.97100  0.00754  0.31941  Biso   1.000  N
  N8       1.0000 0.52900  0.50754  0.18059  Biso   1.000  N
  C1       1.0000 0.29430  0.87907  0.34270  Biso   1.000  C
  C2       1.0000 0.20570  0.37907  0.15730  Biso   1.000  C
  C3       1.0000 0.70570  0.12093  0.65730  Biso   1.000  C
  C4       1.0000 0.79430  0.62093  0.84270  Biso   1.000  C
  C5       1.0000 0.33450  0.84470  0.22950  Biso   1.000  C
  C6       1.0000 0.16550  0.34470  0.27050  Biso   1.000  C
  C7       1.0000 0.66550  0.15530  0.77050  Biso   1.000  C
  C8       1.0000 0.83450  0.65530  0.72950  Biso   1.000  C
  H5       1.0000 0.29530  0.78650  0.20530  Biso   1.000  H
  H6       1.0000 0.20470  0.28650  0.29470  Biso   1.000  H
  H7       1.0000 0.70470  0.21350  0.79470  Biso   1.000  H
  H8       1.0000 0.79530  0.71350  0.70530  Biso   1.000  H
  C9       1.0000 0.43270  0.89640  0.15190  Biso   1.000  C
  C10      1.0000 0.06730  0.39640  0.34810  Biso   1.000  C
  C11      1.0000 0.56730  0.10360  0.84810  Biso   1.000  C
  C12      1.0000 0.93270  0.60360  0.65190  Biso   1.000  C
  H9       1.0000 0.45850  0.87360  0.07560  Biso   1.000  H
  H10      1.0000 0.04150  0.37360  0.42440  Biso   1.000  H
  H11      1.0000 0.54150  0.12640  0.92440  Biso   1.000  H
  H12      1.0000 0.95850  0.62640  0.57560  Biso   1.000  H
  C13      1.0000 0.49140  0.98200  0.18970  Biso   1.000  C
  C14      1.0000 0.00860  0.48200  0.31030  Biso   1.000  C
  C15      1.0000 0.50860  0.01800  0.81030  Biso   1.000  C
  C16      1.0000 0.99140  0.51800  0.68970  Biso   1.000  C
  H13      1.0000 0.55990  0.01670  0.13960  Biso   1.000  H
  H14      1.0000 0.94010  0.51670  0.36040  Biso   1.000  H
  H15      1.0000 0.44010  0.98330  0.86040  Biso   1.000  H
  H16      1.0000 0.05990  0.48330  0.63960  Biso   1.000  H
  C17      1.0000 0.44900  0.01610  0.30050  Biso   1.000  C
  C18      1.0000 0.05100  0.51610  0.19950  Biso   1.000  C
  C19      1.0000 0.55100  0.98390  0.69950  Biso   1.000  C
  C20      1.0000 0.94900  0.48390  0.80050  Biso   1.000  C
  H17      1.0000 0.48930  0.07380  0.32590  Biso   1.000  H
  H18      1.0000 0.01070  0.57380  0.17410  Biso   1.000  H
  H19      1.0000 0.51070  0.92620  0.67410  Biso   1.000  H
  H20      1.0000 0.98930  0.42620  0.82590  Biso   1.000  H
  C21      1.0000 0.95300  0.92466  0.74210  Biso   1.000  C
  C22      1.0000 0.54700  0.42466  0.75790  Biso   1.000  C
  C23      1.0000 0.04700  0.07534  0.25790  Biso   1.000  C
  C24      1.0000 0.45300  0.57534  0.24210  Biso   1.000  C
  H21      1.0000 0.90670  0.87510  0.69910  Biso   1.000  H
  H22      1.0000 0.59330  0.37510  0.80090  Biso   1.000  H
  H23      1.0000 0.09330  0.12490  0.30090  Biso   1.000  H
  H24      1.0000 0.40670  0.62490  0.19910  Biso   1.000  H
  C25      1.0000 0.94030  0.92497  0.86620  Biso   1.000  C
  C26      1.0000 0.55970  0.42497  0.63380  Biso   1.000  C
  C27      1.0000 0.05970  0.07503  0.13380  Biso   1.000  C
  C28      1.0000 0.44030  0.57503  0.36620  Biso   1.000  C
  H25      1.0000 0.88570  0.87660  0.90530  Biso   1.000  H
  H26      1.0000 0.61430  0.37660  0.59470  Biso   1.000  H
  H27      1.0000 0.11430  0.12340  0.09470  Biso   1.000  H
  H28      1.0000 0.38570  0.62340  0.40530  Biso   1.000  H
  C29      1.0000 0.00910  0.99762  0.93300  Biso   1.000  C
  C30      1.0000 0.49090  0.49762  0.56700  Biso   1.000  C
  C31      1.0000 0.99090  0.00238  0.06700  Biso   1.000  C
  C32      1.0000 0.50910  0.50238  0.43300  Biso   1.000  C
  C33      1.0000 0.09340  0.06603  0.86930  Biso   1.000  C
  C34      1.0000 0.40660  0.56603  0.63070  Biso   1.000  C
  C35      1.0000 0.90660  0.93397  0.13070  Biso   1.000  C
  C36      1.0000 0.59340  0.43397  0.36930  Biso   1.000  C
  H29      1.0000 0.14490  0.11490  0.91040  Biso   1.000  H
  H30      1.0000 0.35510  0.61490  0.58960  Biso   1.000  H
  H31      1.0000 0.85510  0.88510  0.08960  Biso   1.000  H
  H32      1.0000 0.64490  0.38510  0.41040  Biso   1.000  H
  C37      1.0000 0.10060  0.06121  0.74470  Biso   1.000  C
  C38      1.0000 0.39940  0.56121  0.75530  Biso   1.000  C
  C39      1.0000 0.89940  0.93879  0.25530  Biso   1.000  C
  C40      1.0000 0.60060  0.43879  0.24470  Biso   1.000  C
  H33      1.0000 0.15750  0.10770  0.70350  Biso   1.000  H
  H34      1.0000 0.34250  0.60770  0.79650  Biso   1.000  H
  H35      1.0000 0.84250  0.89230  0.29650  Biso   1.000  H
  H36      1.0000 0.65750  0.39230  0.20350  Biso   1.000  H
  O17      1.0000 0.64360  0.79312  0.48490  Biso   1.000  O
  O18      1.0000 0.85640  0.29312  0.01510  Biso   1.000  O
  O19      1.0000 0.35640  0.20688  0.51510  Biso   1.000  O
  O20      1.0000 0.14360  0.70688  0.98490  Biso   1.000  O
  H37      1.0000 0.54300  0.78100  0.50300  Biso   1.000  H
  H38      1.0000 0.95700  0.28100  0.99700  Biso   1.000  H
  H39      1.0000 0.45700  0.21900  0.49700  Biso   1.000  H
  H40      1.0000 0.04300  0.71900  0.00300  Biso   1.000  H
  H41      1.0000 0.69300  0.84440  0.49800  Biso   1.000  H
  H42      1.0000 0.80700  0.34440  0.00200  Biso   1.000  H
  H43      1.0000 0.30700  0.15560  0.50200  Biso   1.000  H
  H44      1.0000 0.19300  0.65560  0.99800  Biso   1.000  H
  O21      1.0000 0.82910  0.69904  0.30840  Biso   1.000  O
  O22      1.0000 0.67090  0.19904  0.19160  Biso   1.000  O
  O23      1.0000 0.17090  0.30096  0.69160  Biso   1.000  O
  O24      1.0000 0.32910  0.80096  0.80840  Biso   1.000  O
  H45      1.0000 0.81100  0.70300  0.23190  Biso   1.000  H
  H46      1.0000 0.68900  0.20300  0.26810  Biso   1.000  H
  H47      1.0000 0.18900  0.29700  0.76810  Biso   1.000  H
  H48      1.0000 0.31100  0.79700  0.73190  Biso   1.000  H
  H49      1.0000 0.76700  0.72600  0.36000  Biso   1.000  H
  H50      1.0000 0.73300  0.22600  0.14000  Biso   1.000  H
  H51      1.0000 0.23300  0.27400  0.64000  Biso   1.000  H
  H52      1.0000 0.26700  0.77400  0.86000  Biso   1.000  H
