data_image0
_cell_length_a       8.3873
_cell_length_b       8.1525
_cell_length_c       20.3631
_cell_angle_alpha    90
_cell_angle_beta     101.533
_cell_angle_gamma    90

_symmetry_space_group_name_H-M    "P 1"
_symmetry_int_tables_number       1

loop_
  _symmetry_equiv_pos_as_xyz
  'x, y, z'

loop_
  _atom_site_label
  _atom_site_occupancy
  _atom_site_fract_x
  _atom_site_fract_y
  _atom_site_fract_z
  _atom_site_thermal_displace_type
  _atom_site_B_iso_or_equiv
  _atom_site_type_symbol
  Cu1      1.0000 0.42250  0.05607  0.32668  Biso   1.000  Cu
  Cu2      1.0000 0.57750  0.55607  0.17332  Biso   1.000  Cu
  Cu3      1.0000 0.57750  0.94393  0.67332  Biso   1.000  Cu
  Cu4      1.0000 0.42250  0.44393  0.82668  Biso   1.000  Cu
  N1       1.0000 0.26870  0.02070  0.23954  Biso   1.000  N
  N2       1.0000 0.73130  0.52070  0.26046  Biso   1.000  N
  N3       1.0000 0.73130  0.97930  0.76046  Biso   1.000  N
  N4       1.0000 0.26870  0.47930  0.73954  Biso   1.000  N
  O1       1.0000 0.48520  0.31340  0.16492  Biso   1.000  O
  O2       1.0000 0.51480  0.81340  0.33508  Biso   1.000  O
  O3       1.0000 0.51480  0.68660  0.83508  Biso   1.000  O
  O4       1.0000 0.48520  0.18660  0.66492  Biso   1.000  O
  O5       1.0000 0.25160  0.12420  0.37567  Biso   1.000  O
  O6       1.0000 0.74840  0.62420  0.12433  Biso   1.000  O
  O7       1.0000 0.74840  0.87580  0.62433  Biso   1.000  O
  O8       1.0000 0.25160  0.37580  0.87567  Biso   1.000  O
  N5       1.0000 0.57070  0.12510  0.41135  Biso   1.000  N
  N6       1.0000 0.42930  0.62510  0.08865  Biso   1.000  N
  N7       1.0000 0.42930  0.87490  0.58865  Biso   1.000  N
  N8       1.0000 0.57070  0.37490  0.91135  Biso   1.000  N
  O9       1.0000 0.53190  0.20490  0.26757  Biso   1.000  O
  O10      1.0000 0.46810  0.70490  0.23243  Biso   1.000  O
  O11      1.0000 0.46810  0.79510  0.73243  Biso   1.000  O
  O12      1.0000 0.53190  0.29510  0.76757  Biso   1.000  O
  C1       1.0000 0.56360  0.25890  0.51477  Biso   1.000  C
  C2       1.0000 0.43640  0.75890  0.98523  Biso   1.000  C
  C3       1.0000 0.43640  0.74110  0.48523  Biso   1.000  C
  C4       1.0000 0.56360  0.24110  0.01477  Biso   1.000  C
  H1       1.0000 0.50380  0.30500  0.54390  Biso   1.000  H
  H2       1.0000 0.49620  0.80500  0.95610  Biso   1.000  H
  H3       1.0000 0.49620  0.69500  0.45610  Biso   1.000  H
  H4       1.0000 0.50380  0.19500  0.04390  Biso   1.000  H
  C5       1.0000 0.13820  0.92000  0.22791  Biso   1.000  C
  C6       1.0000 0.86180  0.42000  0.27209  Biso   1.000  C
  C7       1.0000 0.86180  0.08000  0.77209  Biso   1.000  C
  C8       1.0000 0.13820  0.58000  0.72791  Biso   1.000  C
  O13      1.0000 0.21890  0.24490  0.46996  Biso   1.000  O
  O14      1.0000 0.78110  0.74490  0.03004  Biso   1.000  O
  O15      1.0000 0.78110  0.75510  0.53004  Biso   1.000  O
  O16      1.0000 0.21890  0.25510  0.96996  Biso   1.000  O
  C9       1.0000 0.30840  0.10690  0.18849  Biso   1.000  C
  C10      1.0000 0.69160  0.60690  0.31151  Biso   1.000  C
  C11      1.0000 0.69160  0.89310  0.81151  Biso   1.000  C
  C12      1.0000 0.30840  0.39310  0.68849  Biso   1.000  C
  C13      1.0000 0.04380  0.90820  0.16383  Biso   1.000  C
  C14      1.0000 0.95620  0.40820  0.33617  Biso   1.000  C
  C15      1.0000 0.95620  0.09180  0.83617  Biso   1.000  C
  C16      1.0000 0.04380  0.59180  0.66383  Biso   1.000  C
  H5       1.0000 0.95160  0.84210  0.15600  Biso   1.000  H
  H6       1.0000 0.04840  0.34210  0.34400  Biso   1.000  H
  H7       1.0000 0.04840  0.15790  0.84400  Biso   1.000  H
  H8       1.0000 0.95160  0.65790  0.65600  Biso   1.000  H
  C17      1.0000 0.73250  0.25540  0.53066  Biso   1.000  C
  C18      1.0000 0.26750  0.75540  0.96934  Biso   1.000  C
  C19      1.0000 0.26750  0.74460  0.46934  Biso   1.000  C
  C20      1.0000 0.73250  0.24460  0.03066  Biso   1.000  C
  H9       1.0000 0.78790  0.29940  0.57100  Biso   1.000  H
  H10      1.0000 0.21210  0.79940  0.92900  Biso   1.000  H
  H11      1.0000 0.21210  0.70060  0.42900  Biso   1.000  H
  H12      1.0000 0.78790  0.20060  0.07100  Biso   1.000  H
  C21      1.0000 0.45420  0.21750  0.20883  Biso   1.000  C
  C22      1.0000 0.54580  0.71750  0.29117  Biso   1.000  C
  C23      1.0000 0.54580  0.78250  0.79117  Biso   1.000  C
  C24      1.0000 0.45420  0.28250  0.70883  Biso   1.000  C
  C25      1.0000 0.08660  0.99450  0.11156  Biso   1.000  C
  C26      1.0000 0.91340  0.49450  0.38844  Biso   1.000  C
  C27      1.0000 0.91340  0.00550  0.88844  Biso   1.000  C
  C28      1.0000 0.08660  0.50550  0.61156  Biso   1.000  C
  H13      1.0000 0.02510  0.98450  0.06840  Biso   1.000  H
  H14      1.0000 0.97490  0.48450  0.43160  Biso   1.000  H
  H15      1.0000 0.97490  0.01550  0.93160  Biso   1.000  H
  H16      1.0000 0.02510  0.51550  0.56840  Biso   1.000  H
  C29      1.0000 0.82470  0.04160  0.37938  Biso   1.000  C
  C30      1.0000 0.17530  0.54160  0.12062  Biso   1.000  C
  C31      1.0000 0.17530  0.95840  0.62062  Biso   1.000  C
  C32      1.0000 0.82470  0.45840  0.87938  Biso   1.000  C
  H17      1.0000 0.81660  0.92450  0.38250  Biso   1.000  H
  H18      1.0000 0.18340  0.42450  0.11750  Biso   1.000  H
  H19      1.0000 0.18340  0.07550  0.61750  Biso   1.000  H
  H20      1.0000 0.81660  0.57550  0.88250  Biso   1.000  H
  H21      1.0000 0.93710  0.07350  0.39040  Biso   1.000  H
  H22      1.0000 0.06290  0.57350  0.10960  Biso   1.000  H
  H23      1.0000 0.06290  0.92650  0.60960  Biso   1.000  H
  H24      1.0000 0.93710  0.42650  0.89040  Biso   1.000  H
  H25      1.0000 0.77850  0.07610  0.33450  Biso   1.000  H
  H26      1.0000 0.22150  0.57610  0.16550  Biso   1.000  H
  H27      1.0000 0.22150  0.92390  0.66550  Biso   1.000  H
  H28      1.0000 0.77850  0.42390  0.83450  Biso   1.000  H
  C33      1.0000 0.73470  0.12000  0.42697  Biso   1.000  C
  C34      1.0000 0.26530  0.62000  0.07303  Biso   1.000  C
  C35      1.0000 0.26530  0.88000  0.57303  Biso   1.000  C
  C36      1.0000 0.73470  0.38000  0.92697  Biso   1.000  C
  C37      1.0000 0.81630  0.18740  0.48683  Biso   1.000  C
  C38      1.0000 0.18370  0.68740  0.01317  Biso   1.000  C
  C39      1.0000 0.18370  0.81260  0.51317  Biso   1.000  C
  C40      1.0000 0.81630  0.31260  0.98683  Biso   1.000  C
  H29      1.0000 0.92940  0.18600  0.49710  Biso   1.000  H
  H30      1.0000 0.07060  0.68600  0.00290  Biso   1.000  H
  H31      1.0000 0.07060  0.81400  0.50290  Biso   1.000  H
  H32      1.0000 0.92940  0.31400  0.99710  Biso   1.000  H
  C41      1.0000 0.22110  0.09550  0.12392  Biso   1.000  C
  C42      1.0000 0.77890  0.59550  0.37608  Biso   1.000  C
  C43      1.0000 0.77890  0.90450  0.87608  Biso   1.000  C
  C44      1.0000 0.22110  0.40450  0.62392  Biso   1.000  C
  H33      1.0000 0.25210  0.15450  0.08940  Biso   1.000  H
  H34      1.0000 0.74790  0.65450  0.41060  Biso   1.000  H
  H35      1.0000 0.74790  0.84550  0.91060  Biso   1.000  H
  H36      1.0000 0.25210  0.34550  0.58940  Biso   1.000  H
  C45      1.0000 0.48760  0.19220  0.45476  Biso   1.000  C
  C46      1.0000 0.51240  0.69220  0.04524  Biso   1.000  C
  C47      1.0000 0.51240  0.80780  0.54524  Biso   1.000  C
  C48      1.0000 0.48760  0.30780  0.95476  Biso   1.000  C
  C49      1.0000 0.30400  0.18740  0.43299  Biso   1.000  C
  C50      1.0000 0.69600  0.68740  0.06701  Biso   1.000  C
  C51      1.0000 0.69600  0.81260  0.56701  Biso   1.000  C
  C52      1.0000 0.30400  0.31260  0.93299  Biso   1.000  C
  C53      1.0000 0.10140  0.82170  0.28433  Biso   1.000  C
  C54      1.0000 0.89860  0.32170  0.21567  Biso   1.000  C
  C55      1.0000 0.89860  0.17830  0.71567  Biso   1.000  C
  C56      1.0000 0.10140  0.67830  0.78433  Biso   1.000  C
  H37      1.0000 0.17510  0.73050  0.29290  Biso   1.000  H
  H38      1.0000 0.82490  0.23050  0.20710  Biso   1.000  H
  H39      1.0000 0.82490  0.26950  0.70710  Biso   1.000  H
  H40      1.0000 0.17510  0.76950  0.79290  Biso   1.000  H
  H41      1.0000 0.99160  0.78170  0.27290  Biso   1.000  H
  H42      1.0000 0.00840  0.28170  0.22710  Biso   1.000  H
  H43      1.0000 0.00840  0.21830  0.72710  Biso   1.000  H
  H44      1.0000 0.99160  0.71830  0.77290  Biso   1.000  H
  H45      1.0000 0.11360  0.88900  0.32370  Biso   1.000  H
  H46      1.0000 0.88640  0.38900  0.17630  Biso   1.000  H
  H47      1.0000 0.88640  0.11100  0.67630  Biso   1.000  H
  H48      1.0000 0.11360  0.61100  0.82370  Biso   1.000  H
