data_image0
_cell_length_a       6.8678
_cell_length_b       10.3459
_cell_length_c       10.6329
_cell_angle_alpha    90
_cell_angle_beta     90
_cell_angle_gamma    90

_symmetry_space_group_name_H-M    "P 1"
_symmetry_int_tables_number       1

loop_
  _symmetry_equiv_pos_as_xyz
  'x, y, z'

loop_
  _atom_site_label
  _atom_site_occupancy
  _atom_site_fract_x
  _atom_site_fract_y
  _atom_site_fract_z
  _atom_site_thermal_displace_type
  _atom_site_B_iso_or_equiv
  _atom_site_type_symbol
  Cu1      1.0000 0.24322  0.45075  0.26344  Biso   1.000  Cu
  Cu2      1.0000 0.25678  0.54925  0.76344  Biso   1.000  Cu
  Cu3      1.0000 0.75678  0.95075  0.23656  Biso   1.000  Cu
  Cu4      1.0000 0.74322  0.04925  0.73656  Biso   1.000  Cu
  O1       1.0000 0.19000  0.28740  0.17780  Biso   1.000  O
  O2       1.0000 0.31000  0.71260  0.67780  Biso   1.000  O
  O3       1.0000 0.81000  0.78740  0.32220  Biso   1.000  O
  O4       1.0000 0.69000  0.21260  0.82220  Biso   1.000  O
  O5       1.0000 0.12720  0.17910  0.00260  Biso   1.000  O
  O6       1.0000 0.37280  0.82090  0.50260  Biso   1.000  O
  O7       1.0000 0.87280  0.67910  0.49740  Biso   1.000  O
  O8       1.0000 0.62720  0.32090  0.99740  Biso   1.000  O
  O9       1.0000 0.24810  0.50580  0.04290  Biso   1.000  O
  O10      1.0000 0.25190  0.49420  0.54290  Biso   1.000  O
  O11      1.0000 0.75190  0.00580  0.45710  Biso   1.000  O
  O12      1.0000 0.74810  0.99420  0.95710  Biso   1.000  O
  O13      1.0000 0.20650  0.39420  0.86410  Biso   1.000  O
  O14      1.0000 0.29350  0.60580  0.36410  Biso   1.000  O
  O15      1.0000 0.79350  0.89420  0.63590  Biso   1.000  O
  O16      1.0000 0.70650  0.10580  0.13590  Biso   1.000  O
  N1       1.0000 0.94990  0.47040  0.29810  Biso   1.000  N
  N2       1.0000 0.55010  0.52960  0.79810  Biso   1.000  N
  N3       1.0000 0.05010  0.97040  0.20190  Biso   1.000  N
  N4       1.0000 0.44990  0.02960  0.70190  Biso   1.000  N
  N5       1.0000 0.53490  0.41790  0.24730  Biso   1.000  N
  N6       1.0000 0.96510  0.58210  0.74730  Biso   1.000  N
  N7       1.0000 0.46510  0.91790  0.25270  Biso   1.000  N
  N8       1.0000 0.03490  0.08210  0.75270  Biso   1.000  N
  C1       1.0000 0.17450  0.27830  0.05980  Biso   1.000  C
  C2       1.0000 0.32550  0.72170  0.55980  Biso   1.000  C
  C3       1.0000 0.82550  0.77830  0.44020  Biso   1.000  C
  C4       1.0000 0.67450  0.22170  0.94020  Biso   1.000  C
  C5       1.0000 0.21740  0.40530  0.98310  Biso   1.000  C
  C6       1.0000 0.28260  0.59470  0.48310  Biso   1.000  C
  C7       1.0000 0.78260  0.90530  0.51690  Biso   1.000  C
  C8       1.0000 0.71740  0.09470  0.01690  Biso   1.000  C
  C9       1.0000 0.85310  0.35110  0.34350  Biso   1.000  C
  C10      1.0000 0.64690  0.64890  0.84350  Biso   1.000  C
  C11      1.0000 0.14690  0.85110  0.15650  Biso   1.000  C
  C12      1.0000 0.35310  0.14890  0.65650  Biso   1.000  C
  H1       1.0000 0.91230  0.32450  0.42430  Biso   1.000  H
  H2       1.0000 0.58770  0.67550  0.92430  Biso   1.000  H
  H3       1.0000 0.08770  0.82450  0.07570  Biso   1.000  H
  H4       1.0000 0.41230  0.17550  0.57570  Biso   1.000  H
  H5       1.0000 0.87450  0.28070  0.28190  Biso   1.000  H
  H6       1.0000 0.62550  0.71930  0.78190  Biso   1.000  H
  H7       1.0000 0.12550  0.78070  0.21810  Biso   1.000  H
  H8       1.0000 0.37450  0.21930  0.71810  Biso   1.000  H
  C13      1.0000 0.85330  0.51680  0.18260  Biso   1.000  C
  C14      1.0000 0.64670  0.48320  0.68260  Biso   1.000  C
  C15      1.0000 0.14670  0.01680  0.31740  Biso   1.000  C
  C16      1.0000 0.35330  0.98320  0.81740  Biso   1.000  C
  H9       1.0000 0.87440  0.45330  0.11430  Biso   1.000  H
  H10      1.0000 0.62560  0.54670  0.61430  Biso   1.000  H
  H11      1.0000 0.12560  0.95330  0.38570  Biso   1.000  H
  H12      1.0000 0.37440  0.04670  0.88570  Biso   1.000  H
  H13      1.0000 0.91320  0.59960  0.15640  Biso   1.000  H
  H14      1.0000 0.58680  0.40040  0.65640  Biso   1.000  H
  H15      1.0000 0.08680  0.09960  0.34360  Biso   1.000  H
  H16      1.0000 0.41320  0.90040  0.84360  Biso   1.000  H
  C17      1.0000 0.63420  0.53670  0.20140  Biso   1.000  C
  C18      1.0000 0.86580  0.46330  0.70140  Biso   1.000  C
  C19      1.0000 0.36580  0.03670  0.29860  Biso   1.000  C
  C20      1.0000 0.13420  0.96330  0.79860  Biso   1.000  C
  H17      1.0000 0.61330  0.60740  0.26280  Biso   1.000  H
  H18      1.0000 0.88670  0.39260  0.76280  Biso   1.000  H
  H19      1.0000 0.38670  0.10740  0.23720  Biso   1.000  H
  H20      1.0000 0.11330  0.89260  0.73720  Biso   1.000  H
  H21      1.0000 0.57500  0.56350  0.12060  Biso   1.000  H
  H22      1.0000 0.92500  0.43650  0.62060  Biso   1.000  H
  H23      1.0000 0.42500  0.06350  0.37940  Biso   1.000  H
  H24      1.0000 0.07500  0.93650  0.87940  Biso   1.000  H
  C21      1.0000 0.63410  0.37140  0.36180  Biso   1.000  C
  C22      1.0000 0.86590  0.62860  0.86180  Biso   1.000  C
  C23      1.0000 0.36590  0.87140  0.13820  Biso   1.000  C
  C24      1.0000 0.13410  0.12860  0.63820  Biso   1.000  C
  H25      1.0000 0.57440  0.28860  0.38820  Biso   1.000  H
  H26      1.0000 0.92560  0.71140  0.88820  Biso   1.000  H
  H27      1.0000 0.42560  0.78860  0.11180  Biso   1.000  H
  H28      1.0000 0.07440  0.21140  0.61180  Biso   1.000  H
  H29      1.0000 0.61350  0.43480  0.43030  Biso   1.000  H
  H30      1.0000 0.88650  0.56520  0.93030  Biso   1.000  H
  H31      1.0000 0.38650  0.93480  0.06970  Biso   1.000  H
  H32      1.0000 0.11350  0.06520  0.56970  Biso   1.000  H
  H33      1.0000 0.57100  0.37200  0.19900  Biso   1.000  H
  H34      1.0000 0.92900  0.62800  0.69900  Biso   1.000  H
  H35      1.0000 0.42900  0.87200  0.30100  Biso   1.000  H
  H36      1.0000 0.07100  0.12800  0.80100  Biso   1.000  H
  H37      1.0000 0.93500  0.52000  0.34000  Biso   1.000  H
  H38      1.0000 0.56500  0.48000  0.84000  Biso   1.000  H
  H39      1.0000 0.06500  0.02000  0.16000  Biso   1.000  H
  H40      1.0000 0.43500  0.98000  0.66000  Biso   1.000  H
