data_image0
_cell_length_a       35.49
_cell_length_b       35.49
_cell_length_c       35.49
_cell_angle_alpha    90
_cell_angle_beta     90
_cell_angle_gamma    90

_symmetry_space_group_name_H-M    "P 1"
_symmetry_int_tables_number       1

loop_
  _symmetry_equiv_pos_as_xyz
  'x, y, z'

loop_
  _atom_site_label
  _atom_site_occupancy
  _atom_site_fract_x
  _atom_site_fract_y
  _atom_site_fract_z
  _atom_site_thermal_displace_type
  _atom_site_B_iso_or_equiv
  _atom_site_type_symbol
  Cu1      1.0000 0.50000  0.00000  0.21279  Biso   1.000  Cu
  Cu2      1.0000 0.50000  0.00000  0.78721  Biso   1.000  Cu
  Cu3      1.0000 0.21279  0.50000  0.00000  Biso   1.000  Cu
  Cu4      1.0000 0.78721  0.50000  0.00000  Biso   1.000  Cu
  Cu5      1.0000 0.00000  0.21279  0.50000  Biso   1.000  Cu
  Cu6      1.0000 0.00000  0.78721  0.50000  Biso   1.000  Cu
  Cu7      1.0000 0.50000  0.00000  0.28721  Biso   1.000  Cu
  Cu8      1.0000 0.50000  0.00000  0.71279  Biso   1.000  Cu
  Cu9      1.0000 0.00000  0.71279  0.50000  Biso   1.000  Cu
  Cu10     1.0000 0.00000  0.28721  0.50000  Biso   1.000  Cu
  Cu11     1.0000 0.71279  0.50000  0.00000  Biso   1.000  Cu
  Cu12     1.0000 0.28721  0.50000  0.00000  Biso   1.000  Cu
  N1       1.0000 0.25000  0.25000  0.25000  Biso   1.000  N
  N2       1.0000 0.75000  0.75000  0.25000  Biso   1.000  N
  N3       1.0000 0.75000  0.25000  0.75000  Biso   1.000  N
  N4       1.0000 0.25000  0.75000  0.75000  Biso   1.000  N
  N5       1.0000 0.75000  0.75000  0.75000  Biso   1.000  N
  N6       1.0000 0.25000  0.25000  0.75000  Biso   1.000  N
  N7       1.0000 0.25000  0.75000  0.25000  Biso   1.000  N
  N8       1.0000 0.75000  0.25000  0.25000  Biso   1.000  N
  O1       1.0000 0.50000  0.00000  0.14745  Biso   1.000  O
  O2       1.0000 0.50000  0.00000  0.85255  Biso   1.000  O
  O3       1.0000 0.14745  0.50000  0.00000  Biso   1.000  O
  O4       1.0000 0.85255  0.50000  0.00000  Biso   1.000  O
  O5       1.0000 0.00000  0.14745  0.50000  Biso   1.000  O
  O6       1.0000 0.00000  0.85255  0.50000  Biso   1.000  O
  O7       1.0000 0.50000  0.00000  0.35255  Biso   1.000  O
  O8       1.0000 0.50000  0.00000  0.64745  Biso   1.000  O
  O9       1.0000 0.00000  0.64745  0.50000  Biso   1.000  O
  O10      1.0000 0.00000  0.35255  0.50000  Biso   1.000  O
  O11      1.0000 0.64745  0.50000  0.00000  Biso   1.000  O
  O12      1.0000 0.35255  0.50000  0.00000  Biso   1.000  O
  O13      1.0000 0.46254  0.03746  0.21922  Biso   1.000  O
  O14      1.0000 0.53746  0.96254  0.21922  Biso   1.000  O
  O15      1.0000 0.53746  0.03746  0.78078  Biso   1.000  O
  O16      1.0000 0.46254  0.96254  0.78078  Biso   1.000  O
  O17      1.0000 0.21922  0.46254  0.03746  Biso   1.000  O
  O18      1.0000 0.21922  0.53746  0.96254  Biso   1.000  O
  O19      1.0000 0.78078  0.53746  0.03746  Biso   1.000  O
  O20      1.0000 0.78078  0.46254  0.96254  Biso   1.000  O
  O21      1.0000 0.03746  0.21922  0.46254  Biso   1.000  O
  O22      1.0000 0.96254  0.21922  0.53746  Biso   1.000  O
  O23      1.0000 0.03746  0.78078  0.53746  Biso   1.000  O
  O24      1.0000 0.96254  0.78078  0.46254  Biso   1.000  O
  O25      1.0000 0.53746  0.96254  0.28078  Biso   1.000  O
  O26      1.0000 0.46254  0.03746  0.28078  Biso   1.000  O
  O27      1.0000 0.53746  0.03746  0.71922  Biso   1.000  O
  O28      1.0000 0.46254  0.96254  0.71922  Biso   1.000  O
  O29      1.0000 0.96254  0.71922  0.46254  Biso   1.000  O
  O30      1.0000 0.03746  0.71922  0.53746  Biso   1.000  O
  O31      1.0000 0.03746  0.28078  0.46254  Biso   1.000  O
  O32      1.0000 0.96254  0.28078  0.53746  Biso   1.000  O
  O33      1.0000 0.71922  0.53746  0.03746  Biso   1.000  O
  O34      1.0000 0.71922  0.46254  0.96254  Biso   1.000  O
  O35      1.0000 0.28078  0.53746  0.96254  Biso   1.000  O
  O36      1.0000 0.28078  0.46254  0.03746  Biso   1.000  O
  O37      1.0000 0.53746  0.96254  0.78078  Biso   1.000  O
  O38      1.0000 0.46254  0.03746  0.78078  Biso   1.000  O
  O39      1.0000 0.46254  0.96254  0.21922  Biso   1.000  O
  O40      1.0000 0.53746  0.03746  0.21922  Biso   1.000  O
  O41      1.0000 0.78078  0.53746  0.96254  Biso   1.000  O
  O42      1.0000 0.78078  0.46254  0.03746  Biso   1.000  O
  O43      1.0000 0.21922  0.46254  0.96254  Biso   1.000  O
  O44      1.0000 0.21922  0.53746  0.03746  Biso   1.000  O
  O45      1.0000 0.96254  0.78078  0.53746  Biso   1.000  O
  O46      1.0000 0.03746  0.78078  0.46254  Biso   1.000  O
  O47      1.0000 0.96254  0.21922  0.46254  Biso   1.000  O
  O48      1.0000 0.03746  0.21922  0.53746  Biso   1.000  O
  O49      1.0000 0.46254  0.03746  0.71922  Biso   1.000  O
  O50      1.0000 0.53746  0.96254  0.71922  Biso   1.000  O
  O51      1.0000 0.46254  0.96254  0.28078  Biso   1.000  O
  O52      1.0000 0.53746  0.03746  0.28078  Biso   1.000  O
  O53      1.0000 0.03746  0.28078  0.53746  Biso   1.000  O
  O54      1.0000 0.96254  0.28078  0.46254  Biso   1.000  O
  O55      1.0000 0.96254  0.71922  0.53746  Biso   1.000  O
  O56      1.0000 0.03746  0.71922  0.46254  Biso   1.000  O
  O57      1.0000 0.28078  0.46254  0.96254  Biso   1.000  O
  O58      1.0000 0.28078  0.53746  0.03746  Biso   1.000  O
  O59      1.0000 0.71922  0.46254  0.03746  Biso   1.000  O
  O60      1.0000 0.71922  0.53746  0.96254  Biso   1.000  O
  C1       1.0000 0.44920  0.05080  0.25000  Biso   1.000  C
  C2       1.0000 0.55080  0.94920  0.25000  Biso   1.000  C
  C3       1.0000 0.55080  0.05080  0.75000  Biso   1.000  C
  C4       1.0000 0.44920  0.94920  0.75000  Biso   1.000  C
  C5       1.0000 0.25000  0.44920  0.05080  Biso   1.000  C
  C6       1.0000 0.25000  0.55080  0.94920  Biso   1.000  C
  C7       1.0000 0.75000  0.55080  0.05080  Biso   1.000  C
  C8       1.0000 0.75000  0.44920  0.94920  Biso   1.000  C
  C9       1.0000 0.05080  0.25000  0.44920  Biso   1.000  C
  C10      1.0000 0.94920  0.25000  0.55080  Biso   1.000  C
  C11      1.0000 0.05080  0.75000  0.55080  Biso   1.000  C
  C12      1.0000 0.94920  0.75000  0.44920  Biso   1.000  C
  C13      1.0000 0.55080  0.94920  0.75000  Biso   1.000  C
  C14      1.0000 0.44920  0.05080  0.75000  Biso   1.000  C
  C15      1.0000 0.44920  0.94920  0.25000  Biso   1.000  C
  C16      1.0000 0.55080  0.05080  0.25000  Biso   1.000  C
  C17      1.0000 0.75000  0.55080  0.94920  Biso   1.000  C
  C18      1.0000 0.75000  0.44920  0.05080  Biso   1.000  C
  C19      1.0000 0.25000  0.44920  0.94920  Biso   1.000  C
  C20      1.0000 0.25000  0.55080  0.05080  Biso   1.000  C
  C21      1.0000 0.94920  0.75000  0.55080  Biso   1.000  C
  C22      1.0000 0.05080  0.75000  0.44920  Biso   1.000  C
  C23      1.0000 0.94920  0.25000  0.44920  Biso   1.000  C
  C24      1.0000 0.05080  0.25000  0.55080  Biso   1.000  C
  C25      1.0000 0.42100  0.07900  0.25000  Biso   1.000  C
  C26      1.0000 0.57900  0.92100  0.25000  Biso   1.000  C
  C27      1.0000 0.57900  0.07900  0.75000  Biso   1.000  C
  C28      1.0000 0.42100  0.92100  0.75000  Biso   1.000  C
  C29      1.0000 0.25000  0.42100  0.07900  Biso   1.000  C
  C30      1.0000 0.25000  0.57900  0.92100  Biso   1.000  C
  C31      1.0000 0.75000  0.57900  0.07900  Biso   1.000  C
  C32      1.0000 0.75000  0.42100  0.92100  Biso   1.000  C
  C33      1.0000 0.07900  0.25000  0.42100  Biso   1.000  C
  C34      1.0000 0.92100  0.25000  0.57900  Biso   1.000  C
  C35      1.0000 0.07900  0.75000  0.57900  Biso   1.000  C
  C36      1.0000 0.92100  0.75000  0.42100  Biso   1.000  C
  C37      1.0000 0.57900  0.92100  0.75000  Biso   1.000  C
  C38      1.0000 0.42100  0.07900  0.75000  Biso   1.000  C
  C39      1.0000 0.42100  0.92100  0.25000  Biso   1.000  C
  C40      1.0000 0.57900  0.07900  0.25000  Biso   1.000  C
  C41      1.0000 0.75000  0.57900  0.92100  Biso   1.000  C
  C42      1.0000 0.75000  0.42100  0.07900  Biso   1.000  C
  C43      1.0000 0.25000  0.42100  0.92100  Biso   1.000  C
  C44      1.0000 0.25000  0.57900  0.07900  Biso   1.000  C
  C45      1.0000 0.92100  0.75000  0.57900  Biso   1.000  C
  C46      1.0000 0.07900  0.75000  0.42100  Biso   1.000  C
  C47      1.0000 0.92100  0.25000  0.42100  Biso   1.000  C
  C48      1.0000 0.07900  0.25000  0.57900  Biso   1.000  C
  C49      1.0000 0.40670  0.09510  0.21810  Biso   1.000  C
  C50      1.0000 0.59330  0.90490  0.21810  Biso   1.000  C
  C51      1.0000 0.59330  0.09510  0.78190  Biso   1.000  C
  C52      1.0000 0.40670  0.90490  0.78190  Biso   1.000  C
  C53      1.0000 0.21810  0.40670  0.09510  Biso   1.000  C
  C54      1.0000 0.21810  0.59330  0.90490  Biso   1.000  C
  C55      1.0000 0.78190  0.59330  0.09510  Biso   1.000  C
  C56      1.0000 0.78190  0.40670  0.90490  Biso   1.000  C
  C57      1.0000 0.09510  0.21810  0.40670  Biso   1.000  C
  C58      1.0000 0.90490  0.21810  0.59330  Biso   1.000  C
  C59      1.0000 0.09510  0.78190  0.59330  Biso   1.000  C
  C60      1.0000 0.90490  0.78190  0.40670  Biso   1.000  C
  C61      1.0000 0.59510  0.90670  0.28190  Biso   1.000  C
  C62      1.0000 0.40490  0.09330  0.28190  Biso   1.000  C
  C63      1.0000 0.59510  0.09330  0.71810  Biso   1.000  C
  C64      1.0000 0.40490  0.90670  0.71810  Biso   1.000  C
  C65      1.0000 0.90670  0.71810  0.40490  Biso   1.000  C
  C66      1.0000 0.09330  0.71810  0.59510  Biso   1.000  C
  C67      1.0000 0.09330  0.28190  0.40490  Biso   1.000  C
  C68      1.0000 0.90670  0.28190  0.59510  Biso   1.000  C
  C69      1.0000 0.71810  0.59510  0.09330  Biso   1.000  C
  C70      1.0000 0.71810  0.40490  0.90670  Biso   1.000  C
  C71      1.0000 0.28190  0.59510  0.90670  Biso   1.000  C
  C72      1.0000 0.28190  0.40490  0.09330  Biso   1.000  C
  C73      1.0000 0.59330  0.90490  0.78190  Biso   1.000  C
  C74      1.0000 0.40670  0.09510  0.78190  Biso   1.000  C
  C75      1.0000 0.40670  0.90490  0.21810  Biso   1.000  C
  C76      1.0000 0.59330  0.09510  0.21810  Biso   1.000  C
  C77      1.0000 0.78190  0.59330  0.90490  Biso   1.000  C
  C78      1.0000 0.78190  0.40670  0.09510  Biso   1.000  C
  C79      1.0000 0.21810  0.40670  0.90490  Biso   1.000  C
  C80      1.0000 0.21810  0.59330  0.09510  Biso   1.000  C
  C81      1.0000 0.90490  0.78190  0.59330  Biso   1.000  C
  C82      1.0000 0.09510  0.78190  0.40670  Biso   1.000  C
  C83      1.0000 0.90490  0.21810  0.40670  Biso   1.000  C
  C84      1.0000 0.09510  0.21810  0.59330  Biso   1.000  C
  C85      1.0000 0.40490  0.09330  0.71810  Biso   1.000  C
  C86      1.0000 0.59510  0.90670  0.71810  Biso   1.000  C
  C87      1.0000 0.40490  0.90670  0.28190  Biso   1.000  C
  C88      1.0000 0.59510  0.09330  0.28190  Biso   1.000  C
  C89      1.0000 0.09330  0.28190  0.59510  Biso   1.000  C
  C90      1.0000 0.90670  0.28190  0.40490  Biso   1.000  C
  C91      1.0000 0.90670  0.71810  0.59510  Biso   1.000  C
  C92      1.0000 0.09330  0.71810  0.40490  Biso   1.000  C
  C93      1.0000 0.28190  0.40490  0.90670  Biso   1.000  C
  C94      1.0000 0.28190  0.59510  0.09330  Biso   1.000  C
  C95      1.0000 0.71810  0.40490  0.09330  Biso   1.000  C
  C96      1.0000 0.71810  0.59510  0.90670  Biso   1.000  C
  H1       1.0000 0.41570  0.08720  0.19480  Biso   1.000  H
  H2       1.0000 0.58430  0.91280  0.19480  Biso   1.000  H
  H3       1.0000 0.58430  0.08720  0.80520  Biso   1.000  H
  H4       1.0000 0.41570  0.91280  0.80520  Biso   1.000  H
  H5       1.0000 0.19480  0.41570  0.08720  Biso   1.000  H
  H6       1.0000 0.19480  0.58430  0.91280  Biso   1.000  H
  H7       1.0000 0.80520  0.58430  0.08720  Biso   1.000  H
  H8       1.0000 0.80520  0.41570  0.91280  Biso   1.000  H
  H9       1.0000 0.08720  0.19480  0.41570  Biso   1.000  H
  H10      1.0000 0.91280  0.19480  0.58430  Biso   1.000  H
  H11      1.0000 0.08720  0.80520  0.58430  Biso   1.000  H
  H12      1.0000 0.91280  0.80520  0.41570  Biso   1.000  H
  H13      1.0000 0.58720  0.91570  0.30520  Biso   1.000  H
  H14      1.0000 0.41280  0.08430  0.30520  Biso   1.000  H
  H15      1.0000 0.58720  0.08430  0.69480  Biso   1.000  H
  H16      1.0000 0.41280  0.91570  0.69480  Biso   1.000  H
  H17      1.0000 0.91570  0.69480  0.41280  Biso   1.000  H
  H18      1.0000 0.08430  0.69480  0.58720  Biso   1.000  H
  H19      1.0000 0.08430  0.30520  0.41280  Biso   1.000  H
  H20      1.0000 0.91570  0.30520  0.58720  Biso   1.000  H
  H21      1.0000 0.69480  0.58720  0.08430  Biso   1.000  H
  H22      1.0000 0.69480  0.41280  0.91570  Biso   1.000  H
  H23      1.0000 0.30520  0.58720  0.91570  Biso   1.000  H
  H24      1.0000 0.30520  0.41280  0.08430  Biso   1.000  H
  H25      1.0000 0.58430  0.91280  0.80520  Biso   1.000  H
  H26      1.0000 0.41570  0.08720  0.80520  Biso   1.000  H
  H27      1.0000 0.41570  0.91280  0.19480  Biso   1.000  H
  H28      1.0000 0.58430  0.08720  0.19480  Biso   1.000  H
  H29      1.0000 0.80520  0.58430  0.91280  Biso   1.000  H
  H30      1.0000 0.80520  0.41570  0.08720  Biso   1.000  H
  H31      1.0000 0.19480  0.41570  0.91280  Biso   1.000  H
  H32      1.0000 0.19480  0.58430  0.08720  Biso   1.000  H
  H33      1.0000 0.91280  0.80520  0.58430  Biso   1.000  H
  H34      1.0000 0.08720  0.80520  0.41570  Biso   1.000  H
  H35      1.0000 0.91280  0.19480  0.41570  Biso   1.000  H
  H36      1.0000 0.08720  0.19480  0.58430  Biso   1.000  H
  H37      1.0000 0.41280  0.08430  0.69480  Biso   1.000  H
  H38      1.0000 0.58720  0.91570  0.69480  Biso   1.000  H
  H39      1.0000 0.41280  0.91570  0.30520  Biso   1.000  H
  H40      1.0000 0.58720  0.08430  0.30520  Biso   1.000  H
  H41      1.0000 0.08430  0.30520  0.58720  Biso   1.000  H
  H42      1.0000 0.91570  0.30520  0.41280  Biso   1.000  H
  H43      1.0000 0.91570  0.69480  0.58720  Biso   1.000  H
  H44      1.0000 0.08430  0.69480  0.41280  Biso   1.000  H
  H45      1.0000 0.30520  0.41280  0.91570  Biso   1.000  H
  H46      1.0000 0.30520  0.58720  0.08430  Biso   1.000  H
  H47      1.0000 0.69480  0.41280  0.08430  Biso   1.000  H
  H48      1.0000 0.69480  0.58720  0.91570  Biso   1.000  H
  C97      1.0000 0.37700  0.12510  0.21910  Biso   1.000  C
  C98      1.0000 0.62300  0.87490  0.21910  Biso   1.000  C
  C99      1.0000 0.62300  0.12510  0.78090  Biso   1.000  C
  C100     1.0000 0.37700  0.87490  0.78090  Biso   1.000  C
  C101     1.0000 0.21910  0.37700  0.12510  Biso   1.000  C
  C102     1.0000 0.21910  0.62300  0.87490  Biso   1.000  C
  C103     1.0000 0.78090  0.62300  0.12510  Biso   1.000  C
  C104     1.0000 0.78090  0.37700  0.87490  Biso   1.000  C
  C105     1.0000 0.12510  0.21910  0.37700  Biso   1.000  C
  C106     1.0000 0.87490  0.21910  0.62300  Biso   1.000  C
  C107     1.0000 0.12510  0.78090  0.62300  Biso   1.000  C
  C108     1.0000 0.87490  0.78090  0.37700  Biso   1.000  C
  C109     1.0000 0.62510  0.87700  0.28090  Biso   1.000  C
  C110     1.0000 0.37490  0.12300  0.28090  Biso   1.000  C
  C111     1.0000 0.62510  0.12300  0.71910  Biso   1.000  C
  C112     1.0000 0.37490  0.87700  0.71910  Biso   1.000  C
  C113     1.0000 0.87700  0.71910  0.37490  Biso   1.000  C
  C114     1.0000 0.12300  0.71910  0.62510  Biso   1.000  C
  C115     1.0000 0.12300  0.28090  0.37490  Biso   1.000  C
  C116     1.0000 0.87700  0.28090  0.62510  Biso   1.000  C
  C117     1.0000 0.71910  0.62510  0.12300  Biso   1.000  C
  C118     1.0000 0.71910  0.37490  0.87700  Biso   1.000  C
  C119     1.0000 0.28090  0.62510  0.87700  Biso   1.000  C
  C120     1.0000 0.28090  0.37490  0.12300  Biso   1.000  C
  C121     1.0000 0.62300  0.87490  0.78090  Biso   1.000  C
  C122     1.0000 0.37700  0.12510  0.78090  Biso   1.000  C
  C123     1.0000 0.37700  0.87490  0.21910  Biso   1.000  C
  C124     1.0000 0.62300  0.12510  0.21910  Biso   1.000  C
  C125     1.0000 0.78090  0.62300  0.87490  Biso   1.000  C
  C126     1.0000 0.78090  0.37700  0.12510  Biso   1.000  C
  C127     1.0000 0.21910  0.37700  0.87490  Biso   1.000  C
  C128     1.0000 0.21910  0.62300  0.12510  Biso   1.000  C
  C129     1.0000 0.87490  0.78090  0.62300  Biso   1.000  C
  C130     1.0000 0.12510  0.78090  0.37700  Biso   1.000  C
  C131     1.0000 0.87490  0.21910  0.37700  Biso   1.000  C
  C132     1.0000 0.12510  0.21910  0.62300  Biso   1.000  C
  C133     1.0000 0.37490  0.12300  0.71910  Biso   1.000  C
  C134     1.0000 0.62510  0.87700  0.71910  Biso   1.000  C
  C135     1.0000 0.37490  0.87700  0.28090  Biso   1.000  C
  C136     1.0000 0.62510  0.12300  0.28090  Biso   1.000  C
  C137     1.0000 0.12300  0.28090  0.62510  Biso   1.000  C
  C138     1.0000 0.87700  0.28090  0.37490  Biso   1.000  C
  C139     1.0000 0.87700  0.71910  0.62510  Biso   1.000  C
  C140     1.0000 0.12300  0.71910  0.37490  Biso   1.000  C
  C141     1.0000 0.28090  0.37490  0.87700  Biso   1.000  C
  C142     1.0000 0.28090  0.62510  0.12300  Biso   1.000  C
  C143     1.0000 0.71910  0.37490  0.12300  Biso   1.000  C
  C144     1.0000 0.71910  0.62510  0.87700  Biso   1.000  C
  H49      1.0000 0.36940  0.13450  0.19590  Biso   1.000  H
  H50      1.0000 0.63060  0.86550  0.19590  Biso   1.000  H
  H51      1.0000 0.63060  0.13450  0.80410  Biso   1.000  H
  H52      1.0000 0.36940  0.86550  0.80410  Biso   1.000  H
  H53      1.0000 0.19590  0.36940  0.13450  Biso   1.000  H
  H54      1.0000 0.19590  0.63060  0.86550  Biso   1.000  H
  H55      1.0000 0.80410  0.63060  0.13450  Biso   1.000  H
  H56      1.0000 0.80410  0.36940  0.86550  Biso   1.000  H
  H57      1.0000 0.13450  0.19590  0.36940  Biso   1.000  H
  H58      1.0000 0.86550  0.19590  0.63060  Biso   1.000  H
  H59      1.0000 0.13450  0.80410  0.63060  Biso   1.000  H
  H60      1.0000 0.86550  0.80410  0.36940  Biso   1.000  H
  H61      1.0000 0.63450  0.86940  0.30410  Biso   1.000  H
  H62      1.0000 0.36550  0.13060  0.30410  Biso   1.000  H
  H63      1.0000 0.63450  0.13060  0.69590  Biso   1.000  H
  H64      1.0000 0.36550  0.86940  0.69590  Biso   1.000  H
  H65      1.0000 0.86940  0.69590  0.36550  Biso   1.000  H
  H66      1.0000 0.13060  0.69590  0.63450  Biso   1.000  H
  H67      1.0000 0.13060  0.30410  0.36550  Biso   1.000  H
  H68      1.0000 0.86940  0.30410  0.63450  Biso   1.000  H
  H69      1.0000 0.69590  0.63450  0.13060  Biso   1.000  H
  H70      1.0000 0.69590  0.36550  0.86940  Biso   1.000  H
  H71      1.0000 0.30410  0.63450  0.86940  Biso   1.000  H
  H72      1.0000 0.30410  0.36550  0.13060  Biso   1.000  H
  H73      1.0000 0.63060  0.86550  0.80410  Biso   1.000  H
  H74      1.0000 0.36940  0.13450  0.80410  Biso   1.000  H
  H75      1.0000 0.36940  0.86550  0.19590  Biso   1.000  H
  H76      1.0000 0.63060  0.13450  0.19590  Biso   1.000  H
  H77      1.0000 0.80410  0.63060  0.86550  Biso   1.000  H
  H78      1.0000 0.80410  0.36940  0.13450  Biso   1.000  H
  H79      1.0000 0.19590  0.36940  0.86550  Biso   1.000  H
  H80      1.0000 0.19590  0.63060  0.13450  Biso   1.000  H
  H81      1.0000 0.86550  0.80410  0.63060  Biso   1.000  H
  H82      1.0000 0.13450  0.80410  0.36940  Biso   1.000  H
  H83      1.0000 0.86550  0.19590  0.36940  Biso   1.000  H
  H84      1.0000 0.13450  0.19590  0.63060  Biso   1.000  H
  H85      1.0000 0.36550  0.13060  0.69590  Biso   1.000  H
  H86      1.0000 0.63450  0.86940  0.69590  Biso   1.000  H
  H87      1.0000 0.36550  0.86940  0.30410  Biso   1.000  H
  H88      1.0000 0.63450  0.13060  0.30410  Biso   1.000  H
  H89      1.0000 0.13060  0.30410  0.63450  Biso   1.000  H
  H90      1.0000 0.86940  0.30410  0.36550  Biso   1.000  H
  H91      1.0000 0.86940  0.69590  0.63450  Biso   1.000  H
  H92      1.0000 0.13060  0.69590  0.36550  Biso   1.000  H
  H93      1.0000 0.30410  0.36550  0.86940  Biso   1.000  H
  H94      1.0000 0.30410  0.63450  0.13060  Biso   1.000  H
  H95      1.0000 0.69590  0.36550  0.13060  Biso   1.000  H
  H96      1.0000 0.69590  0.63450  0.86940  Biso   1.000  H
  C145     1.0000 0.35960  0.14040  0.25000  Biso   1.000  C
  C146     1.0000 0.64040  0.85960  0.25000  Biso   1.000  C
  C147     1.0000 0.64040  0.14040  0.75000  Biso   1.000  C
  C148     1.0000 0.35960  0.85960  0.75000  Biso   1.000  C
  C149     1.0000 0.25000  0.35960  0.14040  Biso   1.000  C
  C150     1.0000 0.25000  0.64040  0.85960  Biso   1.000  C
  C151     1.0000 0.75000  0.64040  0.14040  Biso   1.000  C
  C152     1.0000 0.75000  0.35960  0.85960  Biso   1.000  C
  C153     1.0000 0.14040  0.25000  0.35960  Biso   1.000  C
  C154     1.0000 0.85960  0.25000  0.64040  Biso   1.000  C
  C155     1.0000 0.14040  0.75000  0.64040  Biso   1.000  C
  C156     1.0000 0.85960  0.75000  0.35960  Biso   1.000  C
  C157     1.0000 0.64040  0.85960  0.75000  Biso   1.000  C
  C158     1.0000 0.35960  0.14040  0.75000  Biso   1.000  C
  C159     1.0000 0.35960  0.85960  0.25000  Biso   1.000  C
  C160     1.0000 0.64040  0.14040  0.25000  Biso   1.000  C
  C161     1.0000 0.75000  0.64040  0.85960  Biso   1.000  C
  C162     1.0000 0.75000  0.35960  0.14040  Biso   1.000  C
  C163     1.0000 0.25000  0.35960  0.85960  Biso   1.000  C
  C164     1.0000 0.25000  0.64040  0.14040  Biso   1.000  C
  C165     1.0000 0.85960  0.75000  0.64040  Biso   1.000  C
  C166     1.0000 0.14040  0.75000  0.35960  Biso   1.000  C
  C167     1.0000 0.85960  0.25000  0.35960  Biso   1.000  C
  C168     1.0000 0.14040  0.25000  0.64040  Biso   1.000  C
  C169     1.0000 0.33130  0.16870  0.25000  Biso   1.000  C
  C170     1.0000 0.66870  0.83130  0.25000  Biso   1.000  C
  C171     1.0000 0.66870  0.16870  0.75000  Biso   1.000  C
  C172     1.0000 0.33130  0.83130  0.75000  Biso   1.000  C
  C173     1.0000 0.25000  0.33130  0.16870  Biso   1.000  C
  C174     1.0000 0.25000  0.66870  0.83130  Biso   1.000  C
  C175     1.0000 0.75000  0.66870  0.16870  Biso   1.000  C
  C176     1.0000 0.75000  0.33130  0.83130  Biso   1.000  C
  C177     1.0000 0.16870  0.25000  0.33130  Biso   1.000  C
  C178     1.0000 0.83130  0.25000  0.66870  Biso   1.000  C
  C179     1.0000 0.16870  0.75000  0.66870  Biso   1.000  C
  C180     1.0000 0.83130  0.75000  0.33130  Biso   1.000  C
  C181     1.0000 0.66870  0.83130  0.75000  Biso   1.000  C
  C182     1.0000 0.33130  0.16870  0.75000  Biso   1.000  C
  C183     1.0000 0.33130  0.83130  0.25000  Biso   1.000  C
  C184     1.0000 0.66870  0.16870  0.25000  Biso   1.000  C
  C185     1.0000 0.75000  0.66870  0.83130  Biso   1.000  C
  C186     1.0000 0.75000  0.33130  0.16870  Biso   1.000  C
  C187     1.0000 0.25000  0.33130  0.83130  Biso   1.000  C
  C188     1.0000 0.25000  0.66870  0.16870  Biso   1.000  C
  C189     1.0000 0.83130  0.75000  0.66870  Biso   1.000  C
  C190     1.0000 0.16870  0.75000  0.33130  Biso   1.000  C
  C191     1.0000 0.83130  0.25000  0.33130  Biso   1.000  C
  C192     1.0000 0.16870  0.25000  0.66870  Biso   1.000  C
  C193     1.0000 0.31980  0.17850  0.21410  Biso   1.000  C
  C194     1.0000 0.68020  0.82150  0.21410  Biso   1.000  C
  C195     1.0000 0.68020  0.17850  0.78590  Biso   1.000  C
  C196     1.0000 0.31980  0.82150  0.78590  Biso   1.000  C
  C197     1.0000 0.21410  0.31980  0.17850  Biso   1.000  C
  C198     1.0000 0.21410  0.68020  0.82150  Biso   1.000  C
  C199     1.0000 0.78590  0.68020  0.17850  Biso   1.000  C
  C200     1.0000 0.78590  0.31980  0.82150  Biso   1.000  C
  C201     1.0000 0.17850  0.21410  0.31980  Biso   1.000  C
  C202     1.0000 0.82150  0.21410  0.68020  Biso   1.000  C
  C203     1.0000 0.17850  0.78590  0.68020  Biso   1.000  C
  C204     1.0000 0.82150  0.78590  0.31980  Biso   1.000  C
  C205     1.0000 0.67850  0.81980  0.28590  Biso   1.000  C
  C206     1.0000 0.32150  0.18020  0.28590  Biso   1.000  C
  C207     1.0000 0.67850  0.18020  0.71410  Biso   1.000  C
  C208     1.0000 0.32150  0.81980  0.71410  Biso   1.000  C
  C209     1.0000 0.81980  0.71410  0.32150  Biso   1.000  C
  C210     1.0000 0.18020  0.71410  0.67850  Biso   1.000  C
  C211     1.0000 0.18020  0.28590  0.32150  Biso   1.000  C
  C212     1.0000 0.81980  0.28590  0.67850  Biso   1.000  C
  C213     1.0000 0.71410  0.67850  0.18020  Biso   1.000  C
  C214     1.0000 0.71410  0.32150  0.81980  Biso   1.000  C
  C215     1.0000 0.28590  0.67850  0.81980  Biso   1.000  C
  C216     1.0000 0.28590  0.32150  0.18020  Biso   1.000  C
  C217     1.0000 0.68020  0.82150  0.78590  Biso   1.000  C
  C218     1.0000 0.31980  0.17850  0.78590  Biso   1.000  C
  C219     1.0000 0.31980  0.82150  0.21410  Biso   1.000  C
  C220     1.0000 0.68020  0.17850  0.21410  Biso   1.000  C
  C221     1.0000 0.78590  0.68020  0.82150  Biso   1.000  C
  C222     1.0000 0.78590  0.31980  0.17850  Biso   1.000  C
  C223     1.0000 0.21410  0.31980  0.82150  Biso   1.000  C
  C224     1.0000 0.21410  0.68020  0.17850  Biso   1.000  C
  C225     1.0000 0.82150  0.78590  0.68020  Biso   1.000  C
  C226     1.0000 0.17850  0.78590  0.31980  Biso   1.000  C
  C227     1.0000 0.82150  0.21410  0.31980  Biso   1.000  C
  C228     1.0000 0.17850  0.21410  0.68020  Biso   1.000  C
  C229     1.0000 0.32150  0.18020  0.71410  Biso   1.000  C
  C230     1.0000 0.67850  0.81980  0.71410  Biso   1.000  C
  C231     1.0000 0.32150  0.81980  0.28590  Biso   1.000  C
  C232     1.0000 0.67850  0.18020  0.28590  Biso   1.000  C
  C233     1.0000 0.18020  0.28590  0.67850  Biso   1.000  C
  C234     1.0000 0.81980  0.28590  0.32150  Biso   1.000  C
  C235     1.0000 0.81980  0.71410  0.67850  Biso   1.000  C
  C236     1.0000 0.18020  0.71410  0.32150  Biso   1.000  C
  C237     1.0000 0.28590  0.32150  0.81980  Biso   1.000  C
  C238     1.0000 0.28590  0.67850  0.18020  Biso   1.000  C
  C239     1.0000 0.71410  0.32150  0.18020  Biso   1.000  C
  C240     1.0000 0.71410  0.67850  0.81980  Biso   1.000  C
  H97      1.0000 0.32930  0.16850  0.19190  Biso   1.000  H
  H98      1.0000 0.67070  0.83150  0.19190  Biso   1.000  H
  H99      1.0000 0.67070  0.16850  0.80810  Biso   1.000  H
  H100     1.0000 0.32930  0.83150  0.80810  Biso   1.000  H
  H101     1.0000 0.19190  0.32930  0.16850  Biso   1.000  H
  H102     1.0000 0.19190  0.67070  0.83150  Biso   1.000  H
  H103     1.0000 0.80810  0.67070  0.16850  Biso   1.000  H
  H104     1.0000 0.80810  0.32930  0.83150  Biso   1.000  H
  H105     1.0000 0.16850  0.19190  0.32930  Biso   1.000  H
  H106     1.0000 0.83150  0.19190  0.67070  Biso   1.000  H
  H107     1.0000 0.16850  0.80810  0.67070  Biso   1.000  H
  H108     1.0000 0.83150  0.80810  0.32930  Biso   1.000  H
  H109     1.0000 0.66850  0.82930  0.30810  Biso   1.000  H
  H110     1.0000 0.33150  0.17070  0.30810  Biso   1.000  H
  H111     1.0000 0.66850  0.17070  0.69190  Biso   1.000  H
  H112     1.0000 0.33150  0.82930  0.69190  Biso   1.000  H
  H113     1.0000 0.82930  0.69190  0.33150  Biso   1.000  H
  H114     1.0000 0.17070  0.69190  0.66850  Biso   1.000  H
  H115     1.0000 0.17070  0.30810  0.33150  Biso   1.000  H
  H116     1.0000 0.82930  0.30810  0.66850  Biso   1.000  H
  H117     1.0000 0.69190  0.66850  0.17070  Biso   1.000  H
  H118     1.0000 0.69190  0.33150  0.82930  Biso   1.000  H
  H119     1.0000 0.30810  0.66850  0.82930  Biso   1.000  H
  H120     1.0000 0.30810  0.33150  0.17070  Biso   1.000  H
  H121     1.0000 0.67070  0.83150  0.80810  Biso   1.000  H
  H122     1.0000 0.32930  0.16850  0.80810  Biso   1.000  H
  H123     1.0000 0.32930  0.83150  0.19190  Biso   1.000  H
  H124     1.0000 0.67070  0.16850  0.19190  Biso   1.000  H
  H125     1.0000 0.80810  0.67070  0.83150  Biso   1.000  H
  H126     1.0000 0.80810  0.32930  0.16850  Biso   1.000  H
  H127     1.0000 0.19190  0.32930  0.83150  Biso   1.000  H
  H128     1.0000 0.19190  0.67070  0.16850  Biso   1.000  H
  H129     1.0000 0.83150  0.80810  0.67070  Biso   1.000  H
  H130     1.0000 0.16850  0.80810  0.32930  Biso   1.000  H
  H131     1.0000 0.83150  0.19190  0.32930  Biso   1.000  H
  H132     1.0000 0.16850  0.19190  0.67070  Biso   1.000  H
  H133     1.0000 0.33150  0.17070  0.69190  Biso   1.000  H
  H134     1.0000 0.66850  0.82930  0.69190  Biso   1.000  H
  H135     1.0000 0.33150  0.82930  0.30810  Biso   1.000  H
  H136     1.0000 0.66850  0.17070  0.30810  Biso   1.000  H
  H137     1.0000 0.17070  0.30810  0.66850  Biso   1.000  H
  H138     1.0000 0.82930  0.30810  0.33150  Biso   1.000  H
  H139     1.0000 0.82930  0.69190  0.66850  Biso   1.000  H
  H140     1.0000 0.17070  0.69190  0.33150  Biso   1.000  H
  H141     1.0000 0.30810  0.33150  0.82930  Biso   1.000  H
  H142     1.0000 0.30810  0.66850  0.17070  Biso   1.000  H
  H143     1.0000 0.69190  0.33150  0.17070  Biso   1.000  H
  H144     1.0000 0.69190  0.66850  0.82930  Biso   1.000  H
  C241     1.0000 0.29320  0.20440  0.21640  Biso   1.000  C
  C242     1.0000 0.70680  0.79560  0.21640  Biso   1.000  C
  C243     1.0000 0.70680  0.20440  0.78360  Biso   1.000  C
  C244     1.0000 0.29320  0.79560  0.78360  Biso   1.000  C
  C245     1.0000 0.21640  0.29320  0.20440  Biso   1.000  C
  C246     1.0000 0.21640  0.70680  0.79560  Biso   1.000  C
  C247     1.0000 0.78360  0.70680  0.20440  Biso   1.000  C
  C248     1.0000 0.78360  0.29320  0.79560  Biso   1.000  C
  C249     1.0000 0.20440  0.21640  0.29320  Biso   1.000  C
  C250     1.0000 0.79560  0.21640  0.70680  Biso   1.000  C
  C251     1.0000 0.20440  0.78360  0.70680  Biso   1.000  C
  C252     1.0000 0.79560  0.78360  0.29320  Biso   1.000  C
  C253     1.0000 0.70440  0.79320  0.28360  Biso   1.000  C
  C254     1.0000 0.29560  0.20680  0.28360  Biso   1.000  C
  C255     1.0000 0.70440  0.20680  0.71640  Biso   1.000  C
  C256     1.0000 0.29560  0.79320  0.71640  Biso   1.000  C
  C257     1.0000 0.79320  0.71640  0.29560  Biso   1.000  C
  C258     1.0000 0.20680  0.71640  0.70440  Biso   1.000  C
  C259     1.0000 0.20680  0.28360  0.29560  Biso   1.000  C
  C260     1.0000 0.79320  0.28360  0.70440  Biso   1.000  C
  C261     1.0000 0.71640  0.70440  0.20680  Biso   1.000  C
  C262     1.0000 0.71640  0.29560  0.79320  Biso   1.000  C
  C263     1.0000 0.28360  0.70440  0.79320  Biso   1.000  C
  C264     1.0000 0.28360  0.29560  0.20680  Biso   1.000  C
  C265     1.0000 0.70680  0.79560  0.78360  Biso   1.000  C
  C266     1.0000 0.29320  0.20440  0.78360  Biso   1.000  C
  C267     1.0000 0.29320  0.79560  0.21640  Biso   1.000  C
  C268     1.0000 0.70680  0.20440  0.21640  Biso   1.000  C
  C269     1.0000 0.78360  0.70680  0.79560  Biso   1.000  C
  C270     1.0000 0.78360  0.29320  0.20440  Biso   1.000  C
  C271     1.0000 0.21640  0.29320  0.79560  Biso   1.000  C
  C272     1.0000 0.21640  0.70680  0.20440  Biso   1.000  C
  C273     1.0000 0.79560  0.78360  0.70680  Biso   1.000  C
  C274     1.0000 0.20440  0.78360  0.29320  Biso   1.000  C
  C275     1.0000 0.79560  0.21640  0.29320  Biso   1.000  C
  C276     1.0000 0.20440  0.21640  0.70680  Biso   1.000  C
  C277     1.0000 0.29560  0.20680  0.71640  Biso   1.000  C
  C278     1.0000 0.70440  0.79320  0.71640  Biso   1.000  C
  C279     1.0000 0.29560  0.79320  0.28360  Biso   1.000  C
  C280     1.0000 0.70440  0.20680  0.28360  Biso   1.000  C
  C281     1.0000 0.20680  0.28360  0.70440  Biso   1.000  C
  C282     1.0000 0.79320  0.28360  0.29560  Biso   1.000  C
  C283     1.0000 0.79320  0.71640  0.70440  Biso   1.000  C
  C284     1.0000 0.20680  0.71640  0.29560  Biso   1.000  C
  C285     1.0000 0.28360  0.29560  0.79320  Biso   1.000  C
  C286     1.0000 0.28360  0.70440  0.20680  Biso   1.000  C
  C287     1.0000 0.71640  0.29560  0.20680  Biso   1.000  C
  C288     1.0000 0.71640  0.70440  0.79320  Biso   1.000  C
  H145     1.0000 0.28260  0.21280  0.19400  Biso   1.000  H
  H146     1.0000 0.71740  0.78720  0.19400  Biso   1.000  H
  H147     1.0000 0.71740  0.21280  0.80600  Biso   1.000  H
  H148     1.0000 0.28260  0.78720  0.80600  Biso   1.000  H
  H149     1.0000 0.19400  0.28260  0.21280  Biso   1.000  H
  H150     1.0000 0.19400  0.71740  0.78720  Biso   1.000  H
  H151     1.0000 0.80600  0.71740  0.21280  Biso   1.000  H
  H152     1.0000 0.80600  0.28260  0.78720  Biso   1.000  H
  H153     1.0000 0.21280  0.19400  0.28260  Biso   1.000  H
  H154     1.0000 0.78720  0.19400  0.71740  Biso   1.000  H
  H155     1.0000 0.21280  0.80600  0.71740  Biso   1.000  H
  H156     1.0000 0.78720  0.80600  0.28260  Biso   1.000  H
  H157     1.0000 0.71280  0.78260  0.30600  Biso   1.000  H
  H158     1.0000 0.28720  0.21740  0.30600  Biso   1.000  H
  H159     1.0000 0.71280  0.21740  0.69400  Biso   1.000  H
  H160     1.0000 0.28720  0.78260  0.69400  Biso   1.000  H
  H161     1.0000 0.78260  0.69400  0.28720  Biso   1.000  H
  H162     1.0000 0.21740  0.69400  0.71280  Biso   1.000  H
  H163     1.0000 0.21740  0.30600  0.28720  Biso   1.000  H
  H164     1.0000 0.78260  0.30600  0.71280  Biso   1.000  H
  H165     1.0000 0.69400  0.71280  0.21740  Biso   1.000  H
  H166     1.0000 0.69400  0.28720  0.78260  Biso   1.000  H
  H167     1.0000 0.30600  0.71280  0.78260  Biso   1.000  H
  H168     1.0000 0.30600  0.28720  0.21740  Biso   1.000  H
  H169     1.0000 0.71740  0.78720  0.80600  Biso   1.000  H
  H170     1.0000 0.28260  0.21280  0.80600  Biso   1.000  H
  H171     1.0000 0.28260  0.78720  0.19400  Biso   1.000  H
  H172     1.0000 0.71740  0.21280  0.19400  Biso   1.000  H
  H173     1.0000 0.80600  0.71740  0.78720  Biso   1.000  H
  H174     1.0000 0.80600  0.28260  0.21280  Biso   1.000  H
  H175     1.0000 0.19400  0.28260  0.78720  Biso   1.000  H
  H176     1.0000 0.19400  0.71740  0.21280  Biso   1.000  H
  H177     1.0000 0.78720  0.80600  0.71740  Biso   1.000  H
  H178     1.0000 0.21280  0.80600  0.28260  Biso   1.000  H
  H179     1.0000 0.78720  0.19400  0.28260  Biso   1.000  H
  H180     1.0000 0.21280  0.19400  0.71740  Biso   1.000  H
  H181     1.0000 0.28720  0.21740  0.69400  Biso   1.000  H
  H182     1.0000 0.71280  0.78260  0.69400  Biso   1.000  H
  H183     1.0000 0.28720  0.78260  0.30600  Biso   1.000  H
  H184     1.0000 0.71280  0.21740  0.30600  Biso   1.000  H
  H185     1.0000 0.21740  0.30600  0.71280  Biso   1.000  H
  H186     1.0000 0.78260  0.30600  0.28720  Biso   1.000  H
  H187     1.0000 0.78260  0.69400  0.71280  Biso   1.000  H
  H188     1.0000 0.21740  0.69400  0.28720  Biso   1.000  H
  H189     1.0000 0.30600  0.28720  0.78260  Biso   1.000  H
  H190     1.0000 0.30600  0.71280  0.21740  Biso   1.000  H
  H191     1.0000 0.69400  0.28720  0.21740  Biso   1.000  H
  H192     1.0000 0.69400  0.71280  0.78260  Biso   1.000  H
  C289     1.0000 0.27945  0.22055  0.25000  Biso   1.000  C
  C290     1.0000 0.72055  0.77945  0.25000  Biso   1.000  C
  C291     1.0000 0.72055  0.22055  0.75000  Biso   1.000  C
  C292     1.0000 0.27945  0.77945  0.75000  Biso   1.000  C
  C293     1.0000 0.25000  0.27945  0.22055  Biso   1.000  C
  C294     1.0000 0.25000  0.72055  0.77945  Biso   1.000  C
  C295     1.0000 0.75000  0.72055  0.22055  Biso   1.000  C
  C296     1.0000 0.75000  0.27945  0.77945  Biso   1.000  C
  C297     1.0000 0.22055  0.25000  0.27945  Biso   1.000  C
  C298     1.0000 0.77945  0.25000  0.72055  Biso   1.000  C
  C299     1.0000 0.22055  0.75000  0.72055  Biso   1.000  C
  C300     1.0000 0.77945  0.75000  0.27945  Biso   1.000  C
  C301     1.0000 0.72055  0.77945  0.75000  Biso   1.000  C
  C302     1.0000 0.27945  0.22055  0.75000  Biso   1.000  C
  C303     1.0000 0.27945  0.77945  0.25000  Biso   1.000  C
  C304     1.0000 0.72055  0.22055  0.25000  Biso   1.000  C
  C305     1.0000 0.75000  0.72055  0.77945  Biso   1.000  C
  C306     1.0000 0.75000  0.27945  0.22055  Biso   1.000  C
  C307     1.0000 0.25000  0.27945  0.77945  Biso   1.000  C
  C308     1.0000 0.25000  0.72055  0.22055  Biso   1.000  C
  C309     1.0000 0.77945  0.75000  0.72055  Biso   1.000  C
  C310     1.0000 0.22055  0.75000  0.27945  Biso   1.000  C
  C311     1.0000 0.77945  0.25000  0.27945  Biso   1.000  C
  C312     1.0000 0.22055  0.25000  0.72055  Biso   1.000  C
