data_image0
_cell_length_a       21.532
_cell_length_b       7.266
_cell_length_c       18.353
_cell_angle_alpha    90
_cell_angle_beta     91.57
_cell_angle_gamma    90

_symmetry_space_group_name_H-M    "P 1"
_symmetry_int_tables_number       1

loop_
  _symmetry_equiv_pos_as_xyz
  'x, y, z'

loop_
  _atom_site_label
  _atom_site_occupancy
  _atom_site_fract_x
  _atom_site_fract_y
  _atom_site_fract_z
  _atom_site_thermal_displace_type
  _atom_site_B_iso_or_equiv
  _atom_site_type_symbol
  Ba1      1.0000 0.41321  0.48177  0.41295  Biso   1.000  Ba
  Ba2      1.0000 0.41321  0.01823  0.91295  Biso   1.000  Ba
  Ba3      1.0000 0.58679  0.51823  0.58705  Biso   1.000  Ba
  Ba4      1.0000 0.58679  0.98177  0.08705  Biso   1.000  Ba
  Cu1      1.0000 0.28563  0.63223  0.60477  Biso   1.000  Cu
  Cu2      1.0000 0.28563  0.86777  0.10477  Biso   1.000  Cu
  Cu3      1.0000 0.71437  0.36777  0.39523  Biso   1.000  Cu
  Cu4      1.0000 0.71437  0.13223  0.89523  Biso   1.000  Cu
  Cu5      1.0000 0.29757  0.07761  0.68427  Biso   1.000  Cu
  Cu6      1.0000 0.29757  0.42239  0.18427  Biso   1.000  Cu
  Cu7      1.0000 0.70243  0.92239  0.31573  Biso   1.000  Cu
  Cu8      1.0000 0.70243  0.57761  0.81573  Biso   1.000  Cu
  C1       1.0000 0.17740  0.72500  0.52230  Biso   1.000  C
  C2       1.0000 0.17740  0.77500  0.02230  Biso   1.000  C
  C3       1.0000 0.82260  0.27500  0.47770  Biso   1.000  C
  C4       1.0000 0.82260  0.22500  0.97770  Biso   1.000  C
  C5       1.0000 0.14830  0.74750  0.45330  Biso   1.000  C
  C6       1.0000 0.14830  0.75250  0.95330  Biso   1.000  C
  C7       1.0000 0.85170  0.25250  0.54670  Biso   1.000  C
  C8       1.0000 0.85170  0.24750  0.04670  Biso   1.000  C
  H1       1.0000 0.17290  0.74960  0.41240  Biso   1.000  H
  H2       1.0000 0.17290  0.75040  0.91240  Biso   1.000  H
  H3       1.0000 0.82710  0.25040  0.58760  Biso   1.000  H
  H4       1.0000 0.82710  0.24960  0.08760  Biso   1.000  H
  C9       1.0000 0.08750  0.76580  0.44420  Biso   1.000  C
  C10      1.0000 0.08750  0.73420  0.94420  Biso   1.000  C
  C11      1.0000 0.91250  0.23420  0.55580  Biso   1.000  C
  C12      1.0000 0.91250  0.26580  0.05580  Biso   1.000  C
  H5       1.0000 0.06980  0.77670  0.39760  Biso   1.000  H
  H6       1.0000 0.06980  0.72330  0.89760  Biso   1.000  H
  H7       1.0000 0.93020  0.22330  0.60240  Biso   1.000  H
  H8       1.0000 0.93020  0.27670  0.10240  Biso   1.000  H
  C13      1.0000 0.04950  0.76870  0.50580  Biso   1.000  C
  C14      1.0000 0.04950  0.73130  0.00580  Biso   1.000  C
  C15      1.0000 0.95050  0.23130  0.49420  Biso   1.000  C
  C16      1.0000 0.95050  0.26870  0.99420  Biso   1.000  C
  H9       1.0000 0.00680  0.78540  0.50030  Biso   1.000  H
  H10      1.0000 0.00680  0.71460  0.00030  Biso   1.000  H
  H11      1.0000 0.99320  0.21460  0.49970  Biso   1.000  H
  H12      1.0000 0.99320  0.28540  0.99970  Biso   1.000  H
  C17      1.0000 0.07560  0.74730  0.57170  Biso   1.000  C
  C18      1.0000 0.07560  0.75270  0.07170  Biso   1.000  C
  C19      1.0000 0.92440  0.25270  0.42830  Biso   1.000  C
  C20      1.0000 0.92440  0.24730  0.92830  Biso   1.000  C
  H13      1.0000 0.05040  0.74800  0.61200  Biso   1.000  H
  H14      1.0000 0.05040  0.75200  0.11200  Biso   1.000  H
  H15      1.0000 0.94960  0.25200  0.38800  Biso   1.000  H
  H16      1.0000 0.94960  0.24800  0.88800  Biso   1.000  H
  C21      1.0000 0.13970  0.72370  0.58260  Biso   1.000  C
  C22      1.0000 0.13970  0.77630  0.08260  Biso   1.000  C
  C23      1.0000 0.86030  0.27630  0.41740  Biso   1.000  C
  C24      1.0000 0.86030  0.22370  0.91740  Biso   1.000  C
  C25      1.0000 0.16120  0.69800  0.65800  Biso   1.000  C
  C26      1.0000 0.16120  0.80200  0.15800  Biso   1.000  C
  C27      1.0000 0.83880  0.30200  0.34200  Biso   1.000  C
  C28      1.0000 0.83880  0.19800  0.84200  Biso   1.000  C
  C29      1.0000 0.11610  0.71330  0.71880  Biso   1.000  C
  C30      1.0000 0.11610  0.78670  0.21880  Biso   1.000  C
  C31      1.0000 0.88390  0.28670  0.28120  Biso   1.000  C
  C32      1.0000 0.88390  0.21330  0.78120  Biso   1.000  C
  H17      1.0000 0.09010  0.60600  0.71920  Biso   1.000  H
  H18      1.0000 0.09010  0.89400  0.21920  Biso   1.000  H
  H19      1.0000 0.90990  0.39400  0.28080  Biso   1.000  H
  H20      1.0000 0.90990  0.10600  0.78080  Biso   1.000  H
  H21      1.0000 0.09080  0.82090  0.71170  Biso   1.000  H
  H22      1.0000 0.09080  0.67910  0.21170  Biso   1.000  H
  H23      1.0000 0.90920  0.17910  0.28830  Biso   1.000  H
  H24      1.0000 0.90920  0.32090  0.78830  Biso   1.000  H
  H25      1.0000 0.13860  0.72270  0.76460  Biso   1.000  H
  H26      1.0000 0.13860  0.77730  0.26460  Biso   1.000  H
  H27      1.0000 0.86140  0.27730  0.23540  Biso   1.000  H
  H28      1.0000 0.86140  0.22270  0.73540  Biso   1.000  H
  C33      1.0000 0.24200  0.62100  0.74820  Biso   1.000  C
  C34      1.0000 0.24200  0.87900  0.24820  Biso   1.000  C
  C35      1.0000 0.75800  0.37900  0.25180  Biso   1.000  C
  C36      1.0000 0.75800  0.12100  0.75180  Biso   1.000  C
  H29      1.0000 0.21650  0.52590  0.76930  Biso   1.000  H
  H30      1.0000 0.21650  0.97410  0.26930  Biso   1.000  H
  H31      1.0000 0.78350  0.47410  0.23070  Biso   1.000  H
  H32      1.0000 0.78350  0.02590  0.73070  Biso   1.000  H
  H33      1.0000 0.23820  0.73120  0.77760  Biso   1.000  H
  H34      1.0000 0.23820  0.76880  0.27760  Biso   1.000  H
  H35      1.0000 0.76180  0.26880  0.22240  Biso   1.000  H
  H36      1.0000 0.76180  0.23120  0.72240  Biso   1.000  H
  C37      1.0000 0.30880  0.55910  0.74970  Biso   1.000  C
  C38      1.0000 0.30880  0.94090  0.24970  Biso   1.000  C
  C39      1.0000 0.69120  0.44090  0.25030  Biso   1.000  C
  C40      1.0000 0.69120  0.05910  0.75030  Biso   1.000  C
  C41      1.0000 0.39790  0.51450  0.67330  Biso   1.000  C
  C42      1.0000 0.39790  0.98550  0.17330  Biso   1.000  C
  C43      1.0000 0.60210  0.48550  0.32670  Biso   1.000  C
  C44      1.0000 0.60210  0.01450  0.82670  Biso   1.000  C
  H37      1.0000 0.40610  0.39000  0.69010  Biso   1.000  H
  H38      1.0000 0.40610  0.11000  0.19010  Biso   1.000  H
  H39      1.0000 0.59390  0.61000  0.30990  Biso   1.000  H
  H40      1.0000 0.59390  0.89000  0.80990  Biso   1.000  H
  H41      1.0000 0.42580  0.59730  0.69960  Biso   1.000  H
  H42      1.0000 0.42580  0.90270  0.19960  Biso   1.000  H
  H43      1.0000 0.57420  0.40270  0.30040  Biso   1.000  H
  H44      1.0000 0.57420  0.09730  0.80040  Biso   1.000  H
  C45      1.0000 0.40800  0.52860  0.59200  Biso   1.000  C
  C46      1.0000 0.40800  0.97140  0.09200  Biso   1.000  C
  C47      1.0000 0.59200  0.47140  0.40800  Biso   1.000  C
  C48      1.0000 0.59200  0.02860  0.90800  Biso   1.000  C
  C49      1.0000 0.17670  0.15040  0.73490  Biso   1.000  C
  C50      1.0000 0.17670  0.34960  0.23490  Biso   1.000  C
  C51      1.0000 0.82330  0.84960  0.26510  Biso   1.000  C
  C52      1.0000 0.82330  0.65040  0.76510  Biso   1.000  C
  C53      1.0000 0.13760  0.16490  0.79520  Biso   1.000  C
  C54      1.0000 0.13760  0.33510  0.29520  Biso   1.000  C
  C55      1.0000 0.86240  0.83510  0.20480  Biso   1.000  C
  C56      1.0000 0.86240  0.66490  0.70480  Biso   1.000  C
  H45      1.0000 0.15450  0.14620  0.84180  Biso   1.000  H
  H46      1.0000 0.15450  0.35380  0.34180  Biso   1.000  H
  H47      1.0000 0.84550  0.85380  0.15820  Biso   1.000  H
  H48      1.0000 0.84550  0.64620  0.65820  Biso   1.000  H
  C57      1.0000 0.07600  0.20540  0.78760  Biso   1.000  C
  C58      1.0000 0.07600  0.29460  0.28760  Biso   1.000  C
  C59      1.0000 0.92400  0.79460  0.21240  Biso   1.000  C
  C60      1.0000 0.92400  0.70540  0.71240  Biso   1.000  C
  H49      1.0000 0.05120  0.21120  0.82830  Biso   1.000  H
  H50      1.0000 0.05120  0.28880  0.32830  Biso   1.000  H
  H51      1.0000 0.94880  0.78880  0.17170  Biso   1.000  H
  H52      1.0000 0.94880  0.71120  0.67170  Biso   1.000  H
  C61      1.0000 0.05070  0.23790  0.71830  Biso   1.000  C
  C62      1.0000 0.05070  0.26210  0.21830  Biso   1.000  C
  C63      1.0000 0.94930  0.76210  0.28170  Biso   1.000  C
  C64      1.0000 0.94930  0.73790  0.78170  Biso   1.000  C
  H53      1.0000 0.00860  0.26360  0.71220  Biso   1.000  H
  H54      1.0000 0.00860  0.23640  0.21220  Biso   1.000  H
  H55      1.0000 0.99140  0.73640  0.28780  Biso   1.000  H
  H56      1.0000 0.99140  0.76360  0.78780  Biso   1.000  H
  C65      1.0000 0.08830  0.23210  0.65870  Biso   1.000  C
  C66      1.0000 0.08830  0.26790  0.15870  Biso   1.000  C
  C67      1.0000 0.91170  0.76790  0.34130  Biso   1.000  C
  C68      1.0000 0.91170  0.73210  0.84130  Biso   1.000  C
  H57      1.0000 0.07070  0.25740  0.61290  Biso   1.000  H
  H58      1.0000 0.07070  0.24260  0.11290  Biso   1.000  H
  H59      1.0000 0.92930  0.74260  0.38710  Biso   1.000  H
  H60      1.0000 0.92930  0.75740  0.88710  Biso   1.000  H
  C69      1.0000 0.15220  0.18950  0.66390  Biso   1.000  C
  C70      1.0000 0.15220  0.31050  0.16390  Biso   1.000  C
  C71      1.0000 0.84780  0.81050  0.33610  Biso   1.000  C
  C72      1.0000 0.84780  0.68950  0.83610  Biso   1.000  C
  C73      1.0000 0.18950  0.18990  0.59770  Biso   1.000  C
  C74      1.0000 0.18950  0.31010  0.09770  Biso   1.000  C
  C75      1.0000 0.81050  0.81010  0.40230  Biso   1.000  C
  C76      1.0000 0.81050  0.68990  0.90230  Biso   1.000  C
  C77      1.0000 0.15670  0.23290  0.52640  Biso   1.000  C
  C78      1.0000 0.15670  0.26710  0.02640  Biso   1.000  C
  C79      1.0000 0.84330  0.76710  0.47360  Biso   1.000  C
  C80      1.0000 0.84330  0.73290  0.97360  Biso   1.000  C
  H61      1.0000 0.18620  0.23460  0.48820  Biso   1.000  H
  H62      1.0000 0.18620  0.26540  0.98820  Biso   1.000  H
  H63      1.0000 0.81380  0.76540  0.51180  Biso   1.000  H
  H64      1.0000 0.81380  0.73460  0.01180  Biso   1.000  H
  H65      1.0000 0.12580  0.14040  0.51610  Biso   1.000  H
  H66      1.0000 0.12580  0.35960  0.01610  Biso   1.000  H
  H67      1.0000 0.87420  0.85960  0.48390  Biso   1.000  H
  H68      1.0000 0.87420  0.64040  0.98390  Biso   1.000  H
  H69      1.0000 0.13700  0.35110  0.52950  Biso   1.000  H
  H70      1.0000 0.13700  0.14890  0.02950  Biso   1.000  H
  H71      1.0000 0.86300  0.64890  0.47050  Biso   1.000  H
  H72      1.0000 0.86300  0.85110  0.97050  Biso   1.000  H
  C81      1.0000 0.28450  0.16080  0.53480  Biso   1.000  C
  C82      1.0000 0.28450  0.33920  0.03480  Biso   1.000  C
  C83      1.0000 0.71550  0.83920  0.46520  Biso   1.000  C
  C84      1.0000 0.71550  0.66080  0.96520  Biso   1.000  C
  H73      1.0000 0.26870  0.07160  0.49960  Biso   1.000  H
  H74      1.0000 0.26870  0.42840  0.99960  Biso   1.000  H
  H75      1.0000 0.73130  0.92840  0.50040  Biso   1.000  H
  H76      1.0000 0.73130  0.57160  0.00040  Biso   1.000  H
  H77      1.0000 0.28090  0.28210  0.51300  Biso   1.000  H
  H78      1.0000 0.28090  0.21790  0.01300  Biso   1.000  H
  H79      1.0000 0.71910  0.71790  0.48700  Biso   1.000  H
  H80      1.0000 0.71910  0.78210  0.98700  Biso   1.000  H
  C85      1.0000 0.35190  0.12020  0.55280  Biso   1.000  C
  C86      1.0000 0.35190  0.37980  0.05280  Biso   1.000  C
  C87      1.0000 0.64810  0.87980  0.44720  Biso   1.000  C
  C88      1.0000 0.64810  0.62020  0.94720  Biso   1.000  C
  C89      1.0000 0.42300  0.00760  0.64820  Biso   1.000  C
  C90      1.0000 0.42300  0.49240  0.14820  Biso   1.000  C
  C91      1.0000 0.57700  0.99240  0.35180  Biso   1.000  C
  C92      1.0000 0.57700  0.50760  0.85180  Biso   1.000  C
  H81      1.0000 0.43870  0.90000  0.62350  Biso   1.000  H
  H82      1.0000 0.43870  0.60000  0.12350  Biso   1.000  H
  H83      1.0000 0.56130  0.10000  0.37650  Biso   1.000  H
  H84      1.0000 0.56130  0.40000  0.87650  Biso   1.000  H
  H85      1.0000 0.45210  0.10800  0.64240  Biso   1.000  H
  H86      1.0000 0.45210  0.39200  0.14240  Biso   1.000  H
  H87      1.0000 0.54790  0.89200  0.35760  Biso   1.000  H
  H88      1.0000 0.54790  0.60800  0.85760  Biso   1.000  H
  C93      1.0000 0.41440  0.96620  0.72940  Biso   1.000  C
  C94      1.0000 0.41440  0.53380  0.22940  Biso   1.000  C
  C95      1.0000 0.58560  0.03380  0.27060  Biso   1.000  C
  C96      1.0000 0.58560  0.46620  0.77060  Biso   1.000  C
  N1       1.0000 0.21919  0.65960  0.67360  Biso   1.000  N
  N2       1.0000 0.21919  0.84040  0.17360  Biso   1.000  N
  N3       1.0000 0.78081  0.34040  0.32640  Biso   1.000  N
  N4       1.0000 0.78081  0.15960  0.82640  Biso   1.000  N
  N5       1.0000 0.33440  0.56350  0.68620  Biso   1.000  N
  N6       1.0000 0.33440  0.93650  0.18620  Biso   1.000  N
  N7       1.0000 0.66560  0.43650  0.31380  Biso   1.000  N
  N8       1.0000 0.66560  0.06350  0.81380  Biso   1.000  N
  N9       1.0000 0.24690  0.15330  0.60080  Biso   1.000  N
  N10      1.0000 0.24690  0.34670  0.10080  Biso   1.000  N
  N11      1.0000 0.75310  0.84670  0.39920  Biso   1.000  N
  N12      1.0000 0.75310  0.65330  0.89920  Biso   1.000  N
  N13      1.0000 0.36199  0.05790  0.61840  Biso   1.000  N
  N14      1.0000 0.36199  0.44210  0.11840  Biso   1.000  N
  N15      1.0000 0.63801  0.94210  0.38160  Biso   1.000  N
  N16      1.0000 0.63801  0.55790  0.88160  Biso   1.000  N
  O1       1.0000 0.23697  0.70370  0.52343  Biso   1.000  O
  O2       1.0000 0.23697  0.79630  0.02343  Biso   1.000  O
  O3       1.0000 0.76303  0.29630  0.47657  Biso   1.000  O
  O4       1.0000 0.76303  0.20370  0.97657  Biso   1.000  O
  O5       1.0000 0.33471  0.51140  0.80851  Biso   1.000  O
  O6       1.0000 0.33471  0.98860  0.30851  Biso   1.000  O
  O7       1.0000 0.66529  0.48860  0.19149  Biso   1.000  O
  O8       1.0000 0.66529  0.01140  0.69149  Biso   1.000  O
  O9       1.0000 0.36078  0.57230  0.55207  Biso   1.000  O
  O10      1.0000 0.36078  0.92770  0.05207  Biso   1.000  O
  O11      1.0000 0.63922  0.42770  0.44793  Biso   1.000  O
  O12      1.0000 0.63922  0.07230  0.94793  Biso   1.000  O
  O13      1.0000 0.45948  0.49870  0.56761  Biso   1.000  O
  O14      1.0000 0.45948  0.00130  0.06761  Biso   1.000  O
  O15      1.0000 0.54052  0.50130  0.43239  Biso   1.000  O
  O16      1.0000 0.54052  0.99870  0.93239  Biso   1.000  O
  O17      1.0000 0.23414  0.10020  0.75000  Biso   1.000  O
  O18      1.0000 0.23414  0.39980  0.25000  Biso   1.000  O
  O19      1.0000 0.76586  0.89980  0.25000  Biso   1.000  O
  O20      1.0000 0.76586  0.60020  0.75000  Biso   1.000  O
  O21      1.0000 0.39202  0.14200  0.50495  Biso   1.000  O
  O22      1.0000 0.39202  0.35800  0.00495  Biso   1.000  O
  O23      1.0000 0.60798  0.85800  0.49505  Biso   1.000  O
  O24      1.0000 0.60798  0.64200  0.99505  Biso   1.000  O
  O25      1.0000 0.36180  0.99820  0.75611  Biso   1.000  O
  O26      1.0000 0.36180  0.50180  0.25611  Biso   1.000  O
  O27      1.0000 0.63820  0.00180  0.24389  Biso   1.000  O
  O28      1.0000 0.63820  0.49820  0.74389  Biso   1.000  O
  O29      1.0000 0.45898  0.90740  0.76537  Biso   1.000  O
  O30      1.0000 0.45898  0.59260  0.26537  Biso   1.000  O
  O31      1.0000 0.54102  0.09260  0.23463  Biso   1.000  O
  O32      1.0000 0.54102  0.40740  0.73463  Biso   1.000  O
  O33      1.0000 0.44498  0.17610  0.33308  Biso   1.000  O
  O34      1.0000 0.44498  0.32390  0.83308  Biso   1.000  O
  O35      1.0000 0.55502  0.82390  0.66692  Biso   1.000  O
  O36      1.0000 0.55502  0.67610  0.16692  Biso   1.000  O
  H89      1.0000 0.41500  0.14840  0.30400  Biso   1.000  H
  H90      1.0000 0.41500  0.35160  0.80400  Biso   1.000  H
  H91      1.0000 0.58500  0.85160  0.69600  Biso   1.000  H
  H92      1.0000 0.58500  0.64840  0.19600  Biso   1.000  H
  H93      1.0000 0.47700  0.20030  0.30880  Biso   1.000  H
  H94      1.0000 0.47700  0.29970  0.80880  Biso   1.000  H
  H95      1.0000 0.52300  0.79970  0.69120  Biso   1.000  H
  H96      1.0000 0.52300  0.70030  0.19120  Biso   1.000  H
  O37      1.0000 0.45601  0.82840  0.45220  Biso   1.000  O
  O38      1.0000 0.45601  0.67160  0.95220  Biso   1.000  O
  O39      1.0000 0.54399  0.17160  0.54780  Biso   1.000  O
  O40      1.0000 0.54399  0.32840  0.04780  Biso   1.000  O
  H97      1.0000 0.43210  0.92130  0.45010  Biso   1.000  H
  H98      1.0000 0.43210  0.57870  0.95010  Biso   1.000  H
  H99      1.0000 0.56790  0.07870  0.54990  Biso   1.000  H
  H100     1.0000 0.56790  0.42130  0.04990  Biso   1.000  H
  H101     1.0000 0.49300  0.86370  0.46160  Biso   1.000  H
  H102     1.0000 0.49300  0.63630  0.96160  Biso   1.000  H
  H103     1.0000 0.50700  0.13630  0.53840  Biso   1.000  H
  H104     1.0000 0.50700  0.36370  0.03840  Biso   1.000  H
  O41      1.0000 0.31107  0.70890  0.40323  Biso   1.000  O
  O42      1.0000 0.31107  0.79110  0.90323  Biso   1.000  O
  O43      1.0000 0.68893  0.29110  0.59677  Biso   1.000  O
  O44      1.0000 0.68893  0.20890  0.09677  Biso   1.000  O
  H105     1.0000 0.29740  0.72690  0.44570  Biso   1.000  H
  H106     1.0000 0.29740  0.77310  0.94570  Biso   1.000  H
  H107     1.0000 0.70260  0.27310  0.55430  Biso   1.000  H
  H108     1.0000 0.70260  0.22690  0.05430  Biso   1.000  H
  H109     1.0000 0.32150  0.81120  0.38480  Biso   1.000  H
  H110     1.0000 0.32150  0.68880  0.88480  Biso   1.000  H
  H111     1.0000 0.67850  0.18880  0.61520  Biso   1.000  H
  H112     1.0000 0.67850  0.31120  0.11520  Biso   1.000  H
  O45      1.0000 0.29691  0.30840  0.38296  Biso   1.000  O
  O46      1.0000 0.29691  0.19160  0.88296  Biso   1.000  O
  O47      1.0000 0.70309  0.69160  0.61704  Biso   1.000  O
  O48      1.0000 0.70309  0.80840  0.11704  Biso   1.000  O
  H113     1.0000 0.29080  0.30600  0.33700  Biso   1.000  H
  H114     1.0000 0.29080  0.19400  0.83700  Biso   1.000  H
  H115     1.0000 0.70920  0.69400  0.66300  Biso   1.000  H
  H116     1.0000 0.70920  0.80600  0.16300  Biso   1.000  H
  H117     1.0000 0.29700  0.19810  0.39840  Biso   1.000  H
  H118     1.0000 0.29700  0.30190  0.89840  Biso   1.000  H
  H119     1.0000 0.70300  0.80190  0.60160  Biso   1.000  H
  H120     1.0000 0.70300  0.69810  0.10160  Biso   1.000  H
