data_image0
_cell_length_a       7.321
_cell_length_b       7.441
_cell_length_c       9.3
_cell_angle_alpha    83.488
_cell_angle_beta     86.79
_cell_angle_gamma    72.349

_symmetry_space_group_name_H-M    "P 1"
_symmetry_int_tables_number       1

loop_
  _symmetry_equiv_pos_as_xyz
  'x, y, z'

loop_
  _atom_site_label
  _atom_site_occupancy
  _atom_site_fract_x
  _atom_site_fract_y
  _atom_site_fract_z
  _atom_site_thermal_displace_type
  _atom_site_B_iso_or_equiv
  _atom_site_type_symbol
  Cd1      1.0000 0.00000  0.50000  0.50000  Biso   1.000  Cd
  Cu1      1.0000 0.50000  0.50000  0.00000  Biso   1.000  Cu
  N1       1.0000 0.47390  0.60670  0.78120  Biso   1.000  N
  N2       1.0000 0.52610  0.39330  0.21880  Biso   1.000  N
  C1       1.0000 0.18040  0.80780  0.87840  Biso   1.000  C
  C2       1.0000 0.81960  0.19220  0.12160  Biso   1.000  C
  C3       1.0000 0.34610  0.80450  0.77490  Biso   1.000  C
  C4       1.0000 0.65390  0.19550  0.22510  Biso   1.000  C
  N3       1.0000 0.25690  0.72660  0.02250  Biso   1.000  N
  N4       1.0000 0.74310  0.27340  0.97750  Biso   1.000  N
  S1       1.0000 0.72625  0.75715  0.01154  Biso   1.000  S
  S2       1.0000 0.27375  0.24285  0.98846  Biso   1.000  S
  C5       1.0000 0.81210  0.68590  0.17180  Biso   1.000  C
  C6       1.0000 0.18790  0.31410  0.82820  Biso   1.000  C
  N5       1.0000 0.87470  0.63610  0.28400  Biso   1.000  N
  N6       1.0000 0.12530  0.36390  0.71600  Biso   1.000  N
  N7       1.0000 0.27970  0.92230  0.30960  Biso   1.000  N
  N8       1.0000 0.72030  0.07770  0.69040  Biso   1.000  N
  C7       1.0000 0.25860  0.77890  0.39390  Biso   1.000  C
  C8       1.0000 0.74140  0.22110  0.60610  Biso   1.000  C
  N9       1.0000 0.24240  0.64430  0.45610  Biso   1.000  N
  N10      1.0000 0.75760  0.35570  0.54390  Biso   1.000  N
  C9       1.0000 0.23180  0.08880  0.35750  Biso   1.000  C
  C10      1.0000 0.76820  0.91120  0.64250  Biso   1.000  C
  N11      1.0000 0.19200  0.24190  0.38630  Biso   1.000  N
  N12      1.0000 0.80800  0.75810  0.61370  Biso   1.000  N
  H1       1.0000 0.10712  0.73473  0.84729  Biso   1.000  H
  H2       1.0000 0.89288  0.26527  0.15271  Biso   1.000  H
  H3       1.0000 0.10185  0.93469  0.88356  Biso   1.000  H
  H4       1.0000 0.89815  0.06531  0.11644  Biso   1.000  H
  H5       1.0000 0.30075  0.84585  0.67970  Biso   1.000  H
  H6       1.0000 0.69925  0.15415  0.32030  Biso   1.000  H
  H7       1.0000 0.41432  0.88522  0.80230  Biso   1.000  H
  H8       1.0000 0.58568  0.11478  0.19770  Biso   1.000  H
  H9       1.0000 0.42152  0.53503  0.73174  Biso   1.000  H
  H10      1.0000 0.57848  0.46497  0.26826  Biso   1.000  H
  H11      1.0000 0.59247  0.60440  0.74174  Biso   1.000  H
  H12      1.0000 0.40753  0.39560  0.25826  Biso   1.000  H
  H13      1.0000 0.28753  0.81747  0.06729  Biso   1.000  H
  H14      1.0000 0.71247  0.18253  0.93271  Biso   1.000  H
  H15      1.0000 0.16601  0.68587  0.07756  Biso   1.000  H
  H16      1.0000 0.83399  0.31413  0.92244  Biso   1.000  H
