data_image0
_cell_length_a       11.5377
_cell_length_b       23.293
_cell_length_c       16.2888
_cell_angle_alpha    90
_cell_angle_beta     90
_cell_angle_gamma    90

_symmetry_space_group_name_H-M    "P 1"
_symmetry_int_tables_number       1

loop_
  _symmetry_equiv_pos_as_xyz
  'x, y, z'

loop_
  _atom_site_label
  _atom_site_occupancy
  _atom_site_fract_x
  _atom_site_fract_y
  _atom_site_fract_z
  _atom_site_thermal_displace_type
  _atom_site_B_iso_or_equiv
  _atom_site_type_symbol
  C1       1.0000 0.44200  0.44140  0.58760  Biso   1.000  C
  C2       1.0000 0.05800  0.55860  0.08760  Biso   1.000  C
  C3       1.0000 0.94200  0.05860  0.91240  Biso   1.000  C
  C4       1.0000 0.55800  0.94140  0.41240  Biso   1.000  C
  C5       1.0000 0.55800  0.55860  0.41240  Biso   1.000  C
  C6       1.0000 0.94200  0.44140  0.91240  Biso   1.000  C
  C7       1.0000 0.05800  0.94140  0.08760  Biso   1.000  C
  C8       1.0000 0.44200  0.05860  0.58760  Biso   1.000  C
  H1       1.0000 0.51830  0.43230  0.57470  Biso   1.000  H
  H2       1.0000 0.98170  0.56770  0.07470  Biso   1.000  H
  H3       1.0000 0.01830  0.06770  0.92530  Biso   1.000  H
  H4       1.0000 0.48170  0.93230  0.42530  Biso   1.000  H
  H5       1.0000 0.48170  0.56770  0.42530  Biso   1.000  H
  H6       1.0000 0.01830  0.43230  0.92530  Biso   1.000  H
  H7       1.0000 0.98170  0.93230  0.07470  Biso   1.000  H
  H8       1.0000 0.51830  0.06770  0.57470  Biso   1.000  H
  C9       1.0000 0.36400  0.39860  0.60650  Biso   1.000  C
  C10      1.0000 0.13600  0.60140  0.10650  Biso   1.000  C
  C11      1.0000 0.86400  0.10140  0.89350  Biso   1.000  C
  C12      1.0000 0.63600  0.89860  0.39350  Biso   1.000  C
  C13      1.0000 0.63600  0.60140  0.39350  Biso   1.000  C
  C14      1.0000 0.86400  0.39860  0.89350  Biso   1.000  C
  C15      1.0000 0.13600  0.89860  0.10650  Biso   1.000  C
  C16      1.0000 0.36400  0.10140  0.60650  Biso   1.000  C
  H9       1.0000 0.38760  0.36050  0.60470  Biso   1.000  H
  H10      1.0000 0.11240  0.63950  0.10470  Biso   1.000  H
  H11      1.0000 0.88760  0.13950  0.89530  Biso   1.000  H
  H12      1.0000 0.61240  0.86050  0.39530  Biso   1.000  H
  H13      1.0000 0.61240  0.63950  0.39530  Biso   1.000  H
  H14      1.0000 0.88760  0.36050  0.89530  Biso   1.000  H
  H15      1.0000 0.11240  0.86050  0.10470  Biso   1.000  H
  H16      1.0000 0.38760  0.13950  0.60470  Biso   1.000  H
  C17      1.0000 0.40610  0.49730  0.58790  Biso   1.000  C
  C18      1.0000 0.09390  0.50270  0.08790  Biso   1.000  C
  C19      1.0000 0.90610  0.00270  0.91210  Biso   1.000  C
  C20      1.0000 0.59390  0.99730  0.41210  Biso   1.000  C
  C21      1.0000 0.59390  0.50270  0.41210  Biso   1.000  C
  C22      1.0000 0.90610  0.49730  0.91210  Biso   1.000  C
  C23      1.0000 0.09390  0.99730  0.08790  Biso   1.000  C
  C24      1.0000 0.40610  0.00270  0.58790  Biso   1.000  C
  H17      1.0000 0.45840  0.52640  0.57520  Biso   1.000  H
  H18      1.0000 0.04160  0.47360  0.07520  Biso   1.000  H
  H19      1.0000 0.95840  0.97360  0.92480  Biso   1.000  H
  H20      1.0000 0.54160  0.02640  0.42480  Biso   1.000  H
  H21      1.0000 0.54160  0.47360  0.42480  Biso   1.000  H
  H22      1.0000 0.95840  0.52640  0.92480  Biso   1.000  H
  H23      1.0000 0.04160  0.02640  0.07520  Biso   1.000  H
  H24      1.0000 0.45840  0.97360  0.57520  Biso   1.000  H
  C25      1.0000 0.25170  0.41170  0.62790  Biso   1.000  C
  C26      1.0000 0.24830  0.58830  0.12790  Biso   1.000  C
  C27      1.0000 0.75170  0.08830  0.87210  Biso   1.000  C
  C28      1.0000 0.74830  0.91170  0.37210  Biso   1.000  C
  C29      1.0000 0.74830  0.58830  0.37210  Biso   1.000  C
  C30      1.0000 0.75170  0.41170  0.87210  Biso   1.000  C
  C31      1.0000 0.24830  0.91170  0.12790  Biso   1.000  C
  C32      1.0000 0.25170  0.08830  0.62790  Biso   1.000  C
  H25      1.0000 0.20080  0.38240  0.64240  Biso   1.000  H
  H26      1.0000 0.29920  0.61760  0.14240  Biso   1.000  H
  H27      1.0000 0.70080  0.11760  0.85760  Biso   1.000  H
  H28      1.0000 0.79920  0.88240  0.35760  Biso   1.000  H
  H29      1.0000 0.79920  0.61760  0.35760  Biso   1.000  H
  H30      1.0000 0.70080  0.38240  0.85760  Biso   1.000  H
  H31      1.0000 0.29920  0.88240  0.14240  Biso   1.000  H
  H32      1.0000 0.20080  0.11760  0.64240  Biso   1.000  H
  C33      1.0000 0.29100  0.51130  0.60710  Biso   1.000  C
  C34      1.0000 0.20900  0.48870  0.10710  Biso   1.000  C
  C35      1.0000 0.79100  0.98870  0.89290  Biso   1.000  C
  C36      1.0000 0.70900  0.01130  0.39290  Biso   1.000  C
  C37      1.0000 0.70900  0.48870  0.39290  Biso   1.000  C
  C38      1.0000 0.79100  0.51130  0.89290  Biso   1.000  C
  C39      1.0000 0.20900  0.01130  0.10710  Biso   1.000  C
  C40      1.0000 0.29100  0.98870  0.60710  Biso   1.000  C
  H33      1.0000 0.26680  0.54930  0.60580  Biso   1.000  H
  H34      1.0000 0.23320  0.45070  0.10580  Biso   1.000  H
  H35      1.0000 0.76680  0.95070  0.89420  Biso   1.000  H
  H36      1.0000 0.73320  0.04930  0.39420  Biso   1.000  H
  H37      1.0000 0.73320  0.45070  0.39420  Biso   1.000  H
  H38      1.0000 0.76680  0.54930  0.89420  Biso   1.000  H
  H39      1.0000 0.23320  0.04930  0.10580  Biso   1.000  H
  H40      1.0000 0.26680  0.95070  0.60580  Biso   1.000  H
  C41      1.0000 0.21370  0.46830  0.62800  Biso   1.000  C
  C42      1.0000 0.28630  0.53170  0.12800  Biso   1.000  C
  C43      1.0000 0.71370  0.03170  0.87200  Biso   1.000  C
  C44      1.0000 0.78630  0.96830  0.37200  Biso   1.000  C
  C45      1.0000 0.78630  0.53170  0.37200  Biso   1.000  C
  C46      1.0000 0.71370  0.46830  0.87200  Biso   1.000  C
  C47      1.0000 0.28630  0.96830  0.12800  Biso   1.000  C
  C48      1.0000 0.21370  0.03170  0.62800  Biso   1.000  C
  C49      1.0000 0.03770  0.61914  0.81480  Biso   1.000  C
  C50      1.0000 0.46230  0.38086  0.31480  Biso   1.000  C
  C51      1.0000 0.53770  0.88086  0.68520  Biso   1.000  C
  C52      1.0000 0.96230  0.11914  0.18520  Biso   1.000  C
  C53      1.0000 0.96230  0.38086  0.18520  Biso   1.000  C
  C54      1.0000 0.53770  0.61914  0.68520  Biso   1.000  C
  C55      1.0000 0.46230  0.11914  0.31480  Biso   1.000  C
  C56      1.0000 0.03770  0.88086  0.81480  Biso   1.000  C
  C57      1.0000 0.13660  0.58590  0.82090  Biso   1.000  C
  C58      1.0000 0.36340  0.41410  0.32090  Biso   1.000  C
  C59      1.0000 0.63660  0.91410  0.67910  Biso   1.000  C
  C60      1.0000 0.86340  0.08590  0.17910  Biso   1.000  C
  C61      1.0000 0.86340  0.41410  0.17910  Biso   1.000  C
  C62      1.0000 0.63660  0.58590  0.67910  Biso   1.000  C
  C63      1.0000 0.36340  0.08590  0.32090  Biso   1.000  C
  C64      1.0000 0.13660  0.91410  0.82090  Biso   1.000  C
  H41      1.0000 0.19090  0.59460  0.86120  Biso   1.000  H
  H42      1.0000 0.30910  0.40540  0.36120  Biso   1.000  H
  H43      1.0000 0.69090  0.90540  0.63880  Biso   1.000  H
  H44      1.0000 0.80910  0.09460  0.13880  Biso   1.000  H
  H45      1.0000 0.80910  0.40540  0.13880  Biso   1.000  H
  H46      1.0000 0.69090  0.59460  0.63880  Biso   1.000  H
  H47      1.0000 0.30910  0.09460  0.36120  Biso   1.000  H
  H48      1.0000 0.19090  0.90540  0.86120  Biso   1.000  H
  C65      1.0000 0.15710  0.54030  0.76860  Biso   1.000  C
  C66      1.0000 0.34290  0.45970  0.26860  Biso   1.000  C
  C67      1.0000 0.65710  0.95970  0.73140  Biso   1.000  C
  C68      1.0000 0.84290  0.04030  0.23140  Biso   1.000  C
  C69      1.0000 0.84290  0.45970  0.23140  Biso   1.000  C
  C70      1.0000 0.65710  0.54030  0.73140  Biso   1.000  C
  C71      1.0000 0.34290  0.04030  0.26860  Biso   1.000  C
  C72      1.0000 0.15710  0.95970  0.76860  Biso   1.000  C
  H49      1.0000 0.22340  0.51800  0.77500  Biso   1.000  H
  H50      1.0000 0.27660  0.48200  0.27500  Biso   1.000  H
  H51      1.0000 0.72340  0.98200  0.72500  Biso   1.000  H
  H52      1.0000 0.77660  0.01800  0.22500  Biso   1.000  H
  H53      1.0000 0.77660  0.48200  0.22500  Biso   1.000  H
  H54      1.0000 0.72340  0.51800  0.72500  Biso   1.000  H
  H55      1.0000 0.27660  0.01800  0.27500  Biso   1.000  H
  H56      1.0000 0.22340  0.98200  0.77500  Biso   1.000  H
  C73      1.0000 0.95940  0.60615  0.75330  Biso   1.000  C
  C74      1.0000 0.54060  0.39385  0.25330  Biso   1.000  C
  C75      1.0000 0.45940  0.89385  0.74670  Biso   1.000  C
  C76      1.0000 0.04060  0.10615  0.24670  Biso   1.000  C
  C77      1.0000 0.04060  0.39385  0.24670  Biso   1.000  C
  C78      1.0000 0.45940  0.60615  0.74670  Biso   1.000  C
  C79      1.0000 0.54060  0.10615  0.25330  Biso   1.000  C
  C80      1.0000 0.95940  0.89385  0.75330  Biso   1.000  C
  H57      1.0000 0.89200  0.62780  0.74840  Biso   1.000  H
  H58      1.0000 0.60800  0.37220  0.24840  Biso   1.000  H
  H59      1.0000 0.39200  0.87220  0.75160  Biso   1.000  H
  H60      1.0000 0.10800  0.12780  0.25160  Biso   1.000  H
  H61      1.0000 0.10800  0.37220  0.25160  Biso   1.000  H
  H62      1.0000 0.39200  0.62780  0.75160  Biso   1.000  H
  H63      1.0000 0.60800  0.12780  0.24840  Biso   1.000  H
  H64      1.0000 0.89200  0.87220  0.74840  Biso   1.000  H
  C81      1.0000 0.97940  0.56150  0.69900  Biso   1.000  C
  C82      1.0000 0.52060  0.43850  0.19900  Biso   1.000  C
  C83      1.0000 0.47940  0.93850  0.80100  Biso   1.000  C
  C84      1.0000 0.02060  0.06150  0.30100  Biso   1.000  C
  C85      1.0000 0.02060  0.43850  0.30100  Biso   1.000  C
  C86      1.0000 0.47940  0.56150  0.80100  Biso   1.000  C
  C87      1.0000 0.52060  0.06150  0.19900  Biso   1.000  C
  C88      1.0000 0.97940  0.93850  0.69900  Biso   1.000  C
  H65      1.0000 0.92650  0.55390  0.65720  Biso   1.000  H
  H66      1.0000 0.57350  0.44610  0.15720  Biso   1.000  H
  H67      1.0000 0.42650  0.94610  0.84280  Biso   1.000  H
  H68      1.0000 0.07350  0.05390  0.34280  Biso   1.000  H
  H69      1.0000 0.07350  0.44610  0.34280  Biso   1.000  H
  H70      1.0000 0.42650  0.55390  0.84280  Biso   1.000  H
  H71      1.0000 0.57350  0.05390  0.15720  Biso   1.000  H
  H72      1.0000 0.92650  0.94610  0.65720  Biso   1.000  H
  C89      1.0000 0.07850  0.52780  0.70660  Biso   1.000  C
  C90      1.0000 0.42150  0.47220  0.20660  Biso   1.000  C
  C91      1.0000 0.57850  0.97220  0.79340  Biso   1.000  C
  C92      1.0000 0.92150  0.02780  0.29340  Biso   1.000  C
  C93      1.0000 0.92150  0.47220  0.29340  Biso   1.000  C
  C94      1.0000 0.57850  0.52780  0.79340  Biso   1.000  C
  C95      1.0000 0.42150  0.02780  0.20660  Biso   1.000  C
  C96      1.0000 0.07850  0.97220  0.70660  Biso   1.000  C
  C97      1.0000 0.00570  0.44710  0.62420  Biso   1.000  C
  C98      1.0000 0.49430  0.55290  0.12420  Biso   1.000  C
  C99      1.0000 0.50570  0.05290  0.87580  Biso   1.000  C
  C100     1.0000 0.99430  0.94710  0.37580  Biso   1.000  C
  C101     1.0000 0.99430  0.55290  0.37580  Biso   1.000  C
  C102     1.0000 0.50570  0.44710  0.87580  Biso   1.000  C
  C103     1.0000 0.49430  0.94710  0.12420  Biso   1.000  C
  C104     1.0000 0.00570  0.05290  0.62420  Biso   1.000  C
  C105     1.0000 0.00440  0.42600  0.54470  Biso   1.000  C
  C106     1.0000 0.49560  0.57400  0.04470  Biso   1.000  C
  C107     1.0000 0.50440  0.07400  0.95530  Biso   1.000  C
  C108     1.0000 0.99560  0.92600  0.45530  Biso   1.000  C
  C109     1.0000 0.99560  0.57400  0.45530  Biso   1.000  C
  C110     1.0000 0.50440  0.42600  0.95530  Biso   1.000  C
  C111     1.0000 0.49560  0.92600  0.04470  Biso   1.000  C
  C112     1.0000 0.00440  0.07400  0.54470  Biso   1.000  C
  H73      1.0000 0.06380  0.43550  0.50860  Biso   1.000  H
  H74      1.0000 0.43620  0.56450  0.00860  Biso   1.000  H
  H75      1.0000 0.56380  0.06450  0.99140  Biso   1.000  H
  H76      1.0000 0.93620  0.93550  0.49140  Biso   1.000  H
  H77      1.0000 0.93620  0.56450  0.49140  Biso   1.000  H
  H78      1.0000 0.56380  0.43550  0.99140  Biso   1.000  H
  H79      1.0000 0.43620  0.93550  0.00860  Biso   1.000  H
  H80      1.0000 0.06380  0.06450  0.50860  Biso   1.000  H
  C113     1.0000 0.91550  0.43290  0.67650  Biso   1.000  C
  C114     1.0000 0.58450  0.56710  0.17650  Biso   1.000  C
  C115     1.0000 0.41550  0.06710  0.82350  Biso   1.000  C
  C116     1.0000 0.08450  0.93290  0.32350  Biso   1.000  C
  C117     1.0000 0.08450  0.56710  0.32350  Biso   1.000  C
  C118     1.0000 0.41550  0.43290  0.82350  Biso   1.000  C
  C119     1.0000 0.58450  0.93290  0.17650  Biso   1.000  C
  C120     1.0000 0.91550  0.06710  0.67650  Biso   1.000  C
  H81      1.0000 0.91550  0.44680  0.73000  Biso   1.000  H
  H82      1.0000 0.58450  0.55320  0.23000  Biso   1.000  H
  H83      1.0000 0.41550  0.05320  0.77000  Biso   1.000  H
  H84      1.0000 0.08450  0.94680  0.27000  Biso   1.000  H
  H85      1.0000 0.08450  0.55320  0.27000  Biso   1.000  H
  H86      1.0000 0.41550  0.44680  0.77000  Biso   1.000  H
  H87      1.0000 0.58450  0.94680  0.23000  Biso   1.000  H
  H88      1.0000 0.91550  0.05320  0.73000  Biso   1.000  H
  C121     1.0000 0.91510  0.39090  0.51900  Biso   1.000  C
  C122     1.0000 0.58490  0.60910  0.01900  Biso   1.000  C
  C123     1.0000 0.41510  0.10910  0.98100  Biso   1.000  C
  C124     1.0000 0.08490  0.89090  0.48100  Biso   1.000  C
  C125     1.0000 0.08490  0.60910  0.48100  Biso   1.000  C
  C126     1.0000 0.41510  0.39090  0.98100  Biso   1.000  C
  C127     1.0000 0.58490  0.89090  0.01900  Biso   1.000  C
  C128     1.0000 0.91510  0.10910  0.51900  Biso   1.000  C
  H89      1.0000 0.91510  0.37680  0.46550  Biso   1.000  H
  H90      1.0000 0.58490  0.62320  0.96550  Biso   1.000  H
  H91      1.0000 0.41510  0.12320  0.03450  Biso   1.000  H
  H92      1.0000 0.08490  0.87680  0.53450  Biso   1.000  H
  H93      1.0000 0.08490  0.62320  0.53450  Biso   1.000  H
  H94      1.0000 0.41510  0.37680  0.03450  Biso   1.000  H
  H95      1.0000 0.58490  0.87680  0.96550  Biso   1.000  H
  H96      1.0000 0.91510  0.12320  0.46550  Biso   1.000  H
  C129     1.0000 0.82620  0.37640  0.57120  Biso   1.000  C
  C130     1.0000 0.67380  0.62360  0.07120  Biso   1.000  C
  C131     1.0000 0.32620  0.12360  0.92880  Biso   1.000  C
  C132     1.0000 0.17380  0.87640  0.42880  Biso   1.000  C
  C133     1.0000 0.17380  0.62360  0.42880  Biso   1.000  C
  C134     1.0000 0.32620  0.37640  0.92880  Biso   1.000  C
  C135     1.0000 0.67380  0.87640  0.07120  Biso   1.000  C
  C136     1.0000 0.82620  0.12360  0.57120  Biso   1.000  C
  C137     1.0000 0.82580  0.39860  0.65010  Biso   1.000  C
  C138     1.0000 0.67420  0.60140  0.15010  Biso   1.000  C
  C139     1.0000 0.32580  0.10140  0.84990  Biso   1.000  C
  C140     1.0000 0.17420  0.89860  0.34990  Biso   1.000  C
  C141     1.0000 0.17420  0.60140  0.34990  Biso   1.000  C
  C142     1.0000 0.32580  0.39860  0.84990  Biso   1.000  C
  C143     1.0000 0.67420  0.89860  0.15010  Biso   1.000  C
  C144     1.0000 0.82580  0.10140  0.65010  Biso   1.000  C
  H97      1.0000 0.76470  0.39020  0.68530  Biso   1.000  H
  H98      1.0000 0.73530  0.60980  0.18530  Biso   1.000  H
  H99      1.0000 0.26470  0.10980  0.81470  Biso   1.000  H
  H100     1.0000 0.23530  0.89020  0.31470  Biso   1.000  H
  H101     1.0000 0.23530  0.60980  0.31470  Biso   1.000  H
  H102     1.0000 0.26470  0.39020  0.81470  Biso   1.000  H
  H103     1.0000 0.73530  0.89020  0.18530  Biso   1.000  H
  H104     1.0000 0.76470  0.10980  0.68530  Biso   1.000  H
  C145     1.0000 0.73080  0.33600  0.54580  Biso   1.000  C
  C146     1.0000 0.76920  0.66400  0.04580  Biso   1.000  C
  C147     1.0000 0.23080  0.16400  0.95420  Biso   1.000  C
  C148     1.0000 0.26920  0.83600  0.45420  Biso   1.000  C
  C149     1.0000 0.26920  0.66400  0.45420  Biso   1.000  C
  C150     1.0000 0.23080  0.33600  0.95420  Biso   1.000  C
  C151     1.0000 0.76920  0.83600  0.04580  Biso   1.000  C
  C152     1.0000 0.73080  0.16400  0.54580  Biso   1.000  C
  C153     1.0000 0.01530  0.66713  0.87340  Biso   1.000  C
  C154     1.0000 0.48470  0.33287  0.37340  Biso   1.000  C
  C155     1.0000 0.51530  0.83287  0.62660  Biso   1.000  C
  C156     1.0000 0.98470  0.16713  0.12660  Biso   1.000  C
  C157     1.0000 0.98470  0.33287  0.12660  Biso   1.000  C
  C158     1.0000 0.51530  0.66713  0.62660  Biso   1.000  C
  C159     1.0000 0.48470  0.16713  0.37340  Biso   1.000  C
  C160     1.0000 0.01530  0.83287  0.87340  Biso   1.000  C
  N1       1.0000 0.21050  0.25000  0.43970  Biso   1.000  N
  N2       1.0000 0.28950  0.75000  0.93970  Biso   1.000  N
  N3       1.0000 0.71050  0.25000  0.06030  Biso   1.000  N
  N4       1.0000 0.78950  0.75000  0.56030  Biso   1.000  N
  C161     1.0000 0.19260  0.25000  0.35950  Biso   1.000  C
  C162     1.0000 0.30740  0.75000  0.85950  Biso   1.000  C
  C163     1.0000 0.69260  0.25000  0.14050  Biso   1.000  C
  C164     1.0000 0.80740  0.75000  0.64050  Biso   1.000  C
  H105     1.0000 0.25610  0.25000  0.32440  Biso   1.000  H
  H106     1.0000 0.24390  0.75000  0.82440  Biso   1.000  H
  H107     1.0000 0.75610  0.25000  0.17560  Biso   1.000  H
  H108     1.0000 0.74390  0.75000  0.67560  Biso   1.000  H
  C165     1.0000 0.08180  0.25000  0.32630  Biso   1.000  C
  C166     1.0000 0.41820  0.75000  0.82630  Biso   1.000  C
  C167     1.0000 0.58180  0.25000  0.17370  Biso   1.000  C
  C168     1.0000 0.91820  0.75000  0.67370  Biso   1.000  C
  H109     1.0000 0.07110  0.25000  0.26970  Biso   1.000  H
  H110     1.0000 0.42890  0.75000  0.76970  Biso   1.000  H
  H111     1.0000 0.57110  0.25000  0.23030  Biso   1.000  H
  H112     1.0000 0.92890  0.75000  0.73030  Biso   1.000  H
  C169     1.0000 0.98930  0.25000  0.37770  Biso   1.000  C
  C170     1.0000 0.51070  0.75000  0.87770  Biso   1.000  C
  C171     1.0000 0.48930  0.25000  0.12230  Biso   1.000  C
  C172     1.0000 0.01070  0.75000  0.62230  Biso   1.000  C
  H113     1.0000 0.91420  0.25000  0.35700  Biso   1.000  H
  H114     1.0000 0.58580  0.75000  0.85700  Biso   1.000  H
  H115     1.0000 0.41420  0.25000  0.14300  Biso   1.000  H
  H116     1.0000 0.08580  0.75000  0.64300  Biso   1.000  H
  C173     1.0000 0.00810  0.25000  0.45920  Biso   1.000  C
  C174     1.0000 0.49190  0.75000  0.95920  Biso   1.000  C
  C175     1.0000 0.50810  0.25000  0.04080  Biso   1.000  C
  C176     1.0000 0.99190  0.75000  0.54080  Biso   1.000  C
  H117     1.0000 0.94520  0.25000  0.49490  Biso   1.000  H
  H118     1.0000 0.55480  0.75000  0.99490  Biso   1.000  H
  H119     1.0000 0.44520  0.25000  0.00510  Biso   1.000  H
  H120     1.0000 0.05480  0.75000  0.50510  Biso   1.000  H
  C177     1.0000 0.11720  0.25000  0.49020  Biso   1.000  C
  C178     1.0000 0.38280  0.75000  0.99020  Biso   1.000  C
  C179     1.0000 0.61720  0.25000  0.00980  Biso   1.000  C
  C180     1.0000 0.88280  0.75000  0.50980  Biso   1.000  C
  C181     1.0000 0.14710  0.25000  0.57760  Biso   1.000  C
  C182     1.0000 0.35290  0.75000  0.07760  Biso   1.000  C
  C183     1.0000 0.64710  0.25000  0.92240  Biso   1.000  C
  C184     1.0000 0.85290  0.75000  0.42240  Biso   1.000  C
  N5       1.0000 0.26050  0.25000  0.59360  Biso   1.000  N
  N6       1.0000 0.23950  0.75000  0.09360  Biso   1.000  N
  N7       1.0000 0.76050  0.25000  0.90640  Biso   1.000  N
  N8       1.0000 0.73950  0.75000  0.40640  Biso   1.000  N
  C185     1.0000 0.29450  0.25000  0.67110  Biso   1.000  C
  C186     1.0000 0.20550  0.75000  0.17110  Biso   1.000  C
  C187     1.0000 0.79450  0.25000  0.82890  Biso   1.000  C
  C188     1.0000 0.70550  0.75000  0.32890  Biso   1.000  C
  H121     1.0000 0.37380  0.25000  0.68120  Biso   1.000  H
  H122     1.0000 0.12620  0.75000  0.18120  Biso   1.000  H
  H123     1.0000 0.87380  0.25000  0.81880  Biso   1.000  H
  H124     1.0000 0.62620  0.75000  0.31880  Biso   1.000  H
  C189     1.0000 0.22250  0.25000  0.73760  Biso   1.000  C
  C190     1.0000 0.27750  0.75000  0.23760  Biso   1.000  C
  C191     1.0000 0.72250  0.25000  0.76240  Biso   1.000  C
  C192     1.0000 0.77750  0.75000  0.26240  Biso   1.000  C
  H125     1.0000 0.25070  0.25000  0.79110  Biso   1.000  H
  H126     1.0000 0.24930  0.75000  0.29110  Biso   1.000  H
  H127     1.0000 0.75070  0.25000  0.70890  Biso   1.000  H
  H128     1.0000 0.74930  0.75000  0.20890  Biso   1.000  H
  C193     1.0000 0.06670  0.25000  0.64120  Biso   1.000  C
  C194     1.0000 0.43330  0.75000  0.14120  Biso   1.000  C
  C195     1.0000 0.56670  0.25000  0.85880  Biso   1.000  C
  C196     1.0000 0.93330  0.75000  0.35880  Biso   1.000  C
  H129     1.0000 0.98740  0.25000  0.63070  Biso   1.000  H
  H130     1.0000 0.51260  0.75000  0.13070  Biso   1.000  H
  H131     1.0000 0.48740  0.25000  0.86930  Biso   1.000  H
  H132     1.0000 0.01260  0.75000  0.36930  Biso   1.000  H
  C197     1.0000 0.10940  0.25000  0.72130  Biso   1.000  C
  C198     1.0000 0.39060  0.75000  0.22130  Biso   1.000  C
  C199     1.0000 0.60940  0.25000  0.77870  Biso   1.000  C
  C200     1.0000 0.89060  0.75000  0.27870  Biso   1.000  C
  H133     1.0000 0.05720  0.25000  0.76480  Biso   1.000  H
  H134     1.0000 0.44280  0.75000  0.26480  Biso   1.000  H
  H135     1.0000 0.55720  0.25000  0.73520  Biso   1.000  H
  H136     1.0000 0.94280  0.75000  0.23520  Biso   1.000  H
  N9       1.0000 0.09890  0.48257  0.65120  Biso   1.000  N
  N10      1.0000 0.40110  0.51743  0.15120  Biso   1.000  N
  N11      1.0000 0.59890  0.01743  0.84880  Biso   1.000  N
  N12      1.0000 0.90110  0.98257  0.34880  Biso   1.000  N
  N13      1.0000 0.90110  0.51743  0.34880  Biso   1.000  N
  N14      1.0000 0.59890  0.48257  0.84880  Biso   1.000  N
  N15      1.0000 0.40110  0.98257  0.15120  Biso   1.000  N
  N16      1.0000 0.09890  0.01743  0.65120  Biso   1.000  N
  O1       1.0000 0.09280  0.67984  0.92360  Biso   1.000  O
  O2       1.0000 0.40720  0.32016  0.42360  Biso   1.000  O
  O3       1.0000 0.59280  0.82016  0.57640  Biso   1.000  O
  O4       1.0000 0.90720  0.17984  0.07640  Biso   1.000  O
  O5       1.0000 0.90720  0.32016  0.07640  Biso   1.000  O
  O6       1.0000 0.59280  0.67984  0.57640  Biso   1.000  O
  O7       1.0000 0.40720  0.17984  0.42360  Biso   1.000  O
  O8       1.0000 0.09280  0.82016  0.92360  Biso   1.000  O
  O9       1.0000 0.91910  0.69169  0.86680  Biso   1.000  O
  O10      1.0000 0.58090  0.30831  0.36680  Biso   1.000  O
  O11      1.0000 0.41910  0.80831  0.63320  Biso   1.000  O
  O12      1.0000 0.08090  0.19169  0.13320  Biso   1.000  O
  O13      1.0000 0.08090  0.30831  0.13320  Biso   1.000  O
  O14      1.0000 0.41910  0.69169  0.63320  Biso   1.000  O
  O15      1.0000 0.58090  0.19169  0.36680  Biso   1.000  O
  O16      1.0000 0.91910  0.80831  0.86680  Biso   1.000  O
  O17      1.0000 0.64390  0.33130  0.58910  Biso   1.000  O
  O18      1.0000 0.85610  0.66870  0.08910  Biso   1.000  O
  O19      1.0000 0.14390  0.16870  0.91090  Biso   1.000  O
  O20      1.0000 0.35610  0.83130  0.41090  Biso   1.000  O
  O21      1.0000 0.35610  0.66870  0.41090  Biso   1.000  O
  O22      1.0000 0.14390  0.33130  0.91090  Biso   1.000  O
  O23      1.0000 0.85610  0.83130  0.08910  Biso   1.000  O
  O24      1.0000 0.64390  0.16870  0.58910  Biso   1.000  O
  O25      1.0000 0.74940  0.30816  0.48060  Biso   1.000  O
  O26      1.0000 0.75060  0.69184  0.98060  Biso   1.000  O
  O27      1.0000 0.24940  0.19184  0.01940  Biso   1.000  O
  O28      1.0000 0.25060  0.80816  0.51940  Biso   1.000  O
  O29      1.0000 0.25060  0.69184  0.51940  Biso   1.000  O
  O30      1.0000 0.24940  0.30816  0.01940  Biso   1.000  O
  O31      1.0000 0.75060  0.80816  0.98060  Biso   1.000  O
  O32      1.0000 0.74940  0.19184  0.48060  Biso   1.000  O
  O33      1.0000 0.50680  0.25000  0.55580  Biso   1.000  O
  O34      1.0000 0.99320  0.75000  0.05580  Biso   1.000  O
  O35      1.0000 0.00680  0.25000  0.94420  Biso   1.000  O
  O36      1.0000 0.49320  0.75000  0.44420  Biso   1.000  O
  Cu1      1.0000 0.36482  0.25000  0.49268  Biso   1.000  Cu
  Cu2      1.0000 0.13518  0.75000  0.99268  Biso   1.000  Cu
  Cu3      1.0000 0.86482  0.25000  0.00732  Biso   1.000  Cu
  Cu4      1.0000 0.63518  0.75000  0.50732  Biso   1.000  Cu
  Cu5      1.0000 0.64964  0.25000  0.43382  Biso   1.000  Cu
  Cu6      1.0000 0.85036  0.75000  0.93382  Biso   1.000  Cu
  Cu7      1.0000 0.14964  0.25000  0.06618  Biso   1.000  Cu
  Cu8      1.0000 0.35036  0.75000  0.56618  Biso   1.000  Cu
