data_image0
_cell_length_a       13.7561
_cell_length_b       13.7561
_cell_length_c       25.5306
_cell_angle_alpha    90
_cell_angle_beta     90
_cell_angle_gamma    90

_symmetry_space_group_name_H-M    "P 1"
_symmetry_int_tables_number       1

loop_
  _symmetry_equiv_pos_as_xyz
  'x, y, z'

loop_
  _atom_site_label
  _atom_site_occupancy
  _atom_site_fract_x
  _atom_site_fract_y
  _atom_site_fract_z
  _atom_site_thermal_displace_type
  _atom_site_B_iso_or_equiv
  _atom_site_type_symbol
  Cu1      1.0000 0.09339  0.24926  0.47627  Biso   1.000  Cu
  Cu2      1.0000 0.24926  0.90661  0.52373  Biso   1.000  Cu
  Cu3      1.0000 0.90661  0.75074  0.47627  Biso   1.000  Cu
  Cu4      1.0000 0.75074  0.09339  0.52373  Biso   1.000  Cu
  Cu5      1.0000 0.40661  0.74926  0.97627  Biso   1.000  Cu
  Cu6      1.0000 0.74926  0.59339  0.02373  Biso   1.000  Cu
  Cu7      1.0000 0.59339  0.25074  0.97627  Biso   1.000  Cu
  Cu8      1.0000 0.25074  0.40661  0.02373  Biso   1.000  Cu
  O1       1.0000 0.96970  0.20170  0.50070  Biso   1.000  O
  O2       1.0000 0.20170  0.03030  0.49930  Biso   1.000  O
  O3       1.0000 0.03030  0.79830  0.50070  Biso   1.000  O
  O4       1.0000 0.79830  0.96970  0.49930  Biso   1.000  O
  O5       1.0000 0.53030  0.70170  0.00070  Biso   1.000  O
  O6       1.0000 0.70170  0.46970  0.99930  Biso   1.000  O
  O7       1.0000 0.46970  0.29830  0.00070  Biso   1.000  O
  O8       1.0000 0.29830  0.53030  0.99930  Biso   1.000  O
  O9       1.0000 0.89060  0.13610  0.56820  Biso   1.000  O
  O10      1.0000 0.13610  0.10940  0.43180  Biso   1.000  O
  O11      1.0000 0.10940  0.86390  0.56820  Biso   1.000  O
  O12      1.0000 0.86390  0.89060  0.43180  Biso   1.000  O
  O13      1.0000 0.60940  0.63610  0.06820  Biso   1.000  O
  O14      1.0000 0.63610  0.39060  0.93180  Biso   1.000  O
  O15      1.0000 0.39060  0.36390  0.06820  Biso   1.000  O
  O16      1.0000 0.36390  0.60940  0.93180  Biso   1.000  O
  N1       1.0000 0.03040  0.30160  0.41080  Biso   1.000  N
  N2       1.0000 0.30160  0.96960  0.58920  Biso   1.000  N
  N3       1.0000 0.96960  0.69840  0.41080  Biso   1.000  N
  N4       1.0000 0.69840  0.03040  0.58920  Biso   1.000  N
  N5       1.0000 0.46960  0.80160  0.91080  Biso   1.000  N
  N6       1.0000 0.80160  0.53040  0.08920  Biso   1.000  N
  N7       1.0000 0.53040  0.19840  0.91080  Biso   1.000  N
  N8       1.0000 0.19840  0.46960  0.08920  Biso   1.000  N
  N9       1.0000 0.21910  0.31270  0.45950  Biso   1.000  N
  N10      1.0000 0.31270  0.78090  0.54050  Biso   1.000  N
  N11      1.0000 0.78090  0.68730  0.45950  Biso   1.000  N
  N12      1.0000 0.68730  0.21910  0.54050  Biso   1.000  N
  N13      1.0000 0.28090  0.81270  0.95950  Biso   1.000  N
  N14      1.0000 0.81270  0.71910  0.04050  Biso   1.000  N
  N15      1.0000 0.71910  0.18730  0.95950  Biso   1.000  N
  N16      1.0000 0.18730  0.28090  0.04050  Biso   1.000  N
  N17      1.0000 0.13740  0.20980  0.54800  Biso   1.000  N
  N18      1.0000 0.20980  0.86260  0.45200  Biso   1.000  N
  N19      1.0000 0.86260  0.79020  0.54800  Biso   1.000  N
  N20      1.0000 0.79020  0.13740  0.45200  Biso   1.000  N
  N21      1.0000 0.36260  0.70980  0.04800  Biso   1.000  N
  N22      1.0000 0.70980  0.63740  0.95200  Biso   1.000  N
  N23      1.0000 0.63740  0.29020  0.04800  Biso   1.000  N
  N24      1.0000 0.29020  0.36260  0.95200  Biso   1.000  N
  H1       1.0000 0.19710  0.20270  0.55710  Biso   1.000  H
  H2       1.0000 0.20270  0.80290  0.44290  Biso   1.000  H
  H3       1.0000 0.80290  0.79730  0.55710  Biso   1.000  H
  H4       1.0000 0.79730  0.19710  0.44290  Biso   1.000  H
  H5       1.0000 0.30290  0.70270  0.05710  Biso   1.000  H
  H6       1.0000 0.70270  0.69710  0.94290  Biso   1.000  H
  H7       1.0000 0.69710  0.29730  0.05710  Biso   1.000  H
  H8       1.0000 0.29730  0.30290  0.94290  Biso   1.000  H
  C1       1.0000 0.96050  0.17110  0.54870  Biso   1.000  C
  C2       1.0000 0.17110  0.03950  0.45130  Biso   1.000  C
  C3       1.0000 0.03950  0.82890  0.54870  Biso   1.000  C
  C4       1.0000 0.82890  0.96050  0.45130  Biso   1.000  C
  C5       1.0000 0.53950  0.67110  0.04870  Biso   1.000  C
  C6       1.0000 0.67110  0.46050  0.95130  Biso   1.000  C
  C7       1.0000 0.46050  0.32890  0.04870  Biso   1.000  C
  C8       1.0000 0.32890  0.53950  0.95130  Biso   1.000  C
  C9       1.0000 0.05750  0.19520  0.58120  Biso   1.000  C
  C10      1.0000 0.19520  0.94250  0.41880  Biso   1.000  C
  C11      1.0000 0.94250  0.80480  0.58120  Biso   1.000  C
  C12      1.0000 0.80480  0.05750  0.41880  Biso   1.000  C
  C13      1.0000 0.44250  0.69520  0.08120  Biso   1.000  C
  C14      1.0000 0.69520  0.55750  0.91880  Biso   1.000  C
  C15      1.0000 0.55750  0.30480  0.08120  Biso   1.000  C
  C16      1.0000 0.30480  0.44250  0.91880  Biso   1.000  C
  H9       1.0000 0.04610  0.25660  0.59970  Biso   1.000  H
  H10      1.0000 0.25660  0.95390  0.40030  Biso   1.000  H
  H11      1.0000 0.95390  0.74340  0.59970  Biso   1.000  H
  H12      1.0000 0.74340  0.04610  0.40030  Biso   1.000  H
  H13      1.0000 0.45390  0.75660  0.09970  Biso   1.000  H
  H14      1.0000 0.75660  0.54610  0.90030  Biso   1.000  H
  H15      1.0000 0.54610  0.24340  0.09970  Biso   1.000  H
  H16      1.0000 0.24340  0.45390  0.90030  Biso   1.000  H
  C17      1.0000 0.07300  0.11840  0.62210  Biso   1.000  C
  C18      1.0000 0.11840  0.92700  0.37790  Biso   1.000  C
  C19      1.0000 0.92700  0.88160  0.62210  Biso   1.000  C
  C20      1.0000 0.88160  0.07300  0.37790  Biso   1.000  C
  C21      1.0000 0.42700  0.61840  0.12210  Biso   1.000  C
  C22      1.0000 0.61840  0.57300  0.87790  Biso   1.000  C
  C23      1.0000 0.57300  0.38160  0.12210  Biso   1.000  C
  C24      1.0000 0.38160  0.42700  0.87790  Biso   1.000  C
  H17      1.0000 0.08090  0.05630  0.60540  Biso   1.000  H
  H18      1.0000 0.05630  0.91910  0.39460  Biso   1.000  H
  H19      1.0000 0.91910  0.94370  0.60540  Biso   1.000  H
  H20      1.0000 0.94370  0.08090  0.39460  Biso   1.000  H
  H21      1.0000 0.41910  0.55630  0.10540  Biso   1.000  H
  H22      1.0000 0.55630  0.58090  0.89460  Biso   1.000  H
  H23      1.0000 0.58090  0.44370  0.10540  Biso   1.000  H
  H24      1.0000 0.44370  0.41910  0.89460  Biso   1.000  H
  H25      1.0000 0.01770  0.11620  0.64500  Biso   1.000  H
  H26      1.0000 0.11620  0.98230  0.35500  Biso   1.000  H
  H27      1.0000 0.98230  0.88380  0.64500  Biso   1.000  H
  H28      1.0000 0.88380  0.01770  0.35500  Biso   1.000  H
  H29      1.0000 0.48230  0.61620  0.14500  Biso   1.000  H
  H30      1.0000 0.61620  0.51770  0.85500  Biso   1.000  H
  H31      1.0000 0.51770  0.38380  0.14500  Biso   1.000  H
  H32      1.0000 0.38380  0.48230  0.85500  Biso   1.000  H
  H33      1.0000 0.13020  0.13340  0.64200  Biso   1.000  H
  H34      1.0000 0.13340  0.86980  0.35800  Biso   1.000  H
  H35      1.0000 0.86980  0.86660  0.64200  Biso   1.000  H
  H36      1.0000 0.86660  0.13020  0.35800  Biso   1.000  H
  H37      1.0000 0.36980  0.63340  0.14200  Biso   1.000  H
  H38      1.0000 0.63340  0.63020  0.85800  Biso   1.000  H
  H39      1.0000 0.63020  0.36660  0.14200  Biso   1.000  H
  H40      1.0000 0.36660  0.36980  0.85800  Biso   1.000  H
  C25      1.0000 0.06660  0.28370  0.36430  Biso   1.000  C
  C26      1.0000 0.28370  0.93340  0.63570  Biso   1.000  C
  C27      1.0000 0.93340  0.71630  0.36430  Biso   1.000  C
  C28      1.0000 0.71630  0.06660  0.63570  Biso   1.000  C
  C29      1.0000 0.43340  0.78370  0.86430  Biso   1.000  C
  C30      1.0000 0.78370  0.56660  0.13570  Biso   1.000  C
  C31      1.0000 0.56660  0.21630  0.86430  Biso   1.000  C
  C32      1.0000 0.21630  0.43340  0.13570  Biso   1.000  C
  H41      1.0000 0.12140  0.24430  0.36210  Biso   1.000  H
  H42      1.0000 0.24430  0.87860  0.63790  Biso   1.000  H
  H43      1.0000 0.87860  0.75570  0.36210  Biso   1.000  H
  H44      1.0000 0.75570  0.12140  0.63790  Biso   1.000  H
  H45      1.0000 0.37860  0.74430  0.86210  Biso   1.000  H
  H46      1.0000 0.74430  0.62140  0.13790  Biso   1.000  H
  H47      1.0000 0.62140  0.25570  0.86210  Biso   1.000  H
  H48      1.0000 0.25570  0.37860  0.13790  Biso   1.000  H
  C33      1.0000 0.02800  0.31990  0.31860  Biso   1.000  C
  C34      1.0000 0.31990  0.97200  0.68140  Biso   1.000  C
  C35      1.0000 0.97200  0.68010  0.31860  Biso   1.000  C
  C36      1.0000 0.68010  0.02800  0.68140  Biso   1.000  C
  C37      1.0000 0.47200  0.81990  0.81860  Biso   1.000  C
  C38      1.0000 0.81990  0.52800  0.18140  Biso   1.000  C
  C39      1.0000 0.52800  0.18010  0.81860  Biso   1.000  C
  C40      1.0000 0.18010  0.47200  0.18140  Biso   1.000  C
  H49      1.0000 0.05740  0.30680  0.28660  Biso   1.000  H
  H50      1.0000 0.30680  0.94260  0.71340  Biso   1.000  H
  H51      1.0000 0.94260  0.69320  0.28660  Biso   1.000  H
  H52      1.0000 0.69320  0.05740  0.71340  Biso   1.000  H
  H53      1.0000 0.44260  0.80680  0.78660  Biso   1.000  H
  H54      1.0000 0.80680  0.55740  0.21340  Biso   1.000  H
  H55      1.0000 0.55740  0.19320  0.78660  Biso   1.000  H
  H56      1.0000 0.19320  0.44260  0.21340  Biso   1.000  H
  C41      1.0000 0.94320  0.37730  0.32100  Biso   1.000  C
  C42      1.0000 0.37730  0.05680  0.67900  Biso   1.000  C
  C43      1.0000 0.05680  0.62270  0.32100  Biso   1.000  C
  C44      1.0000 0.62270  0.94320  0.67900  Biso   1.000  C
  C45      1.0000 0.55680  0.87730  0.82100  Biso   1.000  C
  C46      1.0000 0.87730  0.44320  0.17900  Biso   1.000  C
  C47      1.0000 0.44320  0.12270  0.82100  Biso   1.000  C
  C48      1.0000 0.12270  0.55680  0.17900  Biso   1.000  C
  C49      1.0000 0.90690  0.39450  0.36910  Biso   1.000  C
  C50      1.0000 0.39450  0.09310  0.63090  Biso   1.000  C
  C51      1.0000 0.09310  0.60550  0.36910  Biso   1.000  C
  C52      1.0000 0.60550  0.90690  0.63090  Biso   1.000  C
  C53      1.0000 0.59310  0.89450  0.86910  Biso   1.000  C
  C54      1.0000 0.89450  0.40690  0.13090  Biso   1.000  C
  C55      1.0000 0.40690  0.10550  0.86910  Biso   1.000  C
  C56      1.0000 0.10550  0.59310  0.13090  Biso   1.000  C
  H57      1.0000 0.85150  0.43270  0.37270  Biso   1.000  H
  H58      1.0000 0.43270  0.14850  0.62730  Biso   1.000  H
  H59      1.0000 0.14850  0.56730  0.37270  Biso   1.000  H
  H60      1.0000 0.56730  0.85150  0.62730  Biso   1.000  H
  H61      1.0000 0.64850  0.93270  0.87270  Biso   1.000  H
  H62      1.0000 0.93270  0.35150  0.12730  Biso   1.000  H
  H63      1.0000 0.35150  0.06730  0.87270  Biso   1.000  H
  H64      1.0000 0.06730  0.64850  0.12730  Biso   1.000  H
  C57      1.0000 0.95200  0.35500  0.41440  Biso   1.000  C
  C58      1.0000 0.35500  0.04800  0.58560  Biso   1.000  C
  C59      1.0000 0.04800  0.64500  0.41440  Biso   1.000  C
  C60      1.0000 0.64500  0.95200  0.58560  Biso   1.000  C
  C61      1.0000 0.54800  0.85500  0.91440  Biso   1.000  C
  C62      1.0000 0.85500  0.45200  0.08560  Biso   1.000  C
  C63      1.0000 0.45200  0.14500  0.91440  Biso   1.000  C
  C64      1.0000 0.14500  0.54800  0.08560  Biso   1.000  C
  H65      1.0000 0.92530  0.36730  0.44730  Biso   1.000  H
  H66      1.0000 0.36730  0.07470  0.55270  Biso   1.000  H
  H67      1.0000 0.07470  0.63270  0.44730  Biso   1.000  H
  H68      1.0000 0.63270  0.92530  0.55270  Biso   1.000  H
  H69      1.0000 0.57470  0.86730  0.94730  Biso   1.000  H
  H70      1.0000 0.86730  0.42530  0.05270  Biso   1.000  H
  H71      1.0000 0.42530  0.13270  0.94730  Biso   1.000  H
  H72      1.0000 0.13270  0.57470  0.05270  Biso   1.000  H
  C65      1.0000 0.89580  0.41700  0.27450  Biso   1.000  C
  C66      1.0000 0.41700  0.10420  0.72550  Biso   1.000  C
  C67      1.0000 0.10420  0.58300  0.27450  Biso   1.000  C
  C68      1.0000 0.58300  0.89580  0.72550  Biso   1.000  C
  C69      1.0000 0.60420  0.91700  0.77450  Biso   1.000  C
  C70      1.0000 0.91700  0.39580  0.22550  Biso   1.000  C
  C71      1.0000 0.39580  0.08300  0.77450  Biso   1.000  C
  C72      1.0000 0.08300  0.60420  0.22550  Biso   1.000  C
  H73      1.0000 0.84600  0.46150  0.28000  Biso   1.000  H
  H74      1.0000 0.46150  0.15400  0.72000  Biso   1.000  H
  H75      1.0000 0.15400  0.53850  0.28000  Biso   1.000  H
  H76      1.0000 0.53850  0.84600  0.72000  Biso   1.000  H
  H77      1.0000 0.65400  0.96150  0.78000  Biso   1.000  H
  H78      1.0000 0.96150  0.34600  0.22000  Biso   1.000  H
  H79      1.0000 0.34600  0.03850  0.78000  Biso   1.000  H
  H80      1.0000 0.03850  0.65400  0.22000  Biso   1.000  H
  C73      1.0000 0.30420  0.26700  0.45510  Biso   1.000  C
  C74      1.0000 0.26700  0.69580  0.54490  Biso   1.000  C
  C75      1.0000 0.69580  0.73300  0.45510  Biso   1.000  C
  C76      1.0000 0.73300  0.30420  0.54490  Biso   1.000  C
  C77      1.0000 0.19580  0.76700  0.95510  Biso   1.000  C
  C78      1.0000 0.76700  0.80420  0.04490  Biso   1.000  C
  C79      1.0000 0.80420  0.23300  0.95510  Biso   1.000  C
  C80      1.0000 0.23300  0.19580  0.04490  Biso   1.000  C
  H81      1.0000 0.30260  0.19980  0.45860  Biso   1.000  H
  H82      1.0000 0.19980  0.69740  0.54140  Biso   1.000  H
  H83      1.0000 0.69740  0.80020  0.45860  Biso   1.000  H
  H84      1.0000 0.80020  0.30260  0.54140  Biso   1.000  H
  H85      1.0000 0.19740  0.69980  0.95860  Biso   1.000  H
  H86      1.0000 0.69980  0.80260  0.04140  Biso   1.000  H
  H87      1.0000 0.80260  0.30020  0.95860  Biso   1.000  H
  H88      1.0000 0.30020  0.19740  0.04140  Biso   1.000  H
  C81      1.0000 0.38970  0.30550  0.44660  Biso   1.000  C
  C82      1.0000 0.30550  0.61030  0.55340  Biso   1.000  C
  C83      1.0000 0.61030  0.69450  0.44660  Biso   1.000  C
  C84      1.0000 0.69450  0.38970  0.55340  Biso   1.000  C
  C85      1.0000 0.11030  0.80550  0.94660  Biso   1.000  C
  C86      1.0000 0.80550  0.88970  0.05340  Biso   1.000  C
  C87      1.0000 0.88970  0.19450  0.94660  Biso   1.000  C
  C88      1.0000 0.19450  0.11030  0.05340  Biso   1.000  C
  H89      1.0000 0.44500  0.26660  0.44580  Biso   1.000  H
  H90      1.0000 0.26660  0.55500  0.55420  Biso   1.000  H
  H91      1.0000 0.55500  0.73340  0.44580  Biso   1.000  H
  H92      1.0000 0.73340  0.44500  0.55420  Biso   1.000  H
  H93      1.0000 0.05500  0.76660  0.94580  Biso   1.000  H
  H94      1.0000 0.76660  0.94500  0.05420  Biso   1.000  H
  H95      1.0000 0.94500  0.23340  0.94580  Biso   1.000  H
  H96      1.0000 0.23340  0.05500  0.05420  Biso   1.000  H
  C89      1.0000 0.39690  0.40570  0.43850  Biso   1.000  C
  C90      1.0000 0.40570  0.60310  0.56150  Biso   1.000  C
  C91      1.0000 0.60310  0.59430  0.43850  Biso   1.000  C
  C92      1.0000 0.59430  0.39690  0.56150  Biso   1.000  C
  C93      1.0000 0.10310  0.90570  0.93850  Biso   1.000  C
  C94      1.0000 0.90570  0.89690  0.06150  Biso   1.000  C
  C95      1.0000 0.89690  0.09430  0.93850  Biso   1.000  C
  C96      1.0000 0.09430  0.10310  0.06150  Biso   1.000  C
  C97      1.0000 0.30860  0.45960  0.44210  Biso   1.000  C
  C98      1.0000 0.45960  0.69140  0.55790  Biso   1.000  C
  C99      1.0000 0.69140  0.54040  0.44210  Biso   1.000  C
  C100     1.0000 0.54040  0.30860  0.55790  Biso   1.000  C
  C101     1.0000 0.19140  0.95960  0.94210  Biso   1.000  C
  C102     1.0000 0.95960  0.80860  0.05790  Biso   1.000  C
  C103     1.0000 0.80860  0.04040  0.94210  Biso   1.000  C
  C104     1.0000 0.04040  0.19140  0.05790  Biso   1.000  C
  H97      1.0000 0.30810  0.52680  0.43820  Biso   1.000  H
  H98      1.0000 0.52680  0.69190  0.56180  Biso   1.000  H
  H99      1.0000 0.69190  0.47320  0.43820  Biso   1.000  H
  H100     1.0000 0.47320  0.30810  0.56180  Biso   1.000  H
  H101     1.0000 0.19190  0.02680  0.93820  Biso   1.000  H
  H102     1.0000 0.02680  0.80810  0.06180  Biso   1.000  H
  H103     1.0000 0.80810  0.97320  0.93820  Biso   1.000  H
  H104     1.0000 0.97320  0.19190  0.06180  Biso   1.000  H
  C105     1.0000 0.22290  0.40810  0.45180  Biso   1.000  C
  C106     1.0000 0.40810  0.77710  0.54820  Biso   1.000  C
  C107     1.0000 0.77710  0.59190  0.45180  Biso   1.000  C
  C108     1.0000 0.59190  0.22290  0.54820  Biso   1.000  C
  C109     1.0000 0.27710  0.90810  0.95180  Biso   1.000  C
  C110     1.0000 0.90810  0.72290  0.04820  Biso   1.000  C
  C111     1.0000 0.72290  0.09190  0.95180  Biso   1.000  C
  C112     1.0000 0.09190  0.27710  0.04820  Biso   1.000  C
  H105     1.0000 0.16490  0.44280  0.45290  Biso   1.000  H
  H106     1.0000 0.44280  0.83510  0.54710  Biso   1.000  H
  H107     1.0000 0.83510  0.55720  0.45290  Biso   1.000  H
  H108     1.0000 0.55720  0.16490  0.54710  Biso   1.000  H
  H109     1.0000 0.33510  0.94280  0.95290  Biso   1.000  H
  H110     1.0000 0.94280  0.66490  0.04710  Biso   1.000  H
  H111     1.0000 0.66490  0.05720  0.95290  Biso   1.000  H
  H112     1.0000 0.05720  0.33510  0.04710  Biso   1.000  H
  C113     1.0000 0.49260  0.45380  0.43280  Biso   1.000  C
  C114     1.0000 0.45380  0.50740  0.56720  Biso   1.000  C
  C115     1.0000 0.50740  0.54620  0.43280  Biso   1.000  C
  C116     1.0000 0.54620  0.49260  0.56720  Biso   1.000  C
  C117     1.0000 0.00740  0.95380  0.93280  Biso   1.000  C
  C118     1.0000 0.95380  0.99260  0.06720  Biso   1.000  C
  C119     1.0000 0.99260  0.04620  0.93280  Biso   1.000  C
  C120     1.0000 0.04620  0.00740  0.06720  Biso   1.000  C
  H113     1.0000 0.54670  0.41390  0.42890  Biso   1.000  H
  H114     1.0000 0.41390  0.45330  0.57110  Biso   1.000  H
  H115     1.0000 0.45330  0.58610  0.42890  Biso   1.000  H
  H116     1.0000 0.58610  0.54670  0.57110  Biso   1.000  H
  H117     1.0000 0.95330  0.91390  0.92890  Biso   1.000  H
  H118     1.0000 0.91390  0.04670  0.07110  Biso   1.000  H
  H119     1.0000 0.04670  0.08610  0.92890  Biso   1.000  H
  H120     1.0000 0.08610  0.95330  0.07110  Biso   1.000  H
  O17      1.0000 0.23500  0.26500  0.75000  Biso   1.000  O
  O18      1.0000 0.26500  0.76500  0.25000  Biso   1.000  O
  O19      1.0000 0.76500  0.73500  0.75000  Biso   1.000  O
  O20      1.0000 0.73500  0.23500  0.25000  Biso   1.000  O
  H121     1.0000 0.26680  0.21870  0.75800  Biso   1.000  H
  H122     1.0000 0.21870  0.73320  0.24200  Biso   1.000  H
  H123     1.0000 0.73320  0.78130  0.75800  Biso   1.000  H
  H124     1.0000 0.78130  0.26680  0.24200  Biso   1.000  H
  H125     1.0000 0.23320  0.71870  0.25800  Biso   1.000  H
  H126     1.0000 0.71870  0.76680  0.74200  Biso   1.000  H
  H127     1.0000 0.76680  0.28130  0.25800  Biso   1.000  H
  H128     1.0000 0.28130  0.23320  0.74200  Biso   1.000  H
  H129     1.0000 0.27080  0.31940  0.75530  Biso   1.000  H
  H130     1.0000 0.31940  0.72920  0.24470  Biso   1.000  H
  H131     1.0000 0.72920  0.68060  0.75530  Biso   1.000  H
  H132     1.0000 0.68060  0.27080  0.24470  Biso   1.000  H
  H133     1.0000 0.22920  0.81940  0.25530  Biso   1.000  H
  H134     1.0000 0.81940  0.77080  0.74470  Biso   1.000  H
  H135     1.0000 0.77080  0.18060  0.25530  Biso   1.000  H
  H136     1.0000 0.18060  0.22920  0.74470  Biso   1.000  H
  O21      1.0000 0.66810  0.29010  0.39190  Biso   1.000  O
  O22      1.0000 0.29010  0.33190  0.60810  Biso   1.000  O
  O23      1.0000 0.33190  0.70990  0.39190  Biso   1.000  O
  O24      1.0000 0.70990  0.66810  0.60810  Biso   1.000  O
  O25      1.0000 0.83190  0.79010  0.89190  Biso   1.000  O
  O26      1.0000 0.79010  0.16810  0.10810  Biso   1.000  O
  O27      1.0000 0.16810  0.20990  0.89190  Biso   1.000  O
  O28      1.0000 0.20990  0.83190  0.10810  Biso   1.000  O
  H137     1.0000 0.72260  0.31880  0.38940  Biso   1.000  H
  H138     1.0000 0.31880  0.27740  0.61060  Biso   1.000  H
  H139     1.0000 0.27740  0.68120  0.38940  Biso   1.000  H
  H140     1.0000 0.68120  0.72260  0.61060  Biso   1.000  H
  H141     1.0000 0.77740  0.81880  0.88940  Biso   1.000  H
  H142     1.0000 0.81880  0.22260  0.11060  Biso   1.000  H
  H143     1.0000 0.22260  0.18120  0.88940  Biso   1.000  H
  H144     1.0000 0.18120  0.77740  0.11060  Biso   1.000  H
  H145     1.0000 0.67260  0.24400  0.41400  Biso   1.000  H
  H146     1.0000 0.24400  0.32740  0.58600  Biso   1.000  H
  H147     1.0000 0.32740  0.75600  0.41400  Biso   1.000  H
  H148     1.0000 0.75600  0.67260  0.58600  Biso   1.000  H
  H149     1.0000 0.82740  0.74400  0.91400  Biso   1.000  H
  H150     1.0000 0.74400  0.17260  0.08600  Biso   1.000  H
  H151     1.0000 0.17260  0.25600  0.91400  Biso   1.000  H
  H152     1.0000 0.25600  0.82740  0.08600  Biso   1.000  H
  O29      1.0000 0.73100  0.64800  0.30300  Biso   1.000  O
  O30      1.0000 0.64800  0.26900  0.69700  Biso   1.000  O
  O31      1.0000 0.26900  0.35200  0.30300  Biso   1.000  O
  O32      1.0000 0.35200  0.73100  0.69700  Biso   1.000  O
  O33      1.0000 0.76900  0.14800  0.80300  Biso   1.000  O
  O34      1.0000 0.14800  0.23100  0.19700  Biso   1.000  O
  O35      1.0000 0.23100  0.85200  0.80300  Biso   1.000  O
  O36      1.0000 0.85200  0.76900  0.19700  Biso   1.000  O
  H153     1.0000 0.75270  0.67110  0.27450  Biso   1.000  H
  H154     1.0000 0.67110  0.24730  0.72550  Biso   1.000  H
  H155     1.0000 0.24730  0.32890  0.27450  Biso   1.000  H
  H156     1.0000 0.32890  0.75270  0.72550  Biso   1.000  H
  H157     1.0000 0.74730  0.17110  0.77450  Biso   1.000  H
  H158     1.0000 0.17110  0.25270  0.22550  Biso   1.000  H
  H159     1.0000 0.25270  0.82890  0.77450  Biso   1.000  H
  H160     1.0000 0.82890  0.74730  0.22550  Biso   1.000  H
  H161     1.0000 0.76640  0.66540  0.32830  Biso   1.000  H
  H162     1.0000 0.66540  0.23360  0.67170  Biso   1.000  H
  H163     1.0000 0.23360  0.33460  0.32830  Biso   1.000  H
  H164     1.0000 0.33460  0.76640  0.67170  Biso   1.000  H
  H165     1.0000 0.73360  0.16540  0.82830  Biso   1.000  H
  H166     1.0000 0.16540  0.26640  0.17170  Biso   1.000  H
  H167     1.0000 0.26640  0.83460  0.82830  Biso   1.000  H
  H168     1.0000 0.83460  0.73360  0.17170  Biso   1.000  H
  O37      1.0000 0.54500  0.52000  0.27800  Biso   1.000  O
  O38      1.0000 0.52000  0.45500  0.72200  Biso   1.000  O
  O39      1.0000 0.45500  0.48000  0.27800  Biso   1.000  O
  O40      1.0000 0.48000  0.54500  0.72200  Biso   1.000  O
  O41      1.0000 0.95500  0.02000  0.77800  Biso   1.000  O
  O42      1.0000 0.02000  0.04500  0.22200  Biso   1.000  O
  O43      1.0000 0.04500  0.98000  0.77800  Biso   1.000  O
  O44      1.0000 0.98000  0.95500  0.22200  Biso   1.000  O
  H169     1.0000 0.54410  0.46780  0.25990  Biso   1.000  H
  H170     1.0000 0.46780  0.45590  0.74010  Biso   1.000  H
  H171     1.0000 0.45590  0.53220  0.25990  Biso   1.000  H
  H172     1.0000 0.53220  0.54410  0.74010  Biso   1.000  H
  H173     1.0000 0.95590  0.96780  0.75990  Biso   1.000  H
  H174     1.0000 0.96780  0.04410  0.24010  Biso   1.000  H
  H175     1.0000 0.04410  0.03220  0.75990  Biso   1.000  H
  H176     1.0000 0.03220  0.95590  0.24010  Biso   1.000  H
  H177     1.0000 0.49940  0.55710  0.26760  Biso   1.000  H
  H178     1.0000 0.55710  0.50060  0.73240  Biso   1.000  H
  H179     1.0000 0.50060  0.44290  0.26760  Biso   1.000  H
  H180     1.0000 0.44290  0.49940  0.73240  Biso   1.000  H
  H181     1.0000 0.00060  0.05710  0.76760  Biso   1.000  H
  H182     1.0000 0.05710  0.99940  0.23240  Biso   1.000  H
  H183     1.0000 0.99940  0.94290  0.76760  Biso   1.000  H
  H184     1.0000 0.94290  0.00060  0.23240  Biso   1.000  H
  O45      1.0000 0.33100  0.20600  0.30100  Biso   1.000  O
  O46      1.0000 0.20600  0.66900  0.69900  Biso   1.000  O
  O47      1.0000 0.66900  0.79400  0.30100  Biso   1.000  O
  O48      1.0000 0.79400  0.33100  0.69900  Biso   1.000  O
  O49      1.0000 0.16900  0.70600  0.80100  Biso   1.000  O
  O50      1.0000 0.70600  0.83100  0.19900  Biso   1.000  O
  O51      1.0000 0.83100  0.29400  0.80100  Biso   1.000  O
  O52      1.0000 0.29400  0.16900  0.19900  Biso   1.000  O
  H185     1.0000 0.34340  0.21280  0.26870  Biso   1.000  H
  H186     1.0000 0.21280  0.65660  0.73130  Biso   1.000  H
  H187     1.0000 0.65660  0.78720  0.26870  Biso   1.000  H
  H188     1.0000 0.78720  0.34340  0.73130  Biso   1.000  H
  H189     1.0000 0.15660  0.71280  0.76870  Biso   1.000  H
  H190     1.0000 0.71280  0.84340  0.23130  Biso   1.000  H
  H191     1.0000 0.84340  0.28720  0.76870  Biso   1.000  H
  H192     1.0000 0.28720  0.15660  0.23130  Biso   1.000  H
  H193     1.0000 0.32890  0.14640  0.30890  Biso   1.000  H
  H194     1.0000 0.14640  0.67110  0.69110  Biso   1.000  H
  H195     1.0000 0.67110  0.85360  0.30890  Biso   1.000  H
  H196     1.0000 0.85360  0.32890  0.69110  Biso   1.000  H
  H197     1.0000 0.17110  0.64640  0.80890  Biso   1.000  H
  H198     1.0000 0.64640  0.82890  0.19110  Biso   1.000  H
  H199     1.0000 0.82890  0.35360  0.80890  Biso   1.000  H
  H200     1.0000 0.35360  0.17110  0.19110  Biso   1.000  H
  O53      1.0000 0.66700  0.58800  0.29300  Biso   1.000  O
  O54      1.0000 0.58800  0.33300  0.70700  Biso   1.000  O
  O55      1.0000 0.33300  0.41200  0.29300  Biso   1.000  O
  O56      1.0000 0.41200  0.66700  0.70700  Biso   1.000  O
  O57      1.0000 0.83300  0.08800  0.79300  Biso   1.000  O
  O58      1.0000 0.08800  0.16700  0.20700  Biso   1.000  O
  O59      1.0000 0.16700  0.91200  0.79300  Biso   1.000  O
  O60      1.0000 0.91200  0.83300  0.20700  Biso   1.000  O
  H201     1.0000 0.66390  0.52690  0.28840  Biso   1.000  H
  H202     1.0000 0.52690  0.33610  0.71160  Biso   1.000  H
  H203     1.0000 0.33610  0.47310  0.28840  Biso   1.000  H
  H204     1.0000 0.47310  0.66390  0.71160  Biso   1.000  H
  H205     1.0000 0.83610  0.02690  0.78840  Biso   1.000  H
  H206     1.0000 0.02690  0.16390  0.21160  Biso   1.000  H
  H207     1.0000 0.16390  0.97310  0.78840  Biso   1.000  H
  H208     1.0000 0.97310  0.83610  0.21160  Biso   1.000  H
  H209     1.0000 0.60960  0.61170  0.29140  Biso   1.000  H
  H210     1.0000 0.61170  0.39040  0.70860  Biso   1.000  H
  H211     1.0000 0.39040  0.38830  0.29140  Biso   1.000  H
  H212     1.0000 0.38830  0.60960  0.70860  Biso   1.000  H
  H213     1.0000 0.89040  0.11170  0.79140  Biso   1.000  H
  H214     1.0000 0.11170  0.10960  0.20860  Biso   1.000  H
  H215     1.0000 0.10960  0.88830  0.79140  Biso   1.000  H
  H216     1.0000 0.88830  0.89040  0.20860  Biso   1.000  H
  O61      1.0000 0.00000  0.50000  0.53970  Biso   1.000  O
  O62      1.0000 0.50000  0.00000  0.46030  Biso   1.000  O
  O63      1.0000 0.50000  0.00000  0.03970  Biso   1.000  O
  O64      1.0000 0.00000  0.50000  0.96030  Biso   1.000  O
  H217     1.0000 0.95670  0.53810  0.55160  Biso   1.000  H
  H218     1.0000 0.53810  0.04330  0.44840  Biso   1.000  H
  H219     1.0000 0.04330  0.46190  0.55160  Biso   1.000  H
  H220     1.0000 0.46190  0.95670  0.44840  Biso   1.000  H
  H221     1.0000 0.54330  0.03810  0.05160  Biso   1.000  H
  H222     1.0000 0.03810  0.45670  0.94840  Biso   1.000  H
  H223     1.0000 0.45670  0.96190  0.05160  Biso   1.000  H
  H224     1.0000 0.96190  0.54330  0.94840  Biso   1.000  H
  H225     1.0000 0.00770  0.51050  0.50710  Biso   1.000  H
  H226     1.0000 0.51050  0.99230  0.49290  Biso   1.000  H
  H227     1.0000 0.99230  0.48950  0.50710  Biso   1.000  H
  H228     1.0000 0.48950  0.00770  0.49290  Biso   1.000  H
  H229     1.0000 0.49230  0.01050  0.00710  Biso   1.000  H
  H230     1.0000 0.01050  0.50770  0.99290  Biso   1.000  H
  H231     1.0000 0.50770  0.98950  0.00710  Biso   1.000  H
  H232     1.0000 0.98950  0.49230  0.99290  Biso   1.000  H
  O65      1.0000 0.47100  0.02900  0.25000  Biso   1.000  O
  O66      1.0000 0.02900  0.52900  0.75000  Biso   1.000  O
  O67      1.0000 0.52900  0.97100  0.25000  Biso   1.000  O
  O68      1.0000 0.97100  0.47100  0.75000  Biso   1.000  O
  H233     1.0000 0.43250  0.05940  0.27340  Biso   1.000  H
  H234     1.0000 0.05940  0.56750  0.72660  Biso   1.000  H
  H235     1.0000 0.56750  0.94060  0.27340  Biso   1.000  H
  H236     1.0000 0.94060  0.43250  0.72660  Biso   1.000  H
  H237     1.0000 0.06750  0.55940  0.77340  Biso   1.000  H
  H238     1.0000 0.55940  0.93250  0.22660  Biso   1.000  H
  H239     1.0000 0.93250  0.44060  0.77340  Biso   1.000  H
  H240     1.0000 0.44060  0.06750  0.22660  Biso   1.000  H
  H241     1.0000 0.49510  0.08470  0.23300  Biso   1.000  H
  H242     1.0000 0.08470  0.50490  0.76700  Biso   1.000  H
  H243     1.0000 0.50490  0.91530  0.23300  Biso   1.000  H
  H244     1.0000 0.91530  0.49510  0.76700  Biso   1.000  H
  H245     1.0000 0.00490  0.58470  0.73300  Biso   1.000  H
  H246     1.0000 0.58470  0.99510  0.26700  Biso   1.000  H
  H247     1.0000 0.99510  0.41530  0.73300  Biso   1.000  H
  H248     1.0000 0.41530  0.00490  0.26700  Biso   1.000  H
  O69      1.0000 0.02800  0.43300  0.52840  Biso   1.000  O
  O70      1.0000 0.43300  0.97200  0.47160  Biso   1.000  O
  O71      1.0000 0.97200  0.56700  0.52840  Biso   1.000  O
  O72      1.0000 0.56700  0.02800  0.47160  Biso   1.000  O
  O73      1.0000 0.47200  0.93300  0.02840  Biso   1.000  O
  O74      1.0000 0.93300  0.52800  0.97160  Biso   1.000  O
  O75      1.0000 0.52800  0.06700  0.02840  Biso   1.000  O
  O76      1.0000 0.06700  0.47200  0.97160  Biso   1.000  O
  H249     1.0000 0.04630  0.38020  0.51390  Biso   1.000  H
  H250     1.0000 0.38020  0.95370  0.48610  Biso   1.000  H
  H251     1.0000 0.95370  0.61980  0.51390  Biso   1.000  H
  H252     1.0000 0.61980  0.04630  0.48610  Biso   1.000  H
  H253     1.0000 0.45370  0.88020  0.01390  Biso   1.000  H
  H254     1.0000 0.88020  0.54630  0.98610  Biso   1.000  H
  H255     1.0000 0.54630  0.11980  0.01390  Biso   1.000  H
  H256     1.0000 0.11980  0.45370  0.98610  Biso   1.000  H
  H257     1.0000 0.04640  0.43310  0.56020  Biso   1.000  H
  H258     1.0000 0.43310  0.95360  0.43980  Biso   1.000  H
  H259     1.0000 0.95360  0.56690  0.56020  Biso   1.000  H
  H260     1.0000 0.56690  0.04640  0.43980  Biso   1.000  H
  H261     1.0000 0.45360  0.93310  0.06020  Biso   1.000  H
  H262     1.0000 0.93310  0.54640  0.93980  Biso   1.000  H
  H263     1.0000 0.54640  0.06690  0.06020  Biso   1.000  H
  H264     1.0000 0.06690  0.45360  0.93980  Biso   1.000  H
  O77      1.0000 0.52300  0.07300  0.20400  Biso   1.000  O
  O78      1.0000 0.07300  0.47700  0.79600  Biso   1.000  O
  O79      1.0000 0.47700  0.92700  0.20400  Biso   1.000  O
  O80      1.0000 0.92700  0.52300  0.79600  Biso   1.000  O
  O81      1.0000 0.97700  0.57300  0.70400  Biso   1.000  O
  O82      1.0000 0.57300  0.02300  0.29600  Biso   1.000  O
  O83      1.0000 0.02300  0.42700  0.70400  Biso   1.000  O
  O84      1.0000 0.42700  0.97700  0.29600  Biso   1.000  O
  H265     1.0000 0.48060  0.10960  0.21820  Biso   1.000  H
  H266     1.0000 0.10960  0.51940  0.78180  Biso   1.000  H
  H267     1.0000 0.51940  0.89040  0.21820  Biso   1.000  H
  H268     1.0000 0.89040  0.48060  0.78180  Biso   1.000  H
  H269     1.0000 0.01940  0.60960  0.71820  Biso   1.000  H
  H270     1.0000 0.60960  0.98060  0.28180  Biso   1.000  H
  H271     1.0000 0.98060  0.39040  0.71820  Biso   1.000  H
  H272     1.0000 0.39040  0.01940  0.28180  Biso   1.000  H
  H273     1.0000 0.56120  0.10760  0.18550  Biso   1.000  H
  H274     1.0000 0.10760  0.43880  0.81450  Biso   1.000  H
  H275     1.0000 0.43880  0.89240  0.18550  Biso   1.000  H
  H276     1.0000 0.89240  0.56120  0.81450  Biso   1.000  H
  H277     1.0000 0.93880  0.60760  0.68550  Biso   1.000  H
  H278     1.0000 0.60760  0.06120  0.31450  Biso   1.000  H
  H279     1.0000 0.06120  0.39240  0.68550  Biso   1.000  H
  H280     1.0000 0.39240  0.93880  0.31450  Biso   1.000  H
  O85      1.0000 0.65900  0.37600  0.33400  Biso   1.000  O
  O86      1.0000 0.37600  0.34100  0.66600  Biso   1.000  O
  O87      1.0000 0.34100  0.62400  0.33400  Biso   1.000  O
  O88      1.0000 0.62400  0.65900  0.66600  Biso   1.000  O
  O89      1.0000 0.84100  0.87600  0.83400  Biso   1.000  O
  O90      1.0000 0.87600  0.15900  0.16600  Biso   1.000  O
  O91      1.0000 0.15900  0.12400  0.83400  Biso   1.000  O
  O92      1.0000 0.12400  0.84100  0.16600  Biso   1.000  O
  H281     1.0000 0.66460  0.34400  0.30560  Biso   1.000  H
  H282     1.0000 0.34400  0.33540  0.69440  Biso   1.000  H
  H283     1.0000 0.33540  0.65600  0.30560  Biso   1.000  H
  H284     1.0000 0.65600  0.66460  0.69440  Biso   1.000  H
  H285     1.0000 0.83540  0.84400  0.80560  Biso   1.000  H
  H286     1.0000 0.84400  0.16460  0.19440  Biso   1.000  H
  H287     1.0000 0.16460  0.15600  0.80560  Biso   1.000  H
  H288     1.0000 0.15600  0.83540  0.19440  Biso   1.000  H
  H289     1.0000 0.66360  0.43650  0.32740  Biso   1.000  H
  H290     1.0000 0.43650  0.33640  0.67260  Biso   1.000  H
  H291     1.0000 0.33640  0.56350  0.32740  Biso   1.000  H
  H292     1.0000 0.56350  0.66360  0.67260  Biso   1.000  H
  H293     1.0000 0.83640  0.93650  0.82740  Biso   1.000  H
  H294     1.0000 0.93650  0.16360  0.17260  Biso   1.000  H
  H295     1.0000 0.16360  0.06350  0.82740  Biso   1.000  H
  H296     1.0000 0.06350  0.83640  0.17260  Biso   1.000  H
