data_image0
_cell_length_a       12.032
_cell_length_b       20.474
_cell_length_c       11.1482
_cell_angle_alpha    90
_cell_angle_beta     98.798
_cell_angle_gamma    90

_symmetry_space_group_name_H-M    "P 1"
_symmetry_int_tables_number       1

loop_
  _symmetry_equiv_pos_as_xyz
  'x, y, z'

loop_
  _atom_site_label
  _atom_site_occupancy
  _atom_site_fract_x
  _atom_site_fract_y
  _atom_site_fract_z
  _atom_site_thermal_displace_type
  _atom_site_B_iso_or_equiv
  _atom_site_type_symbol
  Cu1      1.0000 0.50000  0.41538  0.25000  Biso   1.000  Cu
  Cu2      1.0000 0.00000  0.91538  0.25000  Biso   1.000  Cu
  Cu3      1.0000 0.50000  0.58462  0.75000  Biso   1.000  Cu
  Cu4      1.0000 0.00000  0.08462  0.75000  Biso   1.000  Cu
  O1       1.0000 0.39430  0.48031  0.18160  Biso   1.000  O
  O2       1.0000 0.89430  0.98031  0.18160  Biso   1.000  O
  O3       1.0000 0.39430  0.51969  0.68160  Biso   1.000  O
  O4       1.0000 0.89430  0.01969  0.68160  Biso   1.000  O
  O5       1.0000 0.60570  0.51969  0.81840  Biso   1.000  O
  O6       1.0000 0.10570  0.01969  0.81840  Biso   1.000  O
  O7       1.0000 0.60570  0.48031  0.31840  Biso   1.000  O
  O8       1.0000 0.10570  0.98031  0.31840  Biso   1.000  O
  O9       1.0000 0.59580  0.36830  0.09260  Biso   1.000  O
  O10      1.0000 0.09580  0.86830  0.09260  Biso   1.000  O
  O11      1.0000 0.59580  0.63170  0.59260  Biso   1.000  O
  O12      1.0000 0.09580  0.13170  0.59260  Biso   1.000  O
  O13      1.0000 0.40420  0.63170  0.90740  Biso   1.000  O
  O14      1.0000 0.90420  0.13170  0.90740  Biso   1.000  O
  O15      1.0000 0.40420  0.36830  0.40740  Biso   1.000  O
  O16      1.0000 0.90420  0.86830  0.40740  Biso   1.000  O
  O17      1.0000 0.61740  0.34610  0.28230  Biso   1.000  O
  O18      1.0000 0.11740  0.84610  0.28230  Biso   1.000  O
  O19      1.0000 0.61740  0.65390  0.78230  Biso   1.000  O
  O20      1.0000 0.11740  0.15390  0.78230  Biso   1.000  O
  O21      1.0000 0.38260  0.65390  0.71770  Biso   1.000  O
  O22      1.0000 0.88260  0.15390  0.71770  Biso   1.000  O
  O23      1.0000 0.38260  0.34610  0.21770  Biso   1.000  O
  O24      1.0000 0.88260  0.84610  0.21770  Biso   1.000  O
  O25      1.0000 0.71880  0.29600  0.16930  Biso   1.000  O
  O26      1.0000 0.21880  0.79600  0.16930  Biso   1.000  O
  O27      1.0000 0.71880  0.70400  0.66930  Biso   1.000  O
  O28      1.0000 0.21880  0.20400  0.66930  Biso   1.000  O
  O29      1.0000 0.28120  0.70400  0.83070  Biso   1.000  O
  O30      1.0000 0.78120  0.20400  0.83070  Biso   1.000  O
  O31      1.0000 0.28120  0.29600  0.33070  Biso   1.000  O
  O32      1.0000 0.78120  0.79600  0.33070  Biso   1.000  O
  N1       1.0000 0.64550  0.33610  0.17950  Biso   1.000  N
  N2       1.0000 0.14550  0.83610  0.17950  Biso   1.000  N
  N3       1.0000 0.64550  0.66390  0.67950  Biso   1.000  N
  N4       1.0000 0.14550  0.16390  0.67950  Biso   1.000  N
  N5       1.0000 0.35450  0.66390  0.82050  Biso   1.000  N
  N6       1.0000 0.85450  0.16390  0.82050  Biso   1.000  N
  N7       1.0000 0.35450  0.33610  0.32050  Biso   1.000  N
  N8       1.0000 0.85450  0.83610  0.32050  Biso   1.000  N
  C1       1.0000 0.36460  0.53060  0.23840  Biso   1.000  C
  C2       1.0000 0.86460  0.03060  0.23840  Biso   1.000  C
  C3       1.0000 0.36460  0.46940  0.73840  Biso   1.000  C
  C4       1.0000 0.86460  0.96940  0.73840  Biso   1.000  C
  C5       1.0000 0.63540  0.46940  0.76160  Biso   1.000  C
  C6       1.0000 0.13540  0.96940  0.76160  Biso   1.000  C
  C7       1.0000 0.63540  0.53060  0.26160  Biso   1.000  C
  C8       1.0000 0.13540  0.03060  0.26160  Biso   1.000  C
  C9       1.0000 0.33040  0.58890  0.17660  Biso   1.000  C
  C10      1.0000 0.83040  0.08890  0.17660  Biso   1.000  C
  C11      1.0000 0.33040  0.41110  0.67660  Biso   1.000  C
  C12      1.0000 0.83040  0.91110  0.67660  Biso   1.000  C
  C13      1.0000 0.66960  0.41110  0.82340  Biso   1.000  C
  C14      1.0000 0.16960  0.91110  0.82340  Biso   1.000  C
  C15      1.0000 0.66960  0.58890  0.32340  Biso   1.000  C
  C16      1.0000 0.16960  0.08890  0.32340  Biso   1.000  C
  H1       1.0000 0.32830  0.59080  0.09290  Biso   1.000  H
  H2       1.0000 0.82830  0.09080  0.09290  Biso   1.000  H
  H3       1.0000 0.32830  0.40920  0.59290  Biso   1.000  H
  H4       1.0000 0.82830  0.90920  0.59290  Biso   1.000  H
  H5       1.0000 0.67170  0.40920  0.90710  Biso   1.000  H
  H6       1.0000 0.17170  0.90920  0.90710  Biso   1.000  H
  H7       1.0000 0.67170  0.59080  0.40710  Biso   1.000  H
  H8       1.0000 0.17170  0.09080  0.40710  Biso   1.000  H
  C17      1.0000 0.30080  0.64200  0.23570  Biso   1.000  C
  C18      1.0000 0.80080  0.14200  0.23570  Biso   1.000  C
  C19      1.0000 0.30080  0.35800  0.73570  Biso   1.000  C
  C20      1.0000 0.80080  0.85800  0.73570  Biso   1.000  C
  C21      1.0000 0.69920  0.35800  0.76430  Biso   1.000  C
  C22      1.0000 0.19920  0.85800  0.76430  Biso   1.000  C
  C23      1.0000 0.69920  0.64200  0.26430  Biso   1.000  C
  C24      1.0000 0.19920  0.14200  0.26430  Biso   1.000  C
  H9       1.0000 0.27750  0.67960  0.19220  Biso   1.000  H
  H10      1.0000 0.77750  0.17960  0.19220  Biso   1.000  H
  H11      1.0000 0.27750  0.32040  0.69220  Biso   1.000  H
  H12      1.0000 0.77750  0.82040  0.69220  Biso   1.000  H
  H13      1.0000 0.72250  0.32040  0.80780  Biso   1.000  H
  H14      1.0000 0.22250  0.82040  0.80780  Biso   1.000  H
  H15      1.0000 0.72250  0.67960  0.30780  Biso   1.000  H
  H16      1.0000 0.22250  0.17960  0.30780  Biso   1.000  H
  N9       1.0000 0.30460  0.64132  0.35840  Biso   1.000  N
  N10      1.0000 0.80460  0.14132  0.35840  Biso   1.000  N
  N11      1.0000 0.30460  0.35868  0.85840  Biso   1.000  N
  N12      1.0000 0.80460  0.85868  0.85840  Biso   1.000  N
  N13      1.0000 0.69540  0.35868  0.64160  Biso   1.000  N
  N14      1.0000 0.19540  0.85868  0.64160  Biso   1.000  N
  N15      1.0000 0.69540  0.64132  0.14160  Biso   1.000  N
  N16      1.0000 0.19540  0.14132  0.14160  Biso   1.000  N
  C25      1.0000 0.33650  0.58680  0.42060  Biso   1.000  C
  C26      1.0000 0.83650  0.08680  0.42060  Biso   1.000  C
  C27      1.0000 0.33650  0.41320  0.92060  Biso   1.000  C
  C28      1.0000 0.83650  0.91320  0.92060  Biso   1.000  C
  C29      1.0000 0.66350  0.41320  0.57940  Biso   1.000  C
  C30      1.0000 0.16350  0.91320  0.57940  Biso   1.000  C
  C31      1.0000 0.66350  0.58680  0.07940  Biso   1.000  C
  C32      1.0000 0.16350  0.08680  0.07940  Biso   1.000  C
  H17      1.0000 0.33710  0.58650  0.50410  Biso   1.000  H
  H18      1.0000 0.83710  0.08650  0.50410  Biso   1.000  H
  H19      1.0000 0.33710  0.41350  0.00410  Biso   1.000  H
  H20      1.0000 0.83710  0.91350  0.00410  Biso   1.000  H
  H21      1.0000 0.66290  0.41350  0.49590  Biso   1.000  H
  H22      1.0000 0.16290  0.91350  0.49590  Biso   1.000  H
  H23      1.0000 0.66290  0.58650  0.99590  Biso   1.000  H
  H24      1.0000 0.16290  0.08650  0.99590  Biso   1.000  H
  C33      1.0000 0.36770  0.53220  0.36660  Biso   1.000  C
  C34      1.0000 0.86770  0.03220  0.36660  Biso   1.000  C
  C35      1.0000 0.36770  0.46780  0.86660  Biso   1.000  C
  C36      1.0000 0.86770  0.96780  0.86660  Biso   1.000  C
  C37      1.0000 0.63230  0.46780  0.63340  Biso   1.000  C
  C38      1.0000 0.13230  0.96780  0.63340  Biso   1.000  C
  C39      1.0000 0.63230  0.53220  0.13340  Biso   1.000  C
  C40      1.0000 0.13230  0.03220  0.13340  Biso   1.000  C
  H25      1.0000 0.39120  0.49570  0.41310  Biso   1.000  H
  H26      1.0000 0.89120  0.99570  0.41310  Biso   1.000  H
  H27      1.0000 0.39120  0.50430  0.91310  Biso   1.000  H
  H28      1.0000 0.89120  0.00430  0.91310  Biso   1.000  H
  H29      1.0000 0.60880  0.50430  0.58690  Biso   1.000  H
  H30      1.0000 0.10880  0.00430  0.58690  Biso   1.000  H
  H31      1.0000 0.60880  0.49570  0.08690  Biso   1.000  H
  H32      1.0000 0.10880  0.99570  0.08690  Biso   1.000  H
  C41      1.0000 0.27530  0.70000  0.42330  Biso   1.000  C
  C42      1.0000 0.77530  0.20000  0.42330  Biso   1.000  C
  C43      1.0000 0.27530  0.30000  0.92330  Biso   1.000  C
  C44      1.0000 0.77530  0.80000  0.92330  Biso   1.000  C
  C45      1.0000 0.72470  0.30000  0.57670  Biso   1.000  C
  C46      1.0000 0.22470  0.80000  0.57670  Biso   1.000  C
  C47      1.0000 0.72470  0.70000  0.07670  Biso   1.000  C
  C48      1.0000 0.22470  0.20000  0.07670  Biso   1.000  C
  H33      1.0000 0.33260  0.70530  0.49400  Biso   1.000  H
  H34      1.0000 0.83260  0.20530  0.49400  Biso   1.000  H
  H35      1.0000 0.33260  0.29470  0.99400  Biso   1.000  H
  H36      1.0000 0.83260  0.79470  0.99400  Biso   1.000  H
  H37      1.0000 0.66740  0.29470  0.50600  Biso   1.000  H
  H38      1.0000 0.16740  0.79470  0.50600  Biso   1.000  H
  H39      1.0000 0.66740  0.70530  0.00600  Biso   1.000  H
  H40      1.0000 0.16740  0.20530  0.00600  Biso   1.000  H
  H41      1.0000 0.28150  0.73720  0.37090  Biso   1.000  H
  H42      1.0000 0.78150  0.23720  0.37090  Biso   1.000  H
  H43      1.0000 0.28150  0.26280  0.87090  Biso   1.000  H
  H44      1.0000 0.78150  0.76280  0.87090  Biso   1.000  H
  H45      1.0000 0.71850  0.26280  0.62910  Biso   1.000  H
  H46      1.0000 0.21850  0.76280  0.62910  Biso   1.000  H
  H47      1.0000 0.71850  0.73720  0.12910  Biso   1.000  H
  H48      1.0000 0.21850  0.23720  0.12910  Biso   1.000  H
  H49      1.0000 0.21510  0.72140  0.37180  Biso   1.000  H
  H50      1.0000 0.71510  0.22140  0.37180  Biso   1.000  H
  H51      1.0000 0.21510  0.27860  0.87180  Biso   1.000  H
  H52      1.0000 0.71510  0.77860  0.87180  Biso   1.000  H
  H53      1.0000 0.78490  0.27860  0.62820  Biso   1.000  H
  H54      1.0000 0.28490  0.77860  0.62820  Biso   1.000  H
  H55      1.0000 0.78490  0.72140  0.12820  Biso   1.000  H
  H56      1.0000 0.28490  0.22140  0.12820  Biso   1.000  H
  H57      1.0000 0.24520  0.68490  0.49330  Biso   1.000  H
  H58      1.0000 0.74520  0.18490  0.49330  Biso   1.000  H
  H59      1.0000 0.24520  0.31510  0.99330  Biso   1.000  H
  H60      1.0000 0.74520  0.81510  0.99330  Biso   1.000  H
  H61      1.0000 0.75480  0.31510  0.50670  Biso   1.000  H
  H62      1.0000 0.25480  0.81510  0.50670  Biso   1.000  H
  H63      1.0000 0.75480  0.68490  0.00670  Biso   1.000  H
  H64      1.0000 0.25480  0.18490  0.00670  Biso   1.000  H
  C49      1.0000 0.17540  0.70390  0.46120  Biso   1.000  C
  C50      1.0000 0.67540  0.20390  0.46120  Biso   1.000  C
  C51      1.0000 0.17540  0.29610  0.96120  Biso   1.000  C
  C52      1.0000 0.67540  0.79610  0.96120  Biso   1.000  C
  C53      1.0000 0.82460  0.29610  0.53880  Biso   1.000  C
  C54      1.0000 0.32460  0.79610  0.53880  Biso   1.000  C
  C55      1.0000 0.82460  0.70390  0.03880  Biso   1.000  C
  C56      1.0000 0.32460  0.20390  0.03880  Biso   1.000  C
  C57      1.0000 0.09190  0.65970  0.41900  Biso   1.000  C
  C58      1.0000 0.59190  0.15970  0.41900  Biso   1.000  C
  C59      1.0000 0.09190  0.34030  0.91900  Biso   1.000  C
  C60      1.0000 0.59190  0.84030  0.91900  Biso   1.000  C
  C61      1.0000 0.90810  0.34030  0.58100  Biso   1.000  C
  C62      1.0000 0.40810  0.84030  0.58100  Biso   1.000  C
  C63      1.0000 0.90810  0.65970  0.08100  Biso   1.000  C
  C64      1.0000 0.40810  0.15970  0.08100  Biso   1.000  C
  H65      1.0000 0.10670  0.62690  0.36610  Biso   1.000  H
  H66      1.0000 0.60670  0.12690  0.36610  Biso   1.000  H
  H67      1.0000 0.10670  0.37310  0.86610  Biso   1.000  H
  H68      1.0000 0.60670  0.87310  0.86610  Biso   1.000  H
  H69      1.0000 0.89330  0.37310  0.63390  Biso   1.000  H
  H70      1.0000 0.39330  0.87310  0.63390  Biso   1.000  H
  H71      1.0000 0.89330  0.62690  0.13390  Biso   1.000  H
  H72      1.0000 0.39330  0.12690  0.13390  Biso   1.000  H
  C65      1.0000 0.98420  0.66350  0.45470  Biso   1.000  C
  C66      1.0000 0.48420  0.16350  0.45470  Biso   1.000  C
  C67      1.0000 0.98420  0.33650  0.95470  Biso   1.000  C
  C68      1.0000 0.48420  0.83650  0.95470  Biso   1.000  C
  C69      1.0000 0.01580  0.33650  0.54530  Biso   1.000  C
  C70      1.0000 0.51580  0.83650  0.54530  Biso   1.000  C
  C71      1.0000 0.01580  0.66350  0.04530  Biso   1.000  C
  C72      1.0000 0.51580  0.16350  0.04530  Biso   1.000  C
  H73      1.0000 0.93020  0.63240  0.42650  Biso   1.000  H
  H74      1.0000 0.43020  0.13240  0.42650  Biso   1.000  H
  H75      1.0000 0.93020  0.36760  0.92650  Biso   1.000  H
  H76      1.0000 0.43020  0.86760  0.92650  Biso   1.000  H
  H77      1.0000 0.06980  0.36760  0.57350  Biso   1.000  H
  H78      1.0000 0.56980  0.86760  0.57350  Biso   1.000  H
  H79      1.0000 0.06980  0.63240  0.07350  Biso   1.000  H
  H80      1.0000 0.56980  0.13240  0.07350  Biso   1.000  H
  C73      1.0000 0.95870  0.71050  0.52750  Biso   1.000  C
  C74      1.0000 0.45870  0.21050  0.52750  Biso   1.000  C
  C75      1.0000 0.95870  0.28950  0.02750  Biso   1.000  C
  C76      1.0000 0.45870  0.78950  0.02750  Biso   1.000  C
  C77      1.0000 0.04130  0.28950  0.47250  Biso   1.000  C
  C78      1.0000 0.54130  0.78950  0.47250  Biso   1.000  C
  C79      1.0000 0.04130  0.71050  0.97250  Biso   1.000  C
  C80      1.0000 0.54130  0.21050  0.97250  Biso   1.000  C
  H81      1.0000 0.88840  0.71200  0.55240  Biso   1.000  H
  H82      1.0000 0.38840  0.21200  0.55240  Biso   1.000  H
  H83      1.0000 0.88840  0.28800  0.05240  Biso   1.000  H
  H84      1.0000 0.38840  0.78800  0.05240  Biso   1.000  H
  H85      1.0000 0.11160  0.28800  0.44760  Biso   1.000  H
  H86      1.0000 0.61160  0.78800  0.44760  Biso   1.000  H
  H87      1.0000 0.11160  0.71200  0.94760  Biso   1.000  H
  H88      1.0000 0.61160  0.21200  0.94760  Biso   1.000  H
  C81      1.0000 0.04150  0.75860  0.56670  Biso   1.000  C
  C82      1.0000 0.54150  0.25860  0.56670  Biso   1.000  C
  C83      1.0000 0.04150  0.24140  0.06670  Biso   1.000  C
  C84      1.0000 0.54150  0.74140  0.06670  Biso   1.000  C
  C85      1.0000 0.95850  0.24140  0.43330  Biso   1.000  C
  C86      1.0000 0.45850  0.74140  0.43330  Biso   1.000  C
  C87      1.0000 0.95850  0.75860  0.93330  Biso   1.000  C
  C88      1.0000 0.45850  0.25860  0.93330  Biso   1.000  C
  H89      1.0000 0.02290  0.79350  0.61310  Biso   1.000  H
  H90      1.0000 0.52290  0.29350  0.61310  Biso   1.000  H
  H91      1.0000 0.02290  0.20650  0.11310  Biso   1.000  H
  H92      1.0000 0.52290  0.70650  0.11310  Biso   1.000  H
  H93      1.0000 0.97710  0.20650  0.38690  Biso   1.000  H
  H94      1.0000 0.47710  0.70650  0.38690  Biso   1.000  H
  H95      1.0000 0.97710  0.79350  0.88690  Biso   1.000  H
  H96      1.0000 0.47710  0.29350  0.88690  Biso   1.000  H
  C89      1.0000 0.35070  0.74510  0.46230  Biso   1.000  C
  C90      1.0000 0.85070  0.24510  0.46230  Biso   1.000  C
  C91      1.0000 0.35070  0.25490  0.96230  Biso   1.000  C
  C92      1.0000 0.85070  0.75490  0.96230  Biso   1.000  C
  C93      1.0000 0.64930  0.25490  0.53770  Biso   1.000  C
  C94      1.0000 0.14930  0.75490  0.53770  Biso   1.000  C
  C95      1.0000 0.64930  0.74510  0.03770  Biso   1.000  C
  C96      1.0000 0.14930  0.24510  0.03770  Biso   1.000  C
  O33      1.0000 0.90200  0.43200  0.30200  Biso   1.000  O
  O34      1.0000 0.40200  0.93200  0.30200  Biso   1.000  O
  O35      1.0000 0.90200  0.56800  0.80200  Biso   1.000  O
  O36      1.0000 0.40200  0.06800  0.80200  Biso   1.000  O
  O37      1.0000 0.09800  0.56800  0.69800  Biso   1.000  O
  O38      1.0000 0.59800  0.06800  0.69800  Biso   1.000  O
  O39      1.0000 0.09800  0.43200  0.19800  Biso   1.000  O
  O40      1.0000 0.59800  0.93200  0.19800  Biso   1.000  O
  O41      1.0000 0.97300  0.48400  0.26200  Biso   1.000  O
  O42      1.0000 0.47300  0.98400  0.26200  Biso   1.000  O
  O43      1.0000 0.97300  0.51600  0.76200  Biso   1.000  O
  O44      1.0000 0.47300  0.01600  0.76200  Biso   1.000  O
  O45      1.0000 0.02700  0.51600  0.73800  Biso   1.000  O
  O46      1.0000 0.52700  0.01600  0.73800  Biso   1.000  O
  O47      1.0000 0.02700  0.48400  0.23800  Biso   1.000  O
  O48      1.0000 0.52700  0.98400  0.23800  Biso   1.000  O
