data_image0
_cell_length_a       14.201
_cell_length_b       24.198
_cell_length_c       16.872
_cell_angle_alpha    90
_cell_angle_beta     90
_cell_angle_gamma    90

_symmetry_space_group_name_H-M    "P 1"
_symmetry_int_tables_number       1

loop_
  _symmetry_equiv_pos_as_xyz
  'x, y, z'

loop_
  _atom_site_label
  _atom_site_occupancy
  _atom_site_fract_x
  _atom_site_fract_y
  _atom_site_fract_z
  _atom_site_thermal_displace_type
  _atom_site_B_iso_or_equiv
  _atom_site_type_symbol
  Cu1      1.0000 0.55343  0.09260  0.50299  Biso   1.000  Cu
  Cu2      1.0000 0.44657  0.90740  0.50299  Biso   1.000  Cu
  Cu3      1.0000 0.44657  0.09260  0.00299  Biso   1.000  Cu
  Cu4      1.0000 0.55343  0.90740  0.00299  Biso   1.000  Cu
  Cu5      1.0000 0.05343  0.59260  0.50299  Biso   1.000  Cu
  Cu6      1.0000 0.94657  0.40740  0.50299  Biso   1.000  Cu
  Cu7      1.0000 0.94657  0.59260  0.00299  Biso   1.000  Cu
  Cu8      1.0000 0.05343  0.40740  0.00299  Biso   1.000  Cu
  Cu9      1.0000 0.19972  0.15663  0.55532  Biso   1.000  Cu
  Cu10     1.0000 0.80028  0.84337  0.55532  Biso   1.000  Cu
  Cu11     1.0000 0.80028  0.15663  0.05532  Biso   1.000  Cu
  Cu12     1.0000 0.19972  0.84337  0.05532  Biso   1.000  Cu
  Cu13     1.0000 0.69972  0.65663  0.55532  Biso   1.000  Cu
  Cu14     1.0000 0.30028  0.34337  0.55532  Biso   1.000  Cu
  Cu15     1.0000 0.30028  0.65663  0.05532  Biso   1.000  Cu
  Cu16     1.0000 0.69972  0.34337  0.05532  Biso   1.000  Cu
  N1       1.0000 0.62750  0.05470  0.59178  Biso   1.000  N
  N2       1.0000 0.37250  0.94530  0.59178  Biso   1.000  N
  N3       1.0000 0.37250  0.05470  0.09178  Biso   1.000  N
  N4       1.0000 0.62750  0.94530  0.09178  Biso   1.000  N
  N5       1.0000 0.12750  0.55470  0.59178  Biso   1.000  N
  N6       1.0000 0.87250  0.44530  0.59178  Biso   1.000  N
  N7       1.0000 0.87250  0.55470  0.09178  Biso   1.000  N
  N8       1.0000 0.12750  0.44530  0.09178  Biso   1.000  N
  H1       1.0000 0.62330  0.01790  0.58120  Biso   1.000  H
  H2       1.0000 0.37670  0.98210  0.58120  Biso   1.000  H
  H3       1.0000 0.37670  0.01790  0.08120  Biso   1.000  H
  H4       1.0000 0.62330  0.98210  0.08120  Biso   1.000  H
  H5       1.0000 0.12330  0.51790  0.58120  Biso   1.000  H
  H6       1.0000 0.87670  0.48210  0.58120  Biso   1.000  H
  H7       1.0000 0.87670  0.51790  0.08120  Biso   1.000  H
  H8       1.0000 0.12330  0.48210  0.08120  Biso   1.000  H
  N9       1.0000 0.67710  0.12207  0.46546  Biso   1.000  N
  N10      1.0000 0.32290  0.87793  0.46546  Biso   1.000  N
  N11      1.0000 0.32290  0.12207  0.96546  Biso   1.000  N
  N12      1.0000 0.67710  0.87793  0.96546  Biso   1.000  N
  N13      1.0000 0.17710  0.62207  0.46546  Biso   1.000  N
  N14      1.0000 0.82290  0.37793  0.46546  Biso   1.000  N
  N15      1.0000 0.82290  0.62207  0.96546  Biso   1.000  N
  N16      1.0000 0.17710  0.37793  0.96546  Biso   1.000  N
  H9       1.0000 0.68810  0.15360  0.49340  Biso   1.000  H
  H10      1.0000 0.31190  0.84640  0.49340  Biso   1.000  H
  H11      1.0000 0.31190  0.15360  0.99340  Biso   1.000  H
  H12      1.0000 0.68810  0.84640  0.99340  Biso   1.000  H
  H13      1.0000 0.18810  0.65360  0.49340  Biso   1.000  H
  H14      1.0000 0.81190  0.34640  0.49340  Biso   1.000  H
  H15      1.0000 0.81190  0.65360  0.99340  Biso   1.000  H
  H16      1.0000 0.18810  0.34640  0.99340  Biso   1.000  H
  N17      1.0000 0.07700  0.12545  0.59260  Biso   1.000  N
  N18      1.0000 0.92300  0.87455  0.59260  Biso   1.000  N
  N19      1.0000 0.92300  0.12545  0.09260  Biso   1.000  N
  N20      1.0000 0.07700  0.87455  0.09260  Biso   1.000  N
  N21      1.0000 0.57700  0.62545  0.59260  Biso   1.000  N
  N22      1.0000 0.42300  0.37455  0.59260  Biso   1.000  N
  N23      1.0000 0.42300  0.62545  0.09260  Biso   1.000  N
  N24      1.0000 0.57700  0.37455  0.09260  Biso   1.000  N
  H17      1.0000 0.06610  0.09450  0.56330  Biso   1.000  H
  H18      1.0000 0.93390  0.90550  0.56330  Biso   1.000  H
  H19      1.0000 0.93390  0.09450  0.06330  Biso   1.000  H
  H20      1.0000 0.06610  0.90550  0.06330  Biso   1.000  H
  H21      1.0000 0.56610  0.59450  0.56330  Biso   1.000  H
  H22      1.0000 0.43390  0.40550  0.56330  Biso   1.000  H
  H23      1.0000 0.43390  0.59450  0.06330  Biso   1.000  H
  H24      1.0000 0.56610  0.40550  0.06330  Biso   1.000  H
  N25      1.0000 0.12410  0.19605  0.47020  Biso   1.000  N
  N26      1.0000 0.87590  0.80395  0.47020  Biso   1.000  N
  N27      1.0000 0.87590  0.19605  0.97020  Biso   1.000  N
  N28      1.0000 0.12410  0.80395  0.97020  Biso   1.000  N
  N29      1.0000 0.62410  0.69605  0.47020  Biso   1.000  N
  N30      1.0000 0.37590  0.30395  0.47020  Biso   1.000  N
  N31      1.0000 0.37590  0.69605  0.97020  Biso   1.000  N
  N32      1.0000 0.62410  0.30395  0.97020  Biso   1.000  N
  H25      1.0000 0.12770  0.23260  0.48240  Biso   1.000  H
  H26      1.0000 0.87230  0.76740  0.48240  Biso   1.000  H
  H27      1.0000 0.87230  0.23260  0.98240  Biso   1.000  H
  H28      1.0000 0.12770  0.76740  0.98240  Biso   1.000  H
  H29      1.0000 0.62770  0.73260  0.48240  Biso   1.000  H
  H30      1.0000 0.37230  0.26740  0.48240  Biso   1.000  H
  H31      1.0000 0.37230  0.73260  0.98240  Biso   1.000  H
  H32      1.0000 0.62770  0.26740  0.98240  Biso   1.000  H
  N33      1.0000 0.53390  0.04400  0.39900  Biso   1.000  N
  N34      1.0000 0.46610  0.95600  0.39900  Biso   1.000  N
  N35      1.0000 0.46610  0.04400  0.89900  Biso   1.000  N
  N36      1.0000 0.53390  0.95600  0.89900  Biso   1.000  N
  N37      1.0000 0.03390  0.54400  0.39900  Biso   1.000  N
  N38      1.0000 0.96610  0.45600  0.39900  Biso   1.000  N
  N39      1.0000 0.96610  0.54400  0.89900  Biso   1.000  N
  N40      1.0000 0.03390  0.45600  0.89900  Biso   1.000  N
  N41      1.0000 0.50000  0.00000  0.40100  Biso   1.000  N
  N42      1.0000 0.50000  0.00000  0.90100  Biso   1.000  N
  N43      1.0000 0.00000  0.50000  0.40100  Biso   1.000  N
  N44      1.0000 0.00000  0.50000  0.90100  Biso   1.000  N
  N45      1.0000 0.21320  0.20665  0.65990  Biso   1.000  N
  N46      1.0000 0.78680  0.79335  0.65990  Biso   1.000  N
  N47      1.0000 0.78680  0.20665  0.15990  Biso   1.000  N
  N48      1.0000 0.21320  0.79335  0.15990  Biso   1.000  N
  N49      1.0000 0.71320  0.70665  0.65990  Biso   1.000  N
  N50      1.0000 0.28680  0.29335  0.65990  Biso   1.000  N
  N51      1.0000 0.28680  0.70665  0.15990  Biso   1.000  N
  N52      1.0000 0.71320  0.29335  0.15990  Biso   1.000  N
  N53      1.0000 0.25000  0.25000  0.65870  Biso   1.000  N
  N54      1.0000 0.75000  0.75000  0.65870  Biso   1.000  N
  N55      1.0000 0.75000  0.25000  0.15870  Biso   1.000  N
  N56      1.0000 0.25000  0.75000  0.15870  Biso   1.000  N
  O1       1.0000 0.47020  0.16362  0.49248  Biso   1.000  O
  O2       1.0000 0.52980  0.83638  0.49248  Biso   1.000  O
  O3       1.0000 0.52980  0.16362  0.99248  Biso   1.000  O
  O4       1.0000 0.47020  0.83638  0.99248  Biso   1.000  O
  O5       1.0000 0.97020  0.66362  0.49248  Biso   1.000  O
  O6       1.0000 0.02980  0.33638  0.49248  Biso   1.000  O
  O7       1.0000 0.02980  0.66362  0.99248  Biso   1.000  O
  O8       1.0000 0.97020  0.33638  0.99248  Biso   1.000  O
  O9       1.0000 0.43346  0.06250  0.54770  Biso   1.000  O
  O10      1.0000 0.56654  0.93750  0.54770  Biso   1.000  O
  O11      1.0000 0.56654  0.06250  0.04770  Biso   1.000  O
  O12      1.0000 0.43346  0.93750  0.04770  Biso   1.000  O
  O13      1.0000 0.93346  0.56250  0.54770  Biso   1.000  O
  O14      1.0000 0.06654  0.43750  0.54770  Biso   1.000  O
  O15      1.0000 0.06654  0.56250  0.04770  Biso   1.000  O
  O16      1.0000 0.93346  0.43750  0.04770  Biso   1.000  O
  O17      1.0000 0.28281  0.08565  0.56570  Biso   1.000  O
  O18      1.0000 0.71719  0.91435  0.56570  Biso   1.000  O
  O19      1.0000 0.71719  0.08565  0.06570  Biso   1.000  O
  O20      1.0000 0.28281  0.91435  0.06570  Biso   1.000  O
  O21      1.0000 0.78281  0.58565  0.56570  Biso   1.000  O
  O22      1.0000 0.21719  0.41435  0.56570  Biso   1.000  O
  O23      1.0000 0.21719  0.58565  0.06570  Biso   1.000  O
  O24      1.0000 0.78281  0.41435  0.06570  Biso   1.000  O
  O25      1.0000 0.32020  0.18740  0.51290  Biso   1.000  O
  O26      1.0000 0.67980  0.81260  0.51290  Biso   1.000  O
  O27      1.0000 0.67980  0.18740  0.01290  Biso   1.000  O
  O28      1.0000 0.32020  0.81260  0.01290  Biso   1.000  O
  O29      1.0000 0.82020  0.68740  0.51290  Biso   1.000  O
  O30      1.0000 0.17980  0.31260  0.51290  Biso   1.000  O
  O31      1.0000 0.17980  0.68740  0.01290  Biso   1.000  O
  O32      1.0000 0.82020  0.31260  0.01290  Biso   1.000  O
  C1       1.0000 0.72820  0.06881  0.57970  Biso   1.000  C
  C2       1.0000 0.27180  0.93119  0.57970  Biso   1.000  C
  C3       1.0000 0.27180  0.06881  0.07970  Biso   1.000  C
  C4       1.0000 0.72820  0.93119  0.07970  Biso   1.000  C
  C5       1.0000 0.22820  0.56881  0.57970  Biso   1.000  C
  C6       1.0000 0.77180  0.43119  0.57970  Biso   1.000  C
  C7       1.0000 0.77180  0.56881  0.07970  Biso   1.000  C
  C8       1.0000 0.22820  0.43119  0.07970  Biso   1.000  C
  H33      1.0000 0.74430  0.10110  0.61090  Biso   1.000  H
  H34      1.0000 0.25570  0.89890  0.61090  Biso   1.000  H
  H35      1.0000 0.25570  0.10110  0.11090  Biso   1.000  H
  H36      1.0000 0.74430  0.89890  0.11090  Biso   1.000  H
  H37      1.0000 0.24430  0.60110  0.61090  Biso   1.000  H
  H38      1.0000 0.75570  0.39890  0.61090  Biso   1.000  H
  H39      1.0000 0.75570  0.60110  0.11090  Biso   1.000  H
  H40      1.0000 0.24430  0.39890  0.11090  Biso   1.000  H
  H41      1.0000 0.76750  0.03830  0.59700  Biso   1.000  H
  H42      1.0000 0.23250  0.96170  0.59700  Biso   1.000  H
  H43      1.0000 0.23250  0.03830  0.09700  Biso   1.000  H
  H44      1.0000 0.76750  0.96170  0.09700  Biso   1.000  H
  H45      1.0000 0.26750  0.53830  0.59700  Biso   1.000  H
  H46      1.0000 0.73250  0.46170  0.59700  Biso   1.000  H
  H47      1.0000 0.73250  0.53830  0.09700  Biso   1.000  H
  H48      1.0000 0.26750  0.46170  0.09700  Biso   1.000  H
  C9       1.0000 0.74540  0.08007  0.49480  Biso   1.000  C
  C10      1.0000 0.25460  0.91993  0.49480  Biso   1.000  C
  C11      1.0000 0.25460  0.08007  0.99480  Biso   1.000  C
  C12      1.0000 0.74540  0.91993  0.99480  Biso   1.000  C
  C13      1.0000 0.24540  0.58007  0.49480  Biso   1.000  C
  C14      1.0000 0.75460  0.41993  0.49480  Biso   1.000  C
  C15      1.0000 0.75460  0.58007  0.99480  Biso   1.000  C
  C16      1.0000 0.24540  0.41993  0.99480  Biso   1.000  C
  H49      1.0000 0.73860  0.04620  0.46460  Biso   1.000  H
  H50      1.0000 0.26140  0.95380  0.46460  Biso   1.000  H
  H51      1.0000 0.26140  0.04620  0.96460  Biso   1.000  H
  H52      1.0000 0.73860  0.95380  0.96460  Biso   1.000  H
  H53      1.0000 0.23860  0.54620  0.46460  Biso   1.000  H
  H54      1.0000 0.76140  0.45380  0.46460  Biso   1.000  H
  H55      1.0000 0.76140  0.54620  0.96460  Biso   1.000  H
  H56      1.0000 0.23860  0.45380  0.96460  Biso   1.000  H
  H57      1.0000 0.80910  0.09360  0.48770  Biso   1.000  H
  H58      1.0000 0.19090  0.90640  0.48770  Biso   1.000  H
  H59      1.0000 0.19090  0.09360  0.98770  Biso   1.000  H
  H60      1.0000 0.80910  0.90640  0.98770  Biso   1.000  H
  H61      1.0000 0.30910  0.59360  0.48770  Biso   1.000  H
  H62      1.0000 0.69090  0.40640  0.48770  Biso   1.000  H
  H63      1.0000 0.69090  0.59360  0.98770  Biso   1.000  H
  H64      1.0000 0.30910  0.40640  0.98770  Biso   1.000  H
  C17      1.0000 0.00710  0.16786  0.56570  Biso   1.000  C
  C18      1.0000 0.99290  0.83214  0.56570  Biso   1.000  C
  C19      1.0000 0.99290  0.16786  0.06570  Biso   1.000  C
  C20      1.0000 0.00710  0.83214  0.06570  Biso   1.000  C
  C21      1.0000 0.50710  0.66786  0.56570  Biso   1.000  C
  C22      1.0000 0.49290  0.33214  0.56570  Biso   1.000  C
  C23      1.0000 0.49290  0.66786  0.06570  Biso   1.000  C
  C24      1.0000 0.50710  0.33214  0.06570  Biso   1.000  C
  H65      1.0000 0.94360  0.15380  0.57260  Biso   1.000  H
  H66      1.0000 0.05640  0.84620  0.57260  Biso   1.000  H
  H67      1.0000 0.05640  0.15380  0.07260  Biso   1.000  H
  H68      1.0000 0.94360  0.84620  0.07260  Biso   1.000  H
  H69      1.0000 0.44360  0.65380  0.57260  Biso   1.000  H
  H70      1.0000 0.55640  0.34620  0.57260  Biso   1.000  H
  H71      1.0000 0.55640  0.65380  0.07260  Biso   1.000  H
  H72      1.0000 0.44360  0.34620  0.07260  Biso   1.000  H
  H73      1.0000 0.01360  0.20110  0.59730  Biso   1.000  H
  H74      1.0000 0.98640  0.79890  0.59730  Biso   1.000  H
  H75      1.0000 0.98640  0.20110  0.09730  Biso   1.000  H
  H76      1.0000 0.01360  0.79890  0.09730  Biso   1.000  H
  H77      1.0000 0.51360  0.70110  0.59730  Biso   1.000  H
  H78      1.0000 0.48640  0.29890  0.59730  Biso   1.000  H
  H79      1.0000 0.48640  0.70110  0.09730  Biso   1.000  H
  H80      1.0000 0.51360  0.29890  0.09730  Biso   1.000  H
  C25      1.0000 0.02400  0.18090  0.48070  Biso   1.000  C
  C26      1.0000 0.97600  0.81910  0.48070  Biso   1.000  C
  C27      1.0000 0.97600  0.18090  0.98070  Biso   1.000  C
  C28      1.0000 0.02400  0.81910  0.98070  Biso   1.000  C
  C29      1.0000 0.52400  0.68090  0.48070  Biso   1.000  C
  C30      1.0000 0.47600  0.31910  0.48070  Biso   1.000  C
  C31      1.0000 0.47600  0.68090  0.98070  Biso   1.000  C
  C32      1.0000 0.52400  0.31910  0.98070  Biso   1.000  C
  H81      1.0000 0.00900  0.14900  0.44820  Biso   1.000  H
  H82      1.0000 0.99100  0.85100  0.44820  Biso   1.000  H
  H83      1.0000 0.99100  0.14900  0.94820  Biso   1.000  H
  H84      1.0000 0.00900  0.85100  0.94820  Biso   1.000  H
  H85      1.0000 0.50900  0.64900  0.44820  Biso   1.000  H
  H86      1.0000 0.49100  0.35100  0.44820  Biso   1.000  H
  H87      1.0000 0.49100  0.64900  0.94820  Biso   1.000  H
  H88      1.0000 0.50900  0.35100  0.94820  Biso   1.000  H
  H89      1.0000 0.98400  0.21130  0.46430  Biso   1.000  H
  H90      1.0000 0.01600  0.78870  0.46430  Biso   1.000  H
  H91      1.0000 0.01600  0.21130  0.96430  Biso   1.000  H
  H92      1.0000 0.98400  0.78870  0.96430  Biso   1.000  H
  H93      1.0000 0.48400  0.71130  0.46430  Biso   1.000  H
  H94      1.0000 0.51600  0.28870  0.46430  Biso   1.000  H
  H95      1.0000 0.51600  0.71130  0.96430  Biso   1.000  H
  H96      1.0000 0.48400  0.28870  0.96430  Biso   1.000  H
  C33      1.0000 0.59220  0.06093  0.67400  Biso   1.000  C
  C34      1.0000 0.40780  0.93907  0.67400  Biso   1.000  C
  C35      1.0000 0.40780  0.06093  0.17400  Biso   1.000  C
  C36      1.0000 0.59220  0.93907  0.17400  Biso   1.000  C
  C37      1.0000 0.09220  0.56093  0.67400  Biso   1.000  C
  C38      1.0000 0.90780  0.43907  0.67400  Biso   1.000  C
  C39      1.0000 0.90780  0.56093  0.17400  Biso   1.000  C
  C40      1.0000 0.09220  0.43907  0.17400  Biso   1.000  C
  H97      1.0000 0.52820  0.04580  0.67510  Biso   1.000  H
  H98      1.0000 0.47180  0.95420  0.67510  Biso   1.000  H
  H99      1.0000 0.47180  0.04580  0.17510  Biso   1.000  H
  H100     1.0000 0.52820  0.95420  0.17510  Biso   1.000  H
  H101     1.0000 0.02820  0.54580  0.67510  Biso   1.000  H
  H102     1.0000 0.97180  0.45420  0.67510  Biso   1.000  H
  H103     1.0000 0.97180  0.54580  0.17510  Biso   1.000  H
  H104     1.0000 0.02820  0.45420  0.17510  Biso   1.000  H
  C41      1.0000 0.69170  0.13578  0.38050  Biso   1.000  C
  C42      1.0000 0.30830  0.86422  0.38050  Biso   1.000  C
  C43      1.0000 0.30830  0.13578  0.88050  Biso   1.000  C
  C44      1.0000 0.69170  0.86422  0.88050  Biso   1.000  C
  C45      1.0000 0.19170  0.63578  0.38050  Biso   1.000  C
  C46      1.0000 0.80830  0.36422  0.38050  Biso   1.000  C
  C47      1.0000 0.80830  0.63578  0.88050  Biso   1.000  C
  C48      1.0000 0.19170  0.36422  0.88050  Biso   1.000  C
  H105     1.0000 0.68740  0.10160  0.34960  Biso   1.000  H
  H106     1.0000 0.31260  0.89840  0.34960  Biso   1.000  H
  H107     1.0000 0.31260  0.10160  0.84960  Biso   1.000  H
  H108     1.0000 0.68740  0.89840  0.84960  Biso   1.000  H
  H109     1.0000 0.18740  0.60160  0.34960  Biso   1.000  H
  H110     1.0000 0.81260  0.39840  0.34960  Biso   1.000  H
  H111     1.0000 0.81260  0.60160  0.84960  Biso   1.000  H
  H112     1.0000 0.18740  0.39840  0.84960  Biso   1.000  H
  C49      1.0000 0.06380  0.10949  0.67740  Biso   1.000  C
  C50      1.0000 0.93620  0.89051  0.67740  Biso   1.000  C
  C51      1.0000 0.93620  0.10949  0.17740  Biso   1.000  C
  C52      1.0000 0.06380  0.89051  0.17740  Biso   1.000  C
  C53      1.0000 0.56380  0.60949  0.67740  Biso   1.000  C
  C54      1.0000 0.43620  0.39051  0.67740  Biso   1.000  C
  C55      1.0000 0.43620  0.60949  0.17740  Biso   1.000  C
  C56      1.0000 0.56380  0.39051  0.17740  Biso   1.000  C
  H113     1.0000 0.06800  0.14300  0.70990  Biso   1.000  H
  H114     1.0000 0.93200  0.85700  0.70990  Biso   1.000  H
  H115     1.0000 0.93200  0.14300  0.20990  Biso   1.000  H
  H116     1.0000 0.06800  0.85700  0.20990  Biso   1.000  H
  H117     1.0000 0.56800  0.64300  0.70990  Biso   1.000  H
  H118     1.0000 0.43200  0.35700  0.70990  Biso   1.000  H
  H119     1.0000 0.43200  0.64300  0.20990  Biso   1.000  H
  H120     1.0000 0.56800  0.35700  0.20990  Biso   1.000  H
  C57      1.0000 0.15920  0.19150  0.38700  Biso   1.000  C
  C58      1.0000 0.84080  0.80850  0.38700  Biso   1.000  C
  C59      1.0000 0.84080  0.19150  0.88700  Biso   1.000  C
  C60      1.0000 0.15920  0.80850  0.88700  Biso   1.000  C
  C61      1.0000 0.65920  0.69150  0.38700  Biso   1.000  C
  C62      1.0000 0.34080  0.30850  0.38700  Biso   1.000  C
  C63      1.0000 0.34080  0.69150  0.88700  Biso   1.000  C
  C64      1.0000 0.65920  0.30850  0.88700  Biso   1.000  C
  H121     1.0000 0.22140  0.20900  0.38610  Biso   1.000  H
  H122     1.0000 0.77860  0.79100  0.38610  Biso   1.000  H
  H123     1.0000 0.77860  0.20900  0.88610  Biso   1.000  H
  H124     1.0000 0.22140  0.79100  0.88610  Biso   1.000  H
  H125     1.0000 0.72140  0.70900  0.38610  Biso   1.000  H
  H126     1.0000 0.27860  0.29100  0.38610  Biso   1.000  H
  H127     1.0000 0.27860  0.70900  0.88610  Biso   1.000  H
  H128     1.0000 0.72140  0.29100  0.88610  Biso   1.000  H
  C65      1.0000 0.58530  0.12080  0.69820  Biso   1.000  C
  C66      1.0000 0.41470  0.87920  0.69820  Biso   1.000  C
  C67      1.0000 0.41470  0.12080  0.19820  Biso   1.000  C
  C68      1.0000 0.58530  0.87920  0.19820  Biso   1.000  C
  C69      1.0000 0.08530  0.62080  0.69820  Biso   1.000  C
  C70      1.0000 0.91470  0.37920  0.69820  Biso   1.000  C
  C71      1.0000 0.91470  0.62080  0.19820  Biso   1.000  C
  C72      1.0000 0.08530  0.37920  0.19820  Biso   1.000  C
  H129     1.0000 0.64690  0.13450  0.71100  Biso   1.000  H
  H130     1.0000 0.35310  0.86550  0.71100  Biso   1.000  H
  H131     1.0000 0.35310  0.13450  0.21100  Biso   1.000  H
  H132     1.0000 0.64690  0.86550  0.21100  Biso   1.000  H
  H133     1.0000 0.14690  0.63450  0.71100  Biso   1.000  H
  H134     1.0000 0.85310  0.36550  0.71100  Biso   1.000  H
  H135     1.0000 0.85310  0.63450  0.21100  Biso   1.000  H
  H136     1.0000 0.14690  0.36550  0.21100  Biso   1.000  H
  H137     1.0000 0.54500  0.12400  0.74370  Biso   1.000  H
  H138     1.0000 0.45500  0.87600  0.74370  Biso   1.000  H
  H139     1.0000 0.45500  0.12400  0.24370  Biso   1.000  H
  H140     1.0000 0.54500  0.87600  0.24370  Biso   1.000  H
  H141     1.0000 0.04500  0.62400  0.74370  Biso   1.000  H
  H142     1.0000 0.95500  0.37600  0.74370  Biso   1.000  H
  H143     1.0000 0.95500  0.62400  0.24370  Biso   1.000  H
  H144     1.0000 0.04500  0.37600  0.24370  Biso   1.000  H
  H145     1.0000 0.55950  0.14200  0.65520  Biso   1.000  H
  H146     1.0000 0.44050  0.85800  0.65520  Biso   1.000  H
  H147     1.0000 0.44050  0.14200  0.15520  Biso   1.000  H
  H148     1.0000 0.55950  0.85800  0.15520  Biso   1.000  H
  H149     1.0000 0.05950  0.64200  0.65520  Biso   1.000  H
  H150     1.0000 0.94050  0.35800  0.65520  Biso   1.000  H
  H151     1.0000 0.94050  0.64200  0.15520  Biso   1.000  H
  H152     1.0000 0.05950  0.35800  0.15520  Biso   1.000  H
  C73      1.0000 0.65110  0.02700  0.73330  Biso   1.000  C
  C74      1.0000 0.34890  0.97300  0.73330  Biso   1.000  C
  C75      1.0000 0.34890  0.02700  0.23330  Biso   1.000  C
  C76      1.0000 0.65110  0.97300  0.23330  Biso   1.000  C
  C77      1.0000 0.15110  0.52700  0.73330  Biso   1.000  C
  C78      1.0000 0.84890  0.47300  0.73330  Biso   1.000  C
  C79      1.0000 0.84890  0.52700  0.23330  Biso   1.000  C
  C80      1.0000 0.15110  0.47300  0.23330  Biso   1.000  C
  H153     1.0000 0.65460  0.98930  0.71580  Biso   1.000  H
  H154     1.0000 0.34540  0.01070  0.71580  Biso   1.000  H
  H155     1.0000 0.34540  0.98930  0.21580  Biso   1.000  H
  H156     1.0000 0.65460  0.01070  0.21580  Biso   1.000  H
  H157     1.0000 0.15460  0.48930  0.71580  Biso   1.000  H
  H158     1.0000 0.84540  0.51070  0.71580  Biso   1.000  H
  H159     1.0000 0.84540  0.48930  0.21580  Biso   1.000  H
  H160     1.0000 0.15460  0.51070  0.21580  Biso   1.000  H
  H161     1.0000 0.62210  0.02840  0.78470  Biso   1.000  H
  H162     1.0000 0.37790  0.97160  0.78470  Biso   1.000  H
  H163     1.0000 0.37790  0.02840  0.28470  Biso   1.000  H
  H164     1.0000 0.62210  0.97160  0.28470  Biso   1.000  H
  H165     1.0000 0.12210  0.52840  0.78470  Biso   1.000  H
  H166     1.0000 0.87790  0.47160  0.78470  Biso   1.000  H
  H167     1.0000 0.87790  0.52840  0.28470  Biso   1.000  H
  H168     1.0000 0.12210  0.47160  0.28470  Biso   1.000  H
  H169     1.0000 0.71350  0.04220  0.73650  Biso   1.000  H
  H170     1.0000 0.28650  0.95780  0.73650  Biso   1.000  H
  H171     1.0000 0.28650  0.04220  0.23650  Biso   1.000  H
  H172     1.0000 0.71350  0.95780  0.23650  Biso   1.000  H
  H173     1.0000 0.21350  0.54220  0.73650  Biso   1.000  H
  H174     1.0000 0.78650  0.45780  0.73650  Biso   1.000  H
  H175     1.0000 0.78650  0.54220  0.23650  Biso   1.000  H
  H176     1.0000 0.21350  0.45780  0.23650  Biso   1.000  H
  C81      1.0000 0.61570  0.17520  0.35190  Biso   1.000  C
  C82      1.0000 0.38430  0.82480  0.35190  Biso   1.000  C
  C83      1.0000 0.38430  0.17520  0.85190  Biso   1.000  C
  C84      1.0000 0.61570  0.82480  0.85190  Biso   1.000  C
  C85      1.0000 0.11570  0.67520  0.35190  Biso   1.000  C
  C86      1.0000 0.88430  0.32480  0.35190  Biso   1.000  C
  C87      1.0000 0.88430  0.67520  0.85190  Biso   1.000  C
  C88      1.0000 0.11570  0.32480  0.85190  Biso   1.000  C
  H177     1.0000 0.55530  0.15770  0.35620  Biso   1.000  H
  H178     1.0000 0.44470  0.84230  0.35620  Biso   1.000  H
  H179     1.0000 0.44470  0.15770  0.85620  Biso   1.000  H
  H180     1.0000 0.55530  0.84230  0.85620  Biso   1.000  H
  H181     1.0000 0.05530  0.65770  0.35620  Biso   1.000  H
  H182     1.0000 0.94470  0.34230  0.35620  Biso   1.000  H
  H183     1.0000 0.94470  0.65770  0.85620  Biso   1.000  H
  H184     1.0000 0.05530  0.34230  0.85620  Biso   1.000  H
  H185     1.0000 0.62740  0.18480  0.29760  Biso   1.000  H
  H186     1.0000 0.37260  0.81520  0.29760  Biso   1.000  H
  H187     1.0000 0.37260  0.18480  0.79760  Biso   1.000  H
  H188     1.0000 0.62740  0.81520  0.79760  Biso   1.000  H
  H189     1.0000 0.12740  0.68480  0.29760  Biso   1.000  H
  H190     1.0000 0.87260  0.31520  0.29760  Biso   1.000  H
  H191     1.0000 0.87260  0.68480  0.79760  Biso   1.000  H
  H192     1.0000 0.12740  0.31520  0.79760  Biso   1.000  H
  H193     1.0000 0.61650  0.20810  0.38380  Biso   1.000  H
  H194     1.0000 0.38350  0.79190  0.38380  Biso   1.000  H
  H195     1.0000 0.38350  0.20810  0.88380  Biso   1.000  H
  H196     1.0000 0.61650  0.79190  0.88380  Biso   1.000  H
  H197     1.0000 0.11650  0.70810  0.38380  Biso   1.000  H
  H198     1.0000 0.88350  0.29190  0.38380  Biso   1.000  H
  H199     1.0000 0.88350  0.70810  0.88380  Biso   1.000  H
  H200     1.0000 0.11650  0.29190  0.88380  Biso   1.000  H
  C89      1.0000 0.78960  0.16130  0.36700  Biso   1.000  C
  C90      1.0000 0.21040  0.83870  0.36700  Biso   1.000  C
  C91      1.0000 0.21040  0.16130  0.86700  Biso   1.000  C
  C92      1.0000 0.78960  0.83870  0.86700  Biso   1.000  C
  C93      1.0000 0.28960  0.66130  0.36700  Biso   1.000  C
  C94      1.0000 0.71040  0.33870  0.36700  Biso   1.000  C
  C95      1.0000 0.71040  0.66130  0.86700  Biso   1.000  C
  C96      1.0000 0.28960  0.33870  0.86700  Biso   1.000  C
  H201     1.0000 0.79770  0.19250  0.40150  Biso   1.000  H
  H202     1.0000 0.20230  0.80750  0.40150  Biso   1.000  H
  H203     1.0000 0.20230  0.19250  0.90150  Biso   1.000  H
  H204     1.0000 0.79770  0.80750  0.90150  Biso   1.000  H
  H205     1.0000 0.29770  0.69250  0.40150  Biso   1.000  H
  H206     1.0000 0.70230  0.30750  0.40150  Biso   1.000  H
  H207     1.0000 0.70230  0.69250  0.90150  Biso   1.000  H
  H208     1.0000 0.29770  0.30750  0.90150  Biso   1.000  H
  H209     1.0000 0.79500  0.17320  0.31290  Biso   1.000  H
  H210     1.0000 0.20500  0.82680  0.31290  Biso   1.000  H
  H211     1.0000 0.20500  0.17320  0.81290  Biso   1.000  H
  H212     1.0000 0.79500  0.82680  0.81290  Biso   1.000  H
  H213     1.0000 0.29500  0.67320  0.31290  Biso   1.000  H
  H214     1.0000 0.70500  0.32680  0.31290  Biso   1.000  H
  H215     1.0000 0.70500  0.67320  0.81290  Biso   1.000  H
  H216     1.0000 0.29500  0.32680  0.81290  Biso   1.000  H
  H217     1.0000 0.83720  0.13420  0.37800  Biso   1.000  H
  H218     1.0000 0.16280  0.86580  0.37800  Biso   1.000  H
  H219     1.0000 0.16280  0.13420  0.87800  Biso   1.000  H
  H220     1.0000 0.83720  0.86580  0.87800  Biso   1.000  H
  H221     1.0000 0.33720  0.63420  0.37800  Biso   1.000  H
  H222     1.0000 0.66280  0.36580  0.37800  Biso   1.000  H
  H223     1.0000 0.66280  0.63420  0.87800  Biso   1.000  H
  H224     1.0000 0.33720  0.36580  0.87800  Biso   1.000  H
  C97      1.0000 0.96670  0.08340  0.69060  Biso   1.000  C
  C98      1.0000 0.03330  0.91660  0.69060  Biso   1.000  C
  C99      1.0000 0.03330  0.08340  0.19060  Biso   1.000  C
  C100     1.0000 0.96670  0.91660  0.19060  Biso   1.000  C
  C101     1.0000 0.46670  0.58340  0.69060  Biso   1.000  C
  C102     1.0000 0.53330  0.41660  0.69060  Biso   1.000  C
  C103     1.0000 0.53330  0.58340  0.19060  Biso   1.000  C
  C104     1.0000 0.46670  0.41660  0.19060  Biso   1.000  C
  H225     1.0000 0.91870  0.11080  0.68300  Biso   1.000  H
  H226     1.0000 0.08130  0.88920  0.68300  Biso   1.000  H
  H227     1.0000 0.08130  0.11080  0.18300  Biso   1.000  H
  H228     1.0000 0.91870  0.88920  0.18300  Biso   1.000  H
  H229     1.0000 0.41870  0.61080  0.68300  Biso   1.000  H
  H230     1.0000 0.58130  0.38920  0.68300  Biso   1.000  H
  H231     1.0000 0.58130  0.61080  0.18300  Biso   1.000  H
  H232     1.0000 0.41870  0.38920  0.18300  Biso   1.000  H
  H233     1.0000 0.96290  0.06920  0.74370  Biso   1.000  H
  H234     1.0000 0.03710  0.93080  0.74370  Biso   1.000  H
  H235     1.0000 0.03710  0.06920  0.24370  Biso   1.000  H
  H236     1.0000 0.96290  0.93080  0.24370  Biso   1.000  H
  H237     1.0000 0.46290  0.56920  0.74370  Biso   1.000  H
  H238     1.0000 0.53710  0.43080  0.74370  Biso   1.000  H
  H239     1.0000 0.53710  0.56920  0.24370  Biso   1.000  H
  H240     1.0000 0.46290  0.43080  0.24370  Biso   1.000  H
  H241     1.0000 0.95760  0.05380  0.65350  Biso   1.000  H
  H242     1.0000 0.04240  0.94620  0.65350  Biso   1.000  H
  H243     1.0000 0.04240  0.05380  0.15350  Biso   1.000  H
  H244     1.0000 0.95760  0.94620  0.15350  Biso   1.000  H
  H245     1.0000 0.45760  0.55380  0.65350  Biso   1.000  H
  H246     1.0000 0.54240  0.44620  0.65350  Biso   1.000  H
  H247     1.0000 0.54240  0.55380  0.15350  Biso   1.000  H
  H248     1.0000 0.45760  0.44620  0.15350  Biso   1.000  H
  C105     1.0000 0.14160  0.07023  0.70270  Biso   1.000  C
  C106     1.0000 0.85840  0.92977  0.70270  Biso   1.000  C
  C107     1.0000 0.85840  0.07023  0.20270  Biso   1.000  C
  C108     1.0000 0.14160  0.92977  0.20270  Biso   1.000  C
  C109     1.0000 0.64160  0.57023  0.70270  Biso   1.000  C
  C110     1.0000 0.35840  0.42977  0.70270  Biso   1.000  C
  C111     1.0000 0.35840  0.57023  0.20270  Biso   1.000  C
  C112     1.0000 0.64160  0.42977  0.20270  Biso   1.000  C
  H249     1.0000 0.14640  0.04060  0.66510  Biso   1.000  H
  H250     1.0000 0.85360  0.95940  0.66510  Biso   1.000  H
  H251     1.0000 0.85360  0.04060  0.16510  Biso   1.000  H
  H252     1.0000 0.14640  0.95940  0.16510  Biso   1.000  H
  H253     1.0000 0.64640  0.54060  0.66510  Biso   1.000  H
  H254     1.0000 0.35360  0.45940  0.66510  Biso   1.000  H
  H255     1.0000 0.35360  0.54060  0.16510  Biso   1.000  H
  H256     1.0000 0.64640  0.45940  0.16510  Biso   1.000  H
  H257     1.0000 0.12730  0.05540  0.75410  Biso   1.000  H
  H258     1.0000 0.87270  0.94460  0.75410  Biso   1.000  H
  H259     1.0000 0.87270  0.05540  0.25410  Biso   1.000  H
  H260     1.0000 0.12730  0.94460  0.25410  Biso   1.000  H
  H261     1.0000 0.62730  0.55540  0.75410  Biso   1.000  H
  H262     1.0000 0.37270  0.44460  0.75410  Biso   1.000  H
  H263     1.0000 0.37270  0.55540  0.25410  Biso   1.000  H
  H264     1.0000 0.62730  0.44460  0.25410  Biso   1.000  H
  H265     1.0000 0.20030  0.08990  0.70490  Biso   1.000  H
  H266     1.0000 0.79970  0.91010  0.70490  Biso   1.000  H
  H267     1.0000 0.79970  0.08990  0.20490  Biso   1.000  H
  H268     1.0000 0.20030  0.91010  0.20490  Biso   1.000  H
  H269     1.0000 0.70030  0.58990  0.70490  Biso   1.000  H
  H270     1.0000 0.29970  0.41010  0.70490  Biso   1.000  H
  H271     1.0000 0.29970  0.58990  0.20490  Biso   1.000  H
  H272     1.0000 0.70030  0.41010  0.20490  Biso   1.000  H
  C113     1.0000 0.17410  0.13170  0.36420  Biso   1.000  C
  C114     1.0000 0.82590  0.86830  0.36420  Biso   1.000  C
  C115     1.0000 0.82590  0.13170  0.86420  Biso   1.000  C
  C116     1.0000 0.17410  0.86830  0.86420  Biso   1.000  C
  C117     1.0000 0.67410  0.63170  0.36420  Biso   1.000  C
  C118     1.0000 0.32590  0.36830  0.36420  Biso   1.000  C
  C119     1.0000 0.32590  0.63170  0.86420  Biso   1.000  C
  C120     1.0000 0.67410  0.36830  0.86420  Biso   1.000  C
  H273     1.0000 0.21900  0.11520  0.39960  Biso   1.000  H
  H274     1.0000 0.78100  0.88480  0.39960  Biso   1.000  H
  H275     1.0000 0.78100  0.11520  0.89960  Biso   1.000  H
  H276     1.0000 0.21900  0.88480  0.89960  Biso   1.000  H
  H277     1.0000 0.71900  0.61520  0.39960  Biso   1.000  H
  H278     1.0000 0.28100  0.38480  0.39960  Biso   1.000  H
  H279     1.0000 0.28100  0.61520  0.89960  Biso   1.000  H
  H280     1.0000 0.71900  0.38480  0.89960  Biso   1.000  H
  H281     1.0000 0.19730  0.12980  0.31090  Biso   1.000  H
  H282     1.0000 0.80270  0.87020  0.31090  Biso   1.000  H
  H283     1.0000 0.80270  0.12980  0.81090  Biso   1.000  H
  H284     1.0000 0.19730  0.87020  0.81090  Biso   1.000  H
  H285     1.0000 0.69730  0.62980  0.31090  Biso   1.000  H
  H286     1.0000 0.30270  0.37020  0.31090  Biso   1.000  H
  H287     1.0000 0.30270  0.62980  0.81090  Biso   1.000  H
  H288     1.0000 0.69730  0.37020  0.81090  Biso   1.000  H
  H289     1.0000 0.11540  0.11220  0.36780  Biso   1.000  H
  H290     1.0000 0.88460  0.88780  0.36780  Biso   1.000  H
  H291     1.0000 0.88460  0.11220  0.86780  Biso   1.000  H
  H292     1.0000 0.11540  0.88780  0.86780  Biso   1.000  H
  H293     1.0000 0.61540  0.61220  0.36780  Biso   1.000  H
  H294     1.0000 0.38460  0.38780  0.36780  Biso   1.000  H
  H295     1.0000 0.38460  0.61220  0.86780  Biso   1.000  H
  H296     1.0000 0.61540  0.38780  0.86780  Biso   1.000  H
  C121     1.0000 0.09770  0.22390  0.32900  Biso   1.000  C
  C122     1.0000 0.90230  0.77610  0.32900  Biso   1.000  C
  C123     1.0000 0.90230  0.22390  0.82900  Biso   1.000  C
  C124     1.0000 0.09770  0.77610  0.82900  Biso   1.000  C
  C125     1.0000 0.59770  0.72390  0.32900  Biso   1.000  C
  C126     1.0000 0.40230  0.27610  0.32900  Biso   1.000  C
  C127     1.0000 0.40230  0.72390  0.82900  Biso   1.000  C
  C128     1.0000 0.59770  0.27610  0.82900  Biso   1.000  C
  H297     1.0000 0.03980  0.20430  0.32040  Biso   1.000  H
  H298     1.0000 0.96020  0.79570  0.32040  Biso   1.000  H
  H299     1.0000 0.96020  0.20430  0.82040  Biso   1.000  H
  H300     1.0000 0.03980  0.79570  0.82040  Biso   1.000  H
  H301     1.0000 0.53980  0.70430  0.32040  Biso   1.000  H
  H302     1.0000 0.46020  0.29570  0.32040  Biso   1.000  H
  H303     1.0000 0.46020  0.70430  0.82040  Biso   1.000  H
  H304     1.0000 0.53980  0.29570  0.82040  Biso   1.000  H
  H305     1.0000 0.13040  0.22790  0.27950  Biso   1.000  H
  H306     1.0000 0.86960  0.77210  0.27950  Biso   1.000  H
  H307     1.0000 0.86960  0.22790  0.77950  Biso   1.000  H
  H308     1.0000 0.13040  0.77210  0.77950  Biso   1.000  H
  H309     1.0000 0.63040  0.72790  0.27950  Biso   1.000  H
  H310     1.0000 0.36960  0.27210  0.27950  Biso   1.000  H
  H311     1.0000 0.36960  0.72790  0.77950  Biso   1.000  H
  H312     1.0000 0.63040  0.27210  0.77950  Biso   1.000  H
  H313     1.0000 0.08420  0.25970  0.35060  Biso   1.000  H
  H314     1.0000 0.91580  0.74030  0.35060  Biso   1.000  H
  H315     1.0000 0.91580  0.25970  0.85060  Biso   1.000  H
  H316     1.0000 0.08420  0.74030  0.85060  Biso   1.000  H
  H317     1.0000 0.58420  0.75970  0.35060  Biso   1.000  H
  H318     1.0000 0.41580  0.24030  0.35060  Biso   1.000  H
  H319     1.0000 0.41580  0.75970  0.85060  Biso   1.000  H
  H320     1.0000 0.58420  0.24030  0.85060  Biso   1.000  H
  C129     1.0000 0.36540  0.09582  0.54500  Biso   1.000  C
  C130     1.0000 0.63460  0.90418  0.54500  Biso   1.000  C
  C131     1.0000 0.63460  0.09582  0.04500  Biso   1.000  C
  C132     1.0000 0.36540  0.90418  0.04500  Biso   1.000  C
  C133     1.0000 0.86540  0.59582  0.54500  Biso   1.000  C
  C134     1.0000 0.13460  0.40418  0.54500  Biso   1.000  C
  C135     1.0000 0.13460  0.59582  0.04500  Biso   1.000  C
  C136     1.0000 0.86540  0.40418  0.04500  Biso   1.000  C
  C137     1.0000 0.38790  0.15396  0.51420  Biso   1.000  C
  C138     1.0000 0.61210  0.84604  0.51420  Biso   1.000  C
  C139     1.0000 0.61210  0.15396  0.01420  Biso   1.000  C
  C140     1.0000 0.38790  0.84604  0.01420  Biso   1.000  C
  C141     1.0000 0.88790  0.65396  0.51420  Biso   1.000  C
  C142     1.0000 0.11210  0.34604  0.51420  Biso   1.000  C
  C143     1.0000 0.11210  0.65396  0.01420  Biso   1.000  C
  C144     1.0000 0.88790  0.34604  0.01420  Biso   1.000  C
  Cl1      1.0000 0.75000  0.25000  0.59509  Biso   1.000  Cl
  Cl2      1.0000 0.25000  0.75000  0.59509  Biso   1.000  Cl
  Cl3      1.0000 0.25000  0.25000  0.09509  Biso   1.000  Cl
  Cl4      1.0000 0.75000  0.75000  0.09509  Biso   1.000  Cl
  O33      1.0000 0.67170  0.23390  0.54950  Biso   1.000  O
  O34      1.0000 0.32830  0.76610  0.54950  Biso   1.000  O
  O35      1.0000 0.32830  0.23390  0.04950  Biso   1.000  O
  O36      1.0000 0.67170  0.76610  0.04950  Biso   1.000  O
  O37      1.0000 0.17170  0.73390  0.54950  Biso   1.000  O
  O38      1.0000 0.82830  0.26610  0.54950  Biso   1.000  O
  O39      1.0000 0.82830  0.73390  0.04950  Biso   1.000  O
  O40      1.0000 0.17170  0.26610  0.04950  Biso   1.000  O
  O41      1.0000 0.77850  0.20490  0.63950  Biso   1.000  O
  O42      1.0000 0.22150  0.79510  0.63950  Biso   1.000  O
  O43      1.0000 0.22150  0.20490  0.13950  Biso   1.000  O
  O44      1.0000 0.77850  0.79510  0.13950  Biso   1.000  O
  O45      1.0000 0.27850  0.70490  0.63950  Biso   1.000  O
  O46      1.0000 0.72150  0.29510  0.63950  Biso   1.000  O
  O47      1.0000 0.72150  0.70490  0.13950  Biso   1.000  O
  O48      1.0000 0.27850  0.29510  0.13950  Biso   1.000  O
  Cl5      1.0000 0.00000  0.00000  0.45220  Biso   1.000  Cl
  Cl6      1.0000 0.00000  0.00000  0.95220  Biso   1.000  Cl
  Cl7      1.0000 0.50000  0.50000  0.45220  Biso   1.000  Cl
  Cl8      1.0000 0.50000  0.50000  0.95220  Biso   1.000  Cl
  O49      1.0000 0.96920  0.04390  0.40900  Biso   1.000  O
  O50      1.0000 0.03080  0.95610  0.40900  Biso   1.000  O
  O51      1.0000 0.03080  0.04390  0.90900  Biso   1.000  O
  O52      1.0000 0.96920  0.95610  0.90900  Biso   1.000  O
  O53      1.0000 0.46920  0.54390  0.40900  Biso   1.000  O
  O54      1.0000 0.53080  0.45610  0.40900  Biso   1.000  O
  O55      1.0000 0.53080  0.54390  0.90900  Biso   1.000  O
  O56      1.0000 0.46920  0.45610  0.90900  Biso   1.000  O
  O57      1.0000 0.07800  0.01720  0.49870  Biso   1.000  O
  O58      1.0000 0.92200  0.98280  0.49870  Biso   1.000  O
  O59      1.0000 0.92200  0.01720  0.99870  Biso   1.000  O
  O60      1.0000 0.07800  0.98280  0.99870  Biso   1.000  O
  O61      1.0000 0.57800  0.51720  0.49870  Biso   1.000  O
  O62      1.0000 0.42200  0.48280  0.49870  Biso   1.000  O
  O63      1.0000 0.42200  0.51720  0.99870  Biso   1.000  O
  O64      1.0000 0.57800  0.48280  0.99870  Biso   1.000  O
