data_image0
_cell_length_a       8.675
_cell_length_b       15.167
_cell_length_c       15.735
_cell_angle_alpha    90
_cell_angle_beta     92.768
_cell_angle_gamma    90

_symmetry_space_group_name_H-M    "P 1"
_symmetry_int_tables_number       1

loop_
  _symmetry_equiv_pos_as_xyz
  'x, y, z'

loop_
  _atom_site_label
  _atom_site_occupancy
  _atom_site_fract_x
  _atom_site_fract_y
  _atom_site_fract_z
  _atom_site_thermal_displace_type
  _atom_site_B_iso_or_equiv
  _atom_site_type_symbol
  Cu1      1.0000 0.00000  0.00000  0.00000  Biso   1.000  Cu
  Cu2      1.0000 0.00000  0.50000  0.50000  Biso   1.000  Cu
  Cu3      1.0000 0.74341  0.24638  0.10098  Biso   1.000  Cu
  Cu4      1.0000 0.25659  0.74638  0.39902  Biso   1.000  Cu
  Cu5      1.0000 0.25659  0.75362  0.89902  Biso   1.000  Cu
  Cu6      1.0000 0.74341  0.25362  0.60098  Biso   1.000  Cu
  Cu7      1.0000 0.00000  0.50000  0.00000  Biso   1.000  Cu
  Cu8      1.0000 0.00000  0.00000  0.50000  Biso   1.000  Cu
  C1       1.0000 0.24350  0.30560  0.88140  Biso   1.000  C
  C2       1.0000 0.75650  0.80560  0.61860  Biso   1.000  C
  C3       1.0000 0.75650  0.69440  0.11860  Biso   1.000  C
  C4       1.0000 0.24350  0.19440  0.38140  Biso   1.000  C
  H1       1.0000 0.32140  0.26350  0.88300  Biso   1.000  H
  H2       1.0000 0.67860  0.76350  0.61700  Biso   1.000  H
  H3       1.0000 0.67860  0.73650  0.11700  Biso   1.000  H
  H4       1.0000 0.32140  0.23650  0.38300  Biso   1.000  H
  C5       1.0000 0.16410  0.33590  0.81070  Biso   1.000  C
  C6       1.0000 0.83590  0.83590  0.68930  Biso   1.000  C
  C7       1.0000 0.83590  0.66410  0.18930  Biso   1.000  C
  C8       1.0000 0.16410  0.16410  0.31070  Biso   1.000  C
  H5       1.0000 0.17670  0.31880  0.75470  Biso   1.000  H
  H6       1.0000 0.82330  0.81880  0.74530  Biso   1.000  H
  H7       1.0000 0.82330  0.68120  0.24530  Biso   1.000  H
  H8       1.0000 0.17670  0.18120  0.25470  Biso   1.000  H
  C9       1.0000 0.06080  0.39740  0.83920  Biso   1.000  C
  C10      1.0000 0.93920  0.89740  0.66080  Biso   1.000  C
  C11      1.0000 0.93920  0.60260  0.16080  Biso   1.000  C
  C12      1.0000 0.06080  0.10260  0.33920  Biso   1.000  C
  H9       1.0000 0.99120  0.42910  0.80430  Biso   1.000  H
  H10      1.0000 0.00880  0.92910  0.69570  Biso   1.000  H
  H11      1.0000 0.00880  0.57090  0.19570  Biso   1.000  H
  H12      1.0000 0.99120  0.07090  0.30430  Biso   1.000  H
  C13      1.0000 0.23640  0.34290  0.03720  Biso   1.000  C
  C14      1.0000 0.76360  0.84290  0.46280  Biso   1.000  C
  C15      1.0000 0.76360  0.65710  0.96280  Biso   1.000  C
  C16      1.0000 0.23640  0.15710  0.53720  Biso   1.000  C
  H13      1.0000 0.31550  0.29810  0.04510  Biso   1.000  H
  H14      1.0000 0.68450  0.79810  0.45490  Biso   1.000  H
  H15      1.0000 0.68450  0.70190  0.95490  Biso   1.000  H
  H16      1.0000 0.31550  0.20190  0.54510  Biso   1.000  H
  H17      1.0000 0.14950  0.32630  0.07020  Biso   1.000  H
  H18      1.0000 0.85050  0.82630  0.42980  Biso   1.000  H
  H19      1.0000 0.85050  0.67370  0.92980  Biso   1.000  H
  H20      1.0000 0.14950  0.17370  0.57020  Biso   1.000  H
  C17      1.0000 0.44130  0.44790  0.09470  Biso   1.000  C
  C18      1.0000 0.55870  0.94790  0.40530  Biso   1.000  C
  C19      1.0000 0.55870  0.55210  0.90530  Biso   1.000  C
  C20      1.0000 0.44130  0.05210  0.59470  Biso   1.000  C
  H21      1.0000 0.52490  0.40970  0.10090  Biso   1.000  H
  H22      1.0000 0.47510  0.90970  0.39910  Biso   1.000  H
  H23      1.0000 0.47510  0.59030  0.89910  Biso   1.000  H
  H24      1.0000 0.52490  0.09030  0.60090  Biso   1.000  H
  C21      1.0000 0.44220  0.53550  0.11280  Biso   1.000  C
  C22      1.0000 0.55780  0.03550  0.38720  Biso   1.000  C
  C23      1.0000 0.55780  0.46450  0.88720  Biso   1.000  C
  C24      1.0000 0.44220  0.96450  0.61280  Biso   1.000  C
  H25      1.0000 0.52460  0.56910  0.13470  Biso   1.000  H
  H26      1.0000 0.47540  0.06910  0.36530  Biso   1.000  H
  H27      1.0000 0.47540  0.43090  0.86530  Biso   1.000  H
  H28      1.0000 0.52460  0.93090  0.63470  Biso   1.000  H
  C25      1.0000 0.29450  0.56430  0.09230  Biso   1.000  C
  C26      1.0000 0.70550  0.06430  0.40770  Biso   1.000  C
  C27      1.0000 0.70550  0.43570  0.90770  Biso   1.000  C
  C28      1.0000 0.29450  0.93570  0.59230  Biso   1.000  C
  H29      1.0000 0.26240  0.62250  0.09650  Biso   1.000  H
  H30      1.0000 0.73760  0.12250  0.40350  Biso   1.000  H
  H31      1.0000 0.73760  0.37750  0.90350  Biso   1.000  H
  H32      1.0000 0.26240  0.87750  0.59650  Biso   1.000  H
  C29      1.0000 0.30080  0.06049  0.08760  Biso   1.000  C
  C30      1.0000 0.69920  0.56049  0.41240  Biso   1.000  C
  C31      1.0000 0.69920  0.93951  0.91240  Biso   1.000  C
  C32      1.0000 0.30080  0.43951  0.58760  Biso   1.000  C
  H33      1.0000 0.31350  0.10920  0.05280  Biso   1.000  H
  H34      1.0000 0.68650  0.60920  0.44720  Biso   1.000  H
  H35      1.0000 0.68650  0.89080  0.94720  Biso   1.000  H
  H36      1.0000 0.31350  0.39080  0.55280  Biso   1.000  H
  C33      1.0000 0.38910  0.04330  0.16050  Biso   1.000  C
  C34      1.0000 0.61090  0.54330  0.33950  Biso   1.000  C
  C35      1.0000 0.61090  0.95670  0.83950  Biso   1.000  C
  C36      1.0000 0.38910  0.45670  0.66050  Biso   1.000  C
  H37      1.0000 0.47100  0.07640  0.18360  Biso   1.000  H
  H38      1.0000 0.52900  0.57640  0.31640  Biso   1.000  H
  H39      1.0000 0.52900  0.92360  0.81640  Biso   1.000  H
  H40      1.0000 0.47100  0.42360  0.68360  Biso   1.000  H
  C37      1.0000 0.33070  0.96680  0.19190  Biso   1.000  C
  C38      1.0000 0.66930  0.46680  0.30810  Biso   1.000  C
  C39      1.0000 0.66930  0.03320  0.80810  Biso   1.000  C
  C40      1.0000 0.33070  0.53320  0.69190  Biso   1.000  C
  H41      1.0000 0.36550  0.93780  0.24120  Biso   1.000  H
  H42      1.0000 0.63450  0.43780  0.25880  Biso   1.000  H
  H43      1.0000 0.63450  0.06220  0.75880  Biso   1.000  H
  H44      1.0000 0.36550  0.56220  0.74120  Biso   1.000  H
  C41      1.0000 0.11620  0.86552  0.14430  Biso   1.000  C
  C42      1.0000 0.88380  0.36552  0.35570  Biso   1.000  C
  C43      1.0000 0.88380  0.13448  0.85570  Biso   1.000  C
  C44      1.0000 0.11620  0.63448  0.64430  Biso   1.000  C
  H45      1.0000 0.15060  0.82910  0.19220  Biso   1.000  H
  H46      1.0000 0.84940  0.32910  0.30780  Biso   1.000  H
  H47      1.0000 0.84940  0.17090  0.80780  Biso   1.000  H
  H48      1.0000 0.15060  0.67090  0.69220  Biso   1.000  H
  H49      1.0000 0.12070  0.83050  0.09290  Biso   1.000  H
  H50      1.0000 0.87930  0.33050  0.40710  Biso   1.000  H
  H51      1.0000 0.87930  0.16950  0.90710  Biso   1.000  H
  H52      1.0000 0.12070  0.66950  0.59290  Biso   1.000  H
  C45      1.0000 0.86900  0.88210  0.22020  Biso   1.000  C
  C46      1.0000 0.13100  0.38210  0.27980  Biso   1.000  C
  C47      1.0000 0.13100  0.11790  0.77980  Biso   1.000  C
  C48      1.0000 0.86900  0.61790  0.72020  Biso   1.000  C
  H53      1.0000 0.89400  0.85040  0.26960  Biso   1.000  H
  H54      1.0000 0.10600  0.35040  0.23040  Biso   1.000  H
  H55      1.0000 0.10600  0.14960  0.73040  Biso   1.000  H
  H56      1.0000 0.89400  0.64960  0.76960  Biso   1.000  H
  C49      1.0000 0.73390  0.92430  0.20110  Biso   1.000  C
  C50      1.0000 0.26610  0.42430  0.29890  Biso   1.000  C
  C51      1.0000 0.26610  0.07570  0.79890  Biso   1.000  C
  C52      1.0000 0.73390  0.57570  0.70110  Biso   1.000  C
  H57      1.0000 0.64770  0.92650  0.23400  Biso   1.000  H
  H58      1.0000 0.35230  0.42650  0.26600  Biso   1.000  H
  H59      1.0000 0.35230  0.07350  0.76600  Biso   1.000  H
  H60      1.0000 0.64770  0.57350  0.73400  Biso   1.000  H
  C53      1.0000 0.74950  0.96370  0.12240  Biso   1.000  C
  C54      1.0000 0.25050  0.46370  0.37760  Biso   1.000  C
  C55      1.0000 0.25050  0.03630  0.87760  Biso   1.000  C
  C56      1.0000 0.74950  0.53630  0.62240  Biso   1.000  C
  H61      1.0000 0.67500  0.99810  0.09370  Biso   1.000  H
  H62      1.0000 0.32500  0.49810  0.40630  Biso   1.000  H
  H63      1.0000 0.32500  0.00190  0.90630  Biso   1.000  H
  H64      1.0000 0.67500  0.50190  0.59370  Biso   1.000  H
  N1       1.0000 0.07430  0.40495  0.92345  Biso   1.000  N
  N2       1.0000 0.92570  0.90495  0.57655  Biso   1.000  N
  N3       1.0000 0.92570  0.59505  0.07655  Biso   1.000  N
  N4       1.0000 0.07430  0.09505  0.42345  Biso   1.000  N
  N5       1.0000 0.18870  0.34813  0.94847  Biso   1.000  N
  N6       1.0000 0.81130  0.84813  0.55153  Biso   1.000  N
  N7       1.0000 0.81130  0.65187  0.05153  Biso   1.000  N
  N8       1.0000 0.18870  0.15187  0.44847  Biso   1.000  N
  N9       1.0000 0.20410  0.49836  0.06508  Biso   1.000  N
  N10      1.0000 0.79590  0.99836  0.43492  Biso   1.000  N
  N11      1.0000 0.79590  0.50164  0.93492  Biso   1.000  N
  N12      1.0000 0.20410  0.00164  0.56508  Biso   1.000  N
  N13      1.0000 0.29750  0.42665  0.06668  Biso   1.000  N
  N14      1.0000 0.70250  0.92665  0.43332  Biso   1.000  N
  N15      1.0000 0.70250  0.57335  0.93332  Biso   1.000  N
  N16      1.0000 0.29750  0.07335  0.56668  Biso   1.000  N
  N17      1.0000 0.21540  0.94104  0.13895  Biso   1.000  N
  N18      1.0000 0.78460  0.44104  0.36105  Biso   1.000  N
  N19      1.0000 0.78460  0.05896  0.86105  Biso   1.000  N
  N20      1.0000 0.21540  0.55896  0.63895  Biso   1.000  N
  N21      1.0000 0.19340  0.99811  0.07322  Biso   1.000  N
  N22      1.0000 0.80660  0.49811  0.42678  Biso   1.000  N
  N23      1.0000 0.80660  0.00189  0.92678  Biso   1.000  N
  N24      1.0000 0.19340  0.50189  0.57322  Biso   1.000  N
  N25      1.0000 0.95950  0.89451  0.15524  Biso   1.000  N
  N26      1.0000 0.04050  0.39451  0.34476  Biso   1.000  N
  N27      1.0000 0.04050  0.10549  0.84476  Biso   1.000  N
  N28      1.0000 0.95950  0.60549  0.65524  Biso   1.000  N
  N29      1.0000 0.88820  0.94536  0.09424  Biso   1.000  N
  N30      1.0000 0.11180  0.44536  0.40576  Biso   1.000  N
  N31      1.0000 0.11180  0.05464  0.90576  Biso   1.000  N
  N32      1.0000 0.88820  0.55464  0.59424  Biso   1.000  N
  Cl1      1.0000 0.58396  0.20105  0.99452  Biso   1.000  Cl
  Cl2      1.0000 0.41604  0.70105  0.50548  Biso   1.000  Cl
  Cl3      1.0000 0.41604  0.79895  0.00548  Biso   1.000  Cl
  Cl4      1.0000 0.58396  0.29895  0.49452  Biso   1.000  Cl
  Cl5      1.0000 0.58512  0.25127  0.20831  Biso   1.000  Cl
  Cl6      1.0000 0.41488  0.75127  0.29169  Biso   1.000  Cl
  Cl7      1.0000 0.41488  0.74873  0.79169  Biso   1.000  Cl
  Cl8      1.0000 0.58512  0.24873  0.70831  Biso   1.000  Cl
  Cl9      1.0000 0.85193  0.38356  0.11805  Biso   1.000  Cl
  Cl10     1.0000 0.14807  0.88356  0.38195  Biso   1.000  Cl
  Cl11     1.0000 0.14807  0.61644  0.88195  Biso   1.000  Cl
  Cl12     1.0000 0.85193  0.11644  0.61805  Biso   1.000  Cl
  Cl13     1.0000 0.96145  0.17326  0.07641  Biso   1.000  Cl
  Cl14     1.0000 0.03855  0.67326  0.42359  Biso   1.000  Cl
  Cl15     1.0000 0.03855  0.82674  0.92359  Biso   1.000  Cl
  Cl16     1.0000 0.96145  0.32674  0.57641  Biso   1.000  Cl
