data_image0
_cell_length_a       7.783
_cell_length_b       10.951
_cell_length_c       18.722
_cell_angle_alpha    90
_cell_angle_beta     90
_cell_angle_gamma    90

_symmetry_space_group_name_H-M    "P 1"
_symmetry_int_tables_number       1

loop_
  _symmetry_equiv_pos_as_xyz
  'x, y, z'

loop_
  _atom_site_label
  _atom_site_occupancy
  _atom_site_fract_x
  _atom_site_fract_y
  _atom_site_fract_z
  _atom_site_thermal_displace_type
  _atom_site_B_iso_or_equiv
  _atom_site_type_symbol
  Cu1      1.0000 0.23036  0.76880  0.40931  Biso   1.000  Cu
  Cu2      1.0000 0.26964  0.73120  0.90931  Biso   1.000  Cu
  Cu3      1.0000 0.76964  0.76880  0.09069  Biso   1.000  Cu
  Cu4      1.0000 0.73036  0.73120  0.59069  Biso   1.000  Cu
  Cu5      1.0000 0.76964  0.23120  0.59069  Biso   1.000  Cu
  Cu6      1.0000 0.73036  0.26880  0.09069  Biso   1.000  Cu
  Cu7      1.0000 0.23036  0.23120  0.90931  Biso   1.000  Cu
  Cu8      1.0000 0.26964  0.26880  0.40931  Biso   1.000  Cu
  C1       1.0000 0.42510  0.62660  0.53083  Biso   1.000  C
  C2       1.0000 0.07490  0.87340  0.03083  Biso   1.000  C
  C3       1.0000 0.57490  0.62660  0.96917  Biso   1.000  C
  C4       1.0000 0.92510  0.87340  0.46917  Biso   1.000  C
  C5       1.0000 0.57490  0.37340  0.46917  Biso   1.000  C
  C6       1.0000 0.92510  0.12660  0.96917  Biso   1.000  C
  C7       1.0000 0.42510  0.37340  0.03083  Biso   1.000  C
  C8       1.0000 0.07490  0.12660  0.53083  Biso   1.000  C
  C9       1.0000 0.40100  0.57570  0.60551  Biso   1.000  C
  C10      1.0000 0.09900  0.92430  0.10551  Biso   1.000  C
  C11      1.0000 0.59900  0.57570  0.89449  Biso   1.000  C
  C12      1.0000 0.90100  0.92430  0.39449  Biso   1.000  C
  C13      1.0000 0.59900  0.42430  0.39449  Biso   1.000  C
  C14      1.0000 0.90100  0.07570  0.89449  Biso   1.000  C
  C15      1.0000 0.40100  0.42430  0.10551  Biso   1.000  C
  C16      1.0000 0.09900  0.07570  0.60551  Biso   1.000  C
  H1       1.0000 0.33300  0.50060  0.60870  Biso   1.000  H
  H2       1.0000 0.16700  0.99940  0.10870  Biso   1.000  H
  H3       1.0000 0.66700  0.50060  0.89130  Biso   1.000  H
  H4       1.0000 0.83300  0.99940  0.39130  Biso   1.000  H
  H5       1.0000 0.66700  0.49940  0.39130  Biso   1.000  H
  H6       1.0000 0.83300  0.00060  0.89130  Biso   1.000  H
  H7       1.0000 0.33300  0.49940  0.10870  Biso   1.000  H
  H8       1.0000 0.16700  0.00060  0.60870  Biso   1.000  H
  C17      1.0000 0.41120  0.79340  0.66179  Biso   1.000  C
  C18      1.0000 0.08880  0.70660  0.16179  Biso   1.000  C
  C19      1.0000 0.58880  0.79340  0.83821  Biso   1.000  C
  C20      1.0000 0.91120  0.70660  0.33821  Biso   1.000  C
  C21      1.0000 0.58880  0.20660  0.33821  Biso   1.000  C
  C22      1.0000 0.91120  0.29340  0.83821  Biso   1.000  C
  C23      1.0000 0.41120  0.20660  0.16179  Biso   1.000  C
  C24      1.0000 0.08880  0.29340  0.66179  Biso   1.000  C
  C25      1.0000 0.39390  0.65550  0.66864  Biso   1.000  C
  C26      1.0000 0.10610  0.84450  0.16864  Biso   1.000  C
  C27      1.0000 0.60610  0.65550  0.83136  Biso   1.000  C
  C28      1.0000 0.89390  0.84450  0.33136  Biso   1.000  C
  C29      1.0000 0.60610  0.34450  0.33136  Biso   1.000  C
  C30      1.0000 0.89390  0.15550  0.83136  Biso   1.000  C
  C31      1.0000 0.39390  0.34450  0.16864  Biso   1.000  C
  C32      1.0000 0.10610  0.15550  0.66864  Biso   1.000  C
  H9       1.0000 0.32160  0.62660  0.70800  Biso   1.000  H
  H10      1.0000 0.17840  0.87340  0.20800  Biso   1.000  H
  H11      1.0000 0.67840  0.62660  0.79200  Biso   1.000  H
  H12      1.0000 0.82160  0.87340  0.29200  Biso   1.000  H
  H13      1.0000 0.67840  0.37340  0.29200  Biso   1.000  H
  H14      1.0000 0.82160  0.12660  0.79200  Biso   1.000  H
  H15      1.0000 0.32160  0.37340  0.20800  Biso   1.000  H
  H16      1.0000 0.17840  0.12660  0.70800  Biso   1.000  H
  O1       1.0000 0.29970  0.61450  0.49036  Biso   1.000  O
  O2       1.0000 0.20030  0.88550  0.99036  Biso   1.000  O
  O3       1.0000 0.70030  0.61450  0.00964  Biso   1.000  O
  O4       1.0000 0.79970  0.88550  0.50964  Biso   1.000  O
  O5       1.0000 0.70030  0.38550  0.50964  Biso   1.000  O
  O6       1.0000 0.79970  0.11450  0.00964  Biso   1.000  O
  O7       1.0000 0.29970  0.38550  0.99036  Biso   1.000  O
  O8       1.0000 0.20030  0.11450  0.49036  Biso   1.000  O
  O9       1.0000 0.56600  0.67750  0.51494  Biso   1.000  O
  O10      1.0000 0.93400  0.82250  0.01494  Biso   1.000  O
  O11      1.0000 0.43400  0.67750  0.98506  Biso   1.000  O
  O12      1.0000 0.06600  0.82250  0.48506  Biso   1.000  O
  O13      1.0000 0.43400  0.32250  0.48506  Biso   1.000  O
  O14      1.0000 0.06600  0.17750  0.98506  Biso   1.000  O
  O15      1.0000 0.56600  0.32250  0.01494  Biso   1.000  O
  O16      1.0000 0.93400  0.17750  0.51494  Biso   1.000  O
  O17      1.0000 0.54090  0.83630  0.62988  Biso   1.000  O
  O18      1.0000 0.95910  0.66370  0.12988  Biso   1.000  O
  O19      1.0000 0.45910  0.83630  0.87012  Biso   1.000  O
  O20      1.0000 0.04090  0.66370  0.37012  Biso   1.000  O
  O21      1.0000 0.45910  0.16370  0.37012  Biso   1.000  O
  O22      1.0000 0.04090  0.33630  0.87012  Biso   1.000  O
  O23      1.0000 0.54090  0.16370  0.12988  Biso   1.000  O
  O24      1.0000 0.95910  0.33630  0.62988  Biso   1.000  O
  O25      1.0000 0.29370  0.85470  0.68883  Biso   1.000  O
  O26      1.0000 0.20630  0.64530  0.18883  Biso   1.000  O
  O27      1.0000 0.70630  0.85470  0.81117  Biso   1.000  O
  O28      1.0000 0.79370  0.64530  0.31117  Biso   1.000  O
  O29      1.0000 0.70630  0.14530  0.31117  Biso   1.000  O
  O30      1.0000 0.79370  0.35470  0.81117  Biso   1.000  O
  O31      1.0000 0.29370  0.14530  0.18883  Biso   1.000  O
  O32      1.0000 0.20630  0.35470  0.68883  Biso   1.000  O
  O33      1.0000 0.54450  0.58350  0.65394  Biso   1.000  O
  O34      1.0000 0.95550  0.91650  0.15394  Biso   1.000  O
  O35      1.0000 0.45550  0.58350  0.84606  Biso   1.000  O
  O36      1.0000 0.04450  0.91650  0.34606  Biso   1.000  O
  O37      1.0000 0.45550  0.41650  0.34606  Biso   1.000  O
  O38      1.0000 0.04450  0.08350  0.84606  Biso   1.000  O
  O39      1.0000 0.54450  0.41650  0.15394  Biso   1.000  O
  O40      1.0000 0.95550  0.08350  0.65394  Biso   1.000  O
  O41      1.0000 0.39910  0.89610  0.44026  Biso   1.000  O
  O42      1.0000 0.10090  0.60390  0.94026  Biso   1.000  O
  O43      1.0000 0.60090  0.89610  0.05974  Biso   1.000  O
  O44      1.0000 0.89910  0.60390  0.55974  Biso   1.000  O
  O45      1.0000 0.60090  0.10390  0.55974  Biso   1.000  O
  O46      1.0000 0.89910  0.39610  0.05974  Biso   1.000  O
  O47      1.0000 0.39910  0.10390  0.94026  Biso   1.000  O
  O48      1.0000 0.10090  0.39610  0.44026  Biso   1.000  O
  H17      1.0000 0.46740  0.88170  0.47470  Biso   1.000  H
  H18      1.0000 0.03260  0.61830  0.97470  Biso   1.000  H
  H19      1.0000 0.53260  0.88170  0.02530  Biso   1.000  H
  H20      1.0000 0.96740  0.61830  0.52530  Biso   1.000  H
  H21      1.0000 0.53260  0.11830  0.52530  Biso   1.000  H
  H22      1.0000 0.96740  0.38170  0.02530  Biso   1.000  H
  H23      1.0000 0.46740  0.11830  0.97470  Biso   1.000  H
  H24      1.0000 0.03260  0.38170  0.47470  Biso   1.000  H
  H25      1.0000 0.40250  0.96470  0.41900  Biso   1.000  H
  H26      1.0000 0.09750  0.53530  0.91900  Biso   1.000  H
  H27      1.0000 0.59750  0.96470  0.08100  Biso   1.000  H
  H28      1.0000 0.90250  0.53530  0.58100  Biso   1.000  H
  H29      1.0000 0.59750  0.03530  0.58100  Biso   1.000  H
  H30      1.0000 0.90250  0.46470  0.08100  Biso   1.000  H
  H31      1.0000 0.40250  0.03530  0.91900  Biso   1.000  H
  H32      1.0000 0.09750  0.46470  0.41900  Biso   1.000  H
  O49      1.0000 0.38400  0.70690  0.33198  Biso   1.000  O
  O50      1.0000 0.11600  0.79310  0.83198  Biso   1.000  O
  O51      1.0000 0.61600  0.70690  0.16802  Biso   1.000  O
  O52      1.0000 0.88400  0.79310  0.66802  Biso   1.000  O
  O53      1.0000 0.61600  0.29310  0.66802  Biso   1.000  O
  O54      1.0000 0.88400  0.20690  0.16802  Biso   1.000  O
  O55      1.0000 0.38400  0.29310  0.83198  Biso   1.000  O
  O56      1.0000 0.11600  0.20690  0.33198  Biso   1.000  O
  H33      1.0000 0.44370  0.64290  0.33860  Biso   1.000  H
  H34      1.0000 0.05630  0.85710  0.83860  Biso   1.000  H
  H35      1.0000 0.55630  0.64290  0.16140  Biso   1.000  H
  H36      1.0000 0.94370  0.85710  0.66140  Biso   1.000  H
  H37      1.0000 0.55630  0.35710  0.66140  Biso   1.000  H
  H38      1.0000 0.94370  0.14290  0.16140  Biso   1.000  H
  H39      1.0000 0.44370  0.35710  0.83860  Biso   1.000  H
  H40      1.0000 0.05630  0.14290  0.33860  Biso   1.000  H
  H41      1.0000 0.38980  0.74460  0.29240  Biso   1.000  H
  H42      1.0000 0.11020  0.75540  0.79240  Biso   1.000  H
  H43      1.0000 0.61020  0.74460  0.20760  Biso   1.000  H
  H44      1.0000 0.88980  0.75540  0.70760  Biso   1.000  H
  H45      1.0000 0.61020  0.25540  0.70760  Biso   1.000  H
  H46      1.0000 0.88980  0.24460  0.20760  Biso   1.000  H
  H47      1.0000 0.38980  0.25540  0.79240  Biso   1.000  H
  H48      1.0000 0.11020  0.24460  0.29240  Biso   1.000  H
  O57      1.0000 0.00000  0.44460  0.25000  Biso   1.000  O
  O58      1.0000 0.50000  0.05540  0.75000  Biso   1.000  O
  O59      1.0000 0.00000  0.55540  0.75000  Biso   1.000  O
  O60      1.0000 0.50000  0.94460  0.25000  Biso   1.000  O
  H49      1.0000 0.06450  0.49430  0.22770  Biso   1.000  H
  H50      1.0000 0.43550  0.00570  0.72770  Biso   1.000  H
  H51      1.0000 0.93550  0.49430  0.27230  Biso   1.000  H
  H52      1.0000 0.56450  0.00570  0.77230  Biso   1.000  H
  H53      1.0000 0.93550  0.50570  0.77230  Biso   1.000  H
  H54      1.0000 0.56450  0.99430  0.27230  Biso   1.000  H
  H55      1.0000 0.06450  0.50570  0.72770  Biso   1.000  H
  H56      1.0000 0.43550  0.99430  0.22770  Biso   1.000  H
