data_image0
_cell_length_a       3.5938
_cell_length_b       9.659
_cell_length_c       10.934
_cell_angle_alpha    111.01
_cell_angle_beta     93.3
_cell_angle_gamma    95.59

_symmetry_space_group_name_H-M    "P 1"
_symmetry_int_tables_number       1

loop_
  _symmetry_equiv_pos_as_xyz
  'x, y, z'

loop_
  _atom_site_label
  _atom_site_occupancy
  _atom_site_fract_x
  _atom_site_fract_y
  _atom_site_fract_z
  _atom_site_thermal_displace_type
  _atom_site_B_iso_or_equiv
  _atom_site_type_symbol
  Cu1      1.0000 0.27889  0.43725  0.31624  Biso   1.000  Cu
  Cu2      1.0000 0.72111  0.56275  0.68376  Biso   1.000  Cu
  O1       1.0000 0.25090  0.23830  0.17570  Biso   1.000  O
  O2       1.0000 0.74910  0.76170  0.82430  Biso   1.000  O
  O3       1.0000 0.37930  0.00630  0.13710  Biso   1.000  O
  O4       1.0000 0.62070  0.99370  0.86290  Biso   1.000  O
  C1       1.0000 0.39410  0.13760  0.21000  Biso   1.000  C
  C2       1.0000 0.60590  0.86240  0.79000  Biso   1.000  C
  C3       1.0000 0.57130  0.19450  0.34820  Biso   1.000  C
  C4       1.0000 0.42870  0.80550  0.65180  Biso   1.000  C
  N1       1.0000 0.55470  0.34010  0.40950  Biso   1.000  N
  N2       1.0000 0.44530  0.65990  0.59050  Biso   1.000  N
  N3       1.0000 0.69690  0.38150  0.53460  Biso   1.000  N
  N4       1.0000 0.30310  0.61850  0.46540  Biso   1.000  N
  C5       1.0000 0.73770  0.13730  0.43610  Biso   1.000  C
  C6       1.0000 0.26230  0.86270  0.56390  Biso   1.000  C
  H1       1.0000 0.78100  0.03000  0.42000  Biso   1.000  H
  H2       1.0000 0.21900  0.97000  0.58000  Biso   1.000  H
  C7       1.0000 0.81250  0.26250  0.55350  Biso   1.000  C
  C8       1.0000 0.18750  0.73750  0.44650  Biso   1.000  C
  C9       1.0000 0.97880  0.29970  0.69190  Biso   1.000  C
  C10      1.0000 0.02120  0.70030  0.30810  Biso   1.000  C
  O5       1.0000 0.97260  0.44120  0.76760  Biso   1.000  O
  O6       1.0000 0.02740  0.55880  0.23240  Biso   1.000  O
  O7       1.0000 0.11010  0.20920  0.72910  Biso   1.000  O
  O8       1.0000 0.88990  0.79080  0.27090  Biso   1.000  O
  Na1      1.0000 0.17400  0.16807  0.93724  Biso   1.000  Na
  Na2      1.0000 0.82600  0.83193  0.06276  Biso   1.000  Na
  O9       1.0000 0.70710  0.34750  0.98580  Biso   1.000  O
  O10      1.0000 0.29290  0.65250  0.01420  Biso   1.000  O
  H3       1.0000 0.76500  0.40100  0.04600  Biso   1.000  H
  H4       1.0000 0.23500  0.59900  0.95400  Biso   1.000  H
  H5       1.0000 0.72400  0.36300  0.93400  Biso   1.000  H
  H6       1.0000 0.27600  0.63700  0.06600  Biso   1.000  H
