data_image0
_cell_length_a       22.962
_cell_length_b       8.3693
_cell_length_c       21.005
_cell_angle_alpha    90
_cell_angle_beta     103.7
_cell_angle_gamma    90

_symmetry_space_group_name_H-M    "P 1"
_symmetry_int_tables_number       1

loop_
  _symmetry_equiv_pos_as_xyz
  'x, y, z'

loop_
  _atom_site_label
  _atom_site_occupancy
  _atom_site_fract_x
  _atom_site_fract_y
  _atom_site_fract_z
  _atom_site_thermal_displace_type
  _atom_site_B_iso_or_equiv
  _atom_site_type_symbol
  Cu1      1.0000 0.00000  0.19540  0.75000  Biso   1.000  Cu
  Cu2      1.0000 0.50000  0.69540  0.75000  Biso   1.000  Cu
  Cu3      1.0000 0.00000  0.80460  0.25000  Biso   1.000  Cu
  Cu4      1.0000 0.50000  0.30460  0.25000  Biso   1.000  Cu
  O1       1.0000 0.00000  0.93130  0.75000  Biso   1.000  O
  O2       1.0000 0.50000  0.43130  0.75000  Biso   1.000  O
  O3       1.0000 0.00000  0.06870  0.25000  Biso   1.000  O
  O4       1.0000 0.50000  0.56870  0.25000  Biso   1.000  O
  N1       1.0000 0.09034  0.20601  0.79435  Biso   1.000  N
  N2       1.0000 0.59034  0.70601  0.79435  Biso   1.000  N
  N3       1.0000 0.09034  0.79399  0.29435  Biso   1.000  N
  N4       1.0000 0.59034  0.29399  0.29435  Biso   1.000  N
  N5       1.0000 0.90966  0.79399  0.20565  Biso   1.000  N
  N6       1.0000 0.40966  0.29399  0.20565  Biso   1.000  N
  N7       1.0000 0.90966  0.20601  0.70565  Biso   1.000  N
  N8       1.0000 0.40966  0.70601  0.70565  Biso   1.000  N
  N9       1.0000 0.19049  0.04360  0.94174  Biso   1.000  N
  N10      1.0000 0.69049  0.54360  0.94174  Biso   1.000  N
  N11      1.0000 0.19049  0.95640  0.44174  Biso   1.000  N
  N12      1.0000 0.69049  0.45640  0.44174  Biso   1.000  N
  N13      1.0000 0.80951  0.95640  0.05826  Biso   1.000  N
  N14      1.0000 0.30951  0.45640  0.05826  Biso   1.000  N
  N15      1.0000 0.80951  0.04360  0.55826  Biso   1.000  N
  N16      1.0000 0.30951  0.54360  0.55826  Biso   1.000  N
  N17      1.0000 0.24547  0.05540  0.96775  Biso   1.000  N
  N18      1.0000 0.74547  0.55540  0.96775  Biso   1.000  N
  N19      1.0000 0.24547  0.94460  0.46775  Biso   1.000  N
  N20      1.0000 0.74547  0.44460  0.46775  Biso   1.000  N
  N21      1.0000 0.75453  0.94460  0.03225  Biso   1.000  N
  N22      1.0000 0.25453  0.44460  0.03225  Biso   1.000  N
  N23      1.0000 0.75453  0.05540  0.53225  Biso   1.000  N
  N24      1.0000 0.25453  0.55540  0.53225  Biso   1.000  N
  N25      1.0000 0.35155  0.87200  0.10458  Biso   1.000  N
  N26      1.0000 0.85155  0.37200  0.10458  Biso   1.000  N
  N27      1.0000 0.35155  0.12800  0.60458  Biso   1.000  N
  N28      1.0000 0.85155  0.62800  0.60458  Biso   1.000  N
  N29      1.0000 0.64845  0.12800  0.89542  Biso   1.000  N
  N30      1.0000 0.14845  0.62800  0.89542  Biso   1.000  N
  N31      1.0000 0.64845  0.87200  0.39542  Biso   1.000  N
  N32      1.0000 0.14845  0.37200  0.39542  Biso   1.000  N
  N33      1.0000 0.98144  0.20626  0.84003  Biso   1.000  N
  N34      1.0000 0.48144  0.70626  0.84003  Biso   1.000  N
  N35      1.0000 0.98144  0.79374  0.34003  Biso   1.000  N
  N36      1.0000 0.48144  0.29374  0.34003  Biso   1.000  N
  N37      1.0000 0.01856  0.79374  0.15997  Biso   1.000  N
  N38      1.0000 0.51856  0.29374  0.15997  Biso   1.000  N
  N39      1.0000 0.01856  0.20626  0.65997  Biso   1.000  N
  N40      1.0000 0.51856  0.70626  0.65997  Biso   1.000  N
  N41      1.0000 0.01144  0.48597  0.97643  Biso   1.000  N
  N42      1.0000 0.51144  0.98597  0.97643  Biso   1.000  N
  N43      1.0000 0.01144  0.51403  0.47643  Biso   1.000  N
  N44      1.0000 0.51144  0.01403  0.47643  Biso   1.000  N
  N45      1.0000 0.98856  0.51403  0.02357  Biso   1.000  N
  N46      1.0000 0.48856  0.01403  0.02357  Biso   1.000  N
  N47      1.0000 0.98856  0.48597  0.52357  Biso   1.000  N
  N48      1.0000 0.48856  0.98597  0.52357  Biso   1.000  N
  C1       1.0000 0.17346  0.13380  0.88221  Biso   1.000  C
  C2       1.0000 0.67346  0.63380  0.88221  Biso   1.000  C
  C3       1.0000 0.17346  0.86620  0.38221  Biso   1.000  C
  C4       1.0000 0.67346  0.36620  0.38221  Biso   1.000  C
  C5       1.0000 0.82654  0.86620  0.11779  Biso   1.000  C
  C6       1.0000 0.32654  0.36620  0.11779  Biso   1.000  C
  C7       1.0000 0.82654  0.13380  0.61779  Biso   1.000  C
  C8       1.0000 0.32654  0.63380  0.61779  Biso   1.000  C
  C9       1.0000 0.11301  0.12480  0.84985  Biso   1.000  C
  C10      1.0000 0.61301  0.62480  0.84985  Biso   1.000  C
  C11      1.0000 0.11301  0.87520  0.34985  Biso   1.000  C
  C12      1.0000 0.61301  0.37520  0.34985  Biso   1.000  C
  C13      1.0000 0.88699  0.87520  0.15015  Biso   1.000  C
  C14      1.0000 0.38699  0.37520  0.15015  Biso   1.000  C
  C15      1.0000 0.88699  0.12480  0.65015  Biso   1.000  C
  C16      1.0000 0.38699  0.62480  0.65015  Biso   1.000  C
  H1       1.0000 0.08760  0.06050  0.86730  Biso   1.000  H
  H2       1.0000 0.58760  0.56050  0.86730  Biso   1.000  H
  H3       1.0000 0.08760  0.93950  0.36730  Biso   1.000  H
  H4       1.0000 0.58760  0.43950  0.36730  Biso   1.000  H
  H5       1.0000 0.91240  0.93950  0.13270  Biso   1.000  H
  H6       1.0000 0.41240  0.43950  0.13270  Biso   1.000  H
  H7       1.0000 0.91240  0.06050  0.63270  Biso   1.000  H
  H8       1.0000 0.41240  0.56050  0.63270  Biso   1.000  H
  C17      1.0000 0.12782  0.29770  0.76965  Biso   1.000  C
  C18      1.0000 0.62782  0.79770  0.76965  Biso   1.000  C
  C19      1.0000 0.12782  0.70230  0.26965  Biso   1.000  C
  C20      1.0000 0.62782  0.20230  0.26965  Biso   1.000  C
  C21      1.0000 0.87218  0.70230  0.23035  Biso   1.000  C
  C22      1.0000 0.37218  0.20230  0.23035  Biso   1.000  C
  C23      1.0000 0.87218  0.29770  0.73035  Biso   1.000  C
  C24      1.0000 0.37218  0.79770  0.73035  Biso   1.000  C
  H9       1.0000 0.11220  0.35560  0.73160  Biso   1.000  H
  H10      1.0000 0.61220  0.85560  0.73160  Biso   1.000  H
  H11      1.0000 0.11220  0.64440  0.23160  Biso   1.000  H
  H12      1.0000 0.61220  0.14440  0.23160  Biso   1.000  H
  H13      1.0000 0.88780  0.64440  0.26840  Biso   1.000  H
  H14      1.0000 0.38780  0.14440  0.26840  Biso   1.000  H
  H15      1.0000 0.88780  0.35560  0.76840  Biso   1.000  H
  H16      1.0000 0.38780  0.85560  0.76840  Biso   1.000  H
  C25      1.0000 0.18859  0.30980  0.79824  Biso   1.000  C
  C26      1.0000 0.68859  0.80980  0.79824  Biso   1.000  C
  C27      1.0000 0.18859  0.69020  0.29824  Biso   1.000  C
  C28      1.0000 0.68859  0.19020  0.29824  Biso   1.000  C
  C29      1.0000 0.81141  0.69020  0.20176  Biso   1.000  C
  C30      1.0000 0.31141  0.19020  0.20176  Biso   1.000  C
  C31      1.0000 0.81141  0.30980  0.70176  Biso   1.000  C
  C32      1.0000 0.31141  0.80980  0.70176  Biso   1.000  C
  H17      1.0000 0.21330  0.37210  0.77910  Biso   1.000  H
  H18      1.0000 0.71330  0.87210  0.77910  Biso   1.000  H
  H19      1.0000 0.21330  0.62790  0.27910  Biso   1.000  H
  H20      1.0000 0.71330  0.12790  0.27910  Biso   1.000  H
  H21      1.0000 0.78670  0.62790  0.22090  Biso   1.000  H
  H22      1.0000 0.28670  0.12790  0.22090  Biso   1.000  H
  H23      1.0000 0.78670  0.37210  0.72090  Biso   1.000  H
  H24      1.0000 0.28670  0.87210  0.72090  Biso   1.000  H
  C33      1.0000 0.21191  0.22740  0.85600  Biso   1.000  C
  C34      1.0000 0.71191  0.72740  0.85600  Biso   1.000  C
  C35      1.0000 0.21191  0.77260  0.35600  Biso   1.000  C
  C36      1.0000 0.71191  0.27260  0.35600  Biso   1.000  C
  C37      1.0000 0.78809  0.77260  0.14400  Biso   1.000  C
  C38      1.0000 0.28809  0.27260  0.14400  Biso   1.000  C
  C39      1.0000 0.78809  0.22740  0.64400  Biso   1.000  C
  C40      1.0000 0.28809  0.72740  0.64400  Biso   1.000  C
  H25      1.0000 0.25240  0.23480  0.87670  Biso   1.000  H
  H26      1.0000 0.75240  0.73480  0.87670  Biso   1.000  H
  H27      1.0000 0.25240  0.76520  0.37670  Biso   1.000  H
  H28      1.0000 0.75240  0.26520  0.37670  Biso   1.000  H
  H29      1.0000 0.74760  0.76520  0.12330  Biso   1.000  H
  H30      1.0000 0.24760  0.26520  0.12330  Biso   1.000  H
  H31      1.0000 0.74760  0.23480  0.62330  Biso   1.000  H
  H32      1.0000 0.24760  0.73480  0.62330  Biso   1.000  H
  C41      1.0000 0.26424  0.96640  0.02700  Biso   1.000  C
  C42      1.0000 0.76424  0.46640  0.02700  Biso   1.000  C
  C43      1.0000 0.26424  0.03360  0.52700  Biso   1.000  C
  C44      1.0000 0.76424  0.53360  0.52700  Biso   1.000  C
  C45      1.0000 0.73576  0.03360  0.97300  Biso   1.000  C
  C46      1.0000 0.23576  0.53360  0.97300  Biso   1.000  C
  C47      1.0000 0.73576  0.96640  0.47300  Biso   1.000  C
  C48      1.0000 0.23576  0.46640  0.47300  Biso   1.000  C
  C49      1.0000 0.32631  0.95110  0.04984  Biso   1.000  C
  C50      1.0000 0.82631  0.45110  0.04984  Biso   1.000  C
  C51      1.0000 0.32631  0.04890  0.54984  Biso   1.000  C
  C52      1.0000 0.82631  0.54890  0.54984  Biso   1.000  C
  C53      1.0000 0.67369  0.04890  0.95016  Biso   1.000  C
  C54      1.0000 0.17369  0.54890  0.95016  Biso   1.000  C
  C55      1.0000 0.67369  0.95110  0.45016  Biso   1.000  C
  C56      1.0000 0.17369  0.45110  0.45016  Biso   1.000  C
  H33      1.0000 0.35100  0.99790  0.02590  Biso   1.000  H
  H34      1.0000 0.85100  0.49790  0.02590  Biso   1.000  H
  H35      1.0000 0.35100  0.00210  0.52590  Biso   1.000  H
  H36      1.0000 0.85100  0.50210  0.52590  Biso   1.000  H
  H37      1.0000 0.64900  0.00210  0.97410  Biso   1.000  H
  H38      1.0000 0.14900  0.50210  0.97410  Biso   1.000  H
  H39      1.0000 0.64900  0.99790  0.47410  Biso   1.000  H
  H40      1.0000 0.14900  0.49790  0.47410  Biso   1.000  H
  C57      1.0000 0.31532  0.80580  0.13845  Biso   1.000  C
  C58      1.0000 0.81532  0.30580  0.13845  Biso   1.000  C
  C59      1.0000 0.31532  0.19420  0.63845  Biso   1.000  C
  C60      1.0000 0.81532  0.69420  0.63845  Biso   1.000  C
  C61      1.0000 0.68468  0.19420  0.86155  Biso   1.000  C
  C62      1.0000 0.18468  0.69420  0.86155  Biso   1.000  C
  C63      1.0000 0.68468  0.80580  0.36155  Biso   1.000  C
  C64      1.0000 0.18468  0.30580  0.36155  Biso   1.000  C
  H41      1.0000 0.33250  0.75120  0.17690  Biso   1.000  H
  H42      1.0000 0.83250  0.25120  0.17690  Biso   1.000  H
  H43      1.0000 0.33250  0.24880  0.67690  Biso   1.000  H
  H44      1.0000 0.83250  0.74880  0.67690  Biso   1.000  H
  H45      1.0000 0.66750  0.24880  0.82310  Biso   1.000  H
  H46      1.0000 0.16750  0.74880  0.82310  Biso   1.000  H
  H47      1.0000 0.66750  0.75120  0.32310  Biso   1.000  H
  H48      1.0000 0.16750  0.25120  0.32310  Biso   1.000  H
  C65      1.0000 0.25295  0.81450  0.11895  Biso   1.000  C
  C66      1.0000 0.75295  0.31450  0.11895  Biso   1.000  C
  C67      1.0000 0.25295  0.18550  0.61895  Biso   1.000  C
  C68      1.0000 0.75295  0.68550  0.61895  Biso   1.000  C
  C69      1.0000 0.74705  0.18550  0.88105  Biso   1.000  C
  C70      1.0000 0.24705  0.68550  0.88105  Biso   1.000  C
  C71      1.0000 0.74705  0.81450  0.38105  Biso   1.000  C
  C72      1.0000 0.24705  0.31450  0.38105  Biso   1.000  C
  H49      1.0000 0.22930  0.76620  0.14370  Biso   1.000  H
  H50      1.0000 0.72930  0.26620  0.14370  Biso   1.000  H
  H51      1.0000 0.22930  0.23380  0.64370  Biso   1.000  H
  H52      1.0000 0.72930  0.73380  0.64370  Biso   1.000  H
  H53      1.0000 0.77070  0.23380  0.85630  Biso   1.000  H
  H54      1.0000 0.27070  0.73380  0.85630  Biso   1.000  H
  H55      1.0000 0.77070  0.76620  0.35630  Biso   1.000  H
  H56      1.0000 0.27070  0.26620  0.35630  Biso   1.000  H
  C73      1.0000 0.22702  0.89620  0.06211  Biso   1.000  C
  C74      1.0000 0.72702  0.39620  0.06211  Biso   1.000  C
  C75      1.0000 0.22702  0.10380  0.56211  Biso   1.000  C
  C76      1.0000 0.72702  0.60380  0.56211  Biso   1.000  C
  C77      1.0000 0.77298  0.10380  0.93789  Biso   1.000  C
  C78      1.0000 0.27298  0.60380  0.93789  Biso   1.000  C
  C79      1.0000 0.77298  0.89620  0.43789  Biso   1.000  C
  C80      1.0000 0.27298  0.39620  0.43789  Biso   1.000  C
  H57      1.0000 0.18560  0.90380  0.04780  Biso   1.000  H
  H58      1.0000 0.68560  0.40380  0.04780  Biso   1.000  H
  H59      1.0000 0.18560  0.09620  0.54780  Biso   1.000  H
  H60      1.0000 0.68560  0.59620  0.54780  Biso   1.000  H
  H61      1.0000 0.81440  0.09620  0.95220  Biso   1.000  H
  H62      1.0000 0.31440  0.59620  0.95220  Biso   1.000  H
  H63      1.0000 0.81440  0.90380  0.45220  Biso   1.000  H
  H64      1.0000 0.31440  0.40380  0.45220  Biso   1.000  H
  C81      1.0000 0.94883  0.09250  0.86060  Biso   1.000  C
  C82      1.0000 0.44883  0.59250  0.86060  Biso   1.000  C
  C83      1.0000 0.94883  0.90750  0.36060  Biso   1.000  C
  C84      1.0000 0.44883  0.40750  0.36060  Biso   1.000  C
  C85      1.0000 0.05117  0.90750  0.13940  Biso   1.000  C
  C86      1.0000 0.55117  0.40750  0.13940  Biso   1.000  C
  C87      1.0000 0.05117  0.09250  0.63940  Biso   1.000  C
  C88      1.0000 0.55117  0.59250  0.63940  Biso   1.000  C
  H65      1.0000 0.93440  0.00750  0.83280  Biso   1.000  H
  H66      1.0000 0.43440  0.50750  0.83280  Biso   1.000  H
  H67      1.0000 0.93440  0.99250  0.33280  Biso   1.000  H
  H68      1.0000 0.43440  0.49250  0.33280  Biso   1.000  H
  H69      1.0000 0.06560  0.99250  0.16720  Biso   1.000  H
  H70      1.0000 0.56560  0.49250  0.16720  Biso   1.000  H
  H71      1.0000 0.06560  0.00750  0.66720  Biso   1.000  H
  H72      1.0000 0.56560  0.50750  0.66720  Biso   1.000  H
  C89      1.0000 0.93586  0.09740  0.92211  Biso   1.000  C
  C90      1.0000 0.43586  0.59740  0.92211  Biso   1.000  C
  C91      1.0000 0.93586  0.90260  0.42211  Biso   1.000  C
  C92      1.0000 0.43586  0.40260  0.42211  Biso   1.000  C
  C93      1.0000 0.06414  0.90260  0.07789  Biso   1.000  C
  C94      1.0000 0.56414  0.40260  0.07789  Biso   1.000  C
  C95      1.0000 0.06414  0.09740  0.57789  Biso   1.000  C
  C96      1.0000 0.56414  0.59740  0.57789  Biso   1.000  C
  H73      1.0000 0.91430  0.01500  0.93540  Biso   1.000  H
  H74      1.0000 0.41430  0.51500  0.93540  Biso   1.000  H
  H75      1.0000 0.91430  0.98500  0.43540  Biso   1.000  H
  H76      1.0000 0.41430  0.48500  0.43540  Biso   1.000  H
  H77      1.0000 0.08570  0.98500  0.06460  Biso   1.000  H
  H78      1.0000 0.58570  0.48500  0.06460  Biso   1.000  H
  H79      1.0000 0.08570  0.01500  0.56460  Biso   1.000  H
  H80      1.0000 0.58570  0.51500  0.56460  Biso   1.000  H
  C97      1.0000 0.95520  0.22510  0.96312  Biso   1.000  C
  C98      1.0000 0.45520  0.72510  0.96312  Biso   1.000  C
  C99      1.0000 0.95520  0.77490  0.46312  Biso   1.000  C
  C100     1.0000 0.45520  0.27490  0.46312  Biso   1.000  C
  C101     1.0000 0.04480  0.77490  0.03688  Biso   1.000  C
  C102     1.0000 0.54480  0.27490  0.03688  Biso   1.000  C
  C103     1.0000 0.04480  0.22510  0.53688  Biso   1.000  C
  C104     1.0000 0.54480  0.72510  0.53688  Biso   1.000  C
  H81      1.0000 0.94640  0.23180  0.00400  Biso   1.000  H
  H82      1.0000 0.44640  0.73180  0.00400  Biso   1.000  H
  H83      1.0000 0.94640  0.76820  0.50400  Biso   1.000  H
  H84      1.0000 0.44640  0.26820  0.50400  Biso   1.000  H
  H85      1.0000 0.05360  0.76820  0.99600  Biso   1.000  H
  H86      1.0000 0.55360  0.26820  0.99600  Biso   1.000  H
  H87      1.0000 0.05360  0.23180  0.49600  Biso   1.000  H
  H88      1.0000 0.55360  0.73180  0.49600  Biso   1.000  H
  C105     1.0000 0.98857  0.34430  0.94129  Biso   1.000  C
  C106     1.0000 0.48857  0.84430  0.94129  Biso   1.000  C
  C107     1.0000 0.98857  0.65570  0.44129  Biso   1.000  C
  C108     1.0000 0.48857  0.15570  0.44129  Biso   1.000  C
  C109     1.0000 0.01143  0.65570  0.05871  Biso   1.000  C
  C110     1.0000 0.51143  0.15570  0.05871  Biso   1.000  C
  C111     1.0000 0.01143  0.34430  0.55871  Biso   1.000  C
  C112     1.0000 0.51143  0.84430  0.55871  Biso   1.000  C
  C113     1.0000 0.00196  0.32840  0.88055  Biso   1.000  C
  C114     1.0000 0.50196  0.82840  0.88055  Biso   1.000  C
  C115     1.0000 0.00196  0.67160  0.38055  Biso   1.000  C
  C116     1.0000 0.50196  0.17160  0.38055  Biso   1.000  C
  C117     1.0000 0.99804  0.67160  0.11945  Biso   1.000  C
  C118     1.0000 0.49804  0.17160  0.11945  Biso   1.000  C
  C119     1.0000 0.99804  0.32840  0.61945  Biso   1.000  C
  C120     1.0000 0.49804  0.82840  0.61945  Biso   1.000  C
  H89      1.0000 0.02600  0.40520  0.86750  Biso   1.000  H
  H90      1.0000 0.52600  0.90520  0.86750  Biso   1.000  H
  H91      1.0000 0.02600  0.59480  0.36750  Biso   1.000  H
  H92      1.0000 0.52600  0.09480  0.36750  Biso   1.000  H
  H93      1.0000 0.97400  0.59480  0.13250  Biso   1.000  H
  H94      1.0000 0.47400  0.09480  0.13250  Biso   1.000  H
  H95      1.0000 0.97400  0.40520  0.63250  Biso   1.000  H
  H96      1.0000 0.47400  0.90520  0.63250  Biso   1.000  H
  H97      1.0000 0.01020  0.87900  0.78380  Biso   1.000  H
  H98      1.0000 0.51020  0.37900  0.78380  Biso   1.000  H
  H99      1.0000 0.01020  0.12100  0.28380  Biso   1.000  H
  H100     1.0000 0.51020  0.62100  0.28380  Biso   1.000  H
  H101     1.0000 0.98980  0.12100  0.21620  Biso   1.000  H
  H102     1.0000 0.48980  0.62100  0.21620  Biso   1.000  H
  H103     1.0000 0.98980  0.87900  0.71620  Biso   1.000  H
  H104     1.0000 0.48980  0.37900  0.71620  Biso   1.000  H
  O5       1.0000 0.00000  0.49840  0.75000  Biso   1.000  O
  O6       1.0000 0.50000  0.99840  0.75000  Biso   1.000  O
  O7       1.0000 0.00000  0.50160  0.25000  Biso   1.000  O
  O8       1.0000 0.50000  0.00160  0.25000  Biso   1.000  O
  H105     1.0000 0.97520  0.54400  0.76280  Biso   1.000  H
  H106     1.0000 0.47520  0.04400  0.76280  Biso   1.000  H
  H107     1.0000 0.97520  0.45600  0.26280  Biso   1.000  H
  H108     1.0000 0.47520  0.95600  0.26280  Biso   1.000  H
  H109     1.0000 0.02480  0.45600  0.23720  Biso   1.000  H
  H110     1.0000 0.52480  0.95600  0.23720  Biso   1.000  H
  H111     1.0000 0.02480  0.54400  0.73720  Biso   1.000  H
  H112     1.0000 0.52480  0.04400  0.73720  Biso   1.000  H
  O9       1.0000 0.03809  0.78575  0.86817  Biso   1.000  O
  O10      1.0000 0.53809  0.28575  0.86817  Biso   1.000  O
  O11      1.0000 0.03809  0.21425  0.36817  Biso   1.000  O
  O12      1.0000 0.53809  0.71425  0.36817  Biso   1.000  O
  O13      1.0000 0.96191  0.21425  0.13183  Biso   1.000  O
  O14      1.0000 0.46191  0.71425  0.13183  Biso   1.000  O
  O15      1.0000 0.96191  0.78575  0.63183  Biso   1.000  O
  O16      1.0000 0.46191  0.28575  0.63183  Biso   1.000  O
  H113     1.0000 0.06780  0.72500  0.87560  Biso   1.000  H
  H114     1.0000 0.56780  0.22500  0.87560  Biso   1.000  H
  H115     1.0000 0.06780  0.27500  0.37560  Biso   1.000  H
  H116     1.0000 0.56780  0.77500  0.37560  Biso   1.000  H
  H117     1.0000 0.93220  0.27500  0.12440  Biso   1.000  H
  H118     1.0000 0.43220  0.77500  0.12440  Biso   1.000  H
  H119     1.0000 0.93220  0.72500  0.62440  Biso   1.000  H
  H120     1.0000 0.43220  0.22500  0.62440  Biso   1.000  H
  H121     1.0000 0.00790  0.74500  0.87570  Biso   1.000  H
  H122     1.0000 0.50790  0.24500  0.87570  Biso   1.000  H
  H123     1.0000 0.00790  0.25500  0.37570  Biso   1.000  H
  H124     1.0000 0.50790  0.75500  0.37570  Biso   1.000  H
  H125     1.0000 0.99210  0.25500  0.12430  Biso   1.000  H
  H126     1.0000 0.49210  0.75500  0.12430  Biso   1.000  H
  H127     1.0000 0.99210  0.74500  0.62430  Biso   1.000  H
  H128     1.0000 0.49210  0.24500  0.62430  Biso   1.000  H
  Cl1      1.0000 0.87311  0.67483  0.84343  Biso   1.000  Cl
  Cl2      1.0000 0.37311  0.17483  0.84343  Biso   1.000  Cl
  Cl3      1.0000 0.87311  0.32517  0.34343  Biso   1.000  Cl
  Cl4      1.0000 0.37311  0.82517  0.34343  Biso   1.000  Cl
  Cl5      1.0000 0.12689  0.32517  0.15657  Biso   1.000  Cl
  Cl6      1.0000 0.62689  0.82517  0.15657  Biso   1.000  Cl
  Cl7      1.0000 0.12689  0.67483  0.65657  Biso   1.000  Cl
  Cl8      1.0000 0.62689  0.17483  0.65657  Biso   1.000  Cl
  O17      1.0000 0.83880  0.53480  0.84062  Biso   1.000  O
  O18      1.0000 0.33880  0.03480  0.84062  Biso   1.000  O
  O19      1.0000 0.83880  0.46520  0.34062  Biso   1.000  O
  O20      1.0000 0.33880  0.96520  0.34062  Biso   1.000  O
  O21      1.0000 0.16120  0.46520  0.15938  Biso   1.000  O
  O22      1.0000 0.66120  0.96520  0.15938  Biso   1.000  O
  O23      1.0000 0.16120  0.53480  0.65938  Biso   1.000  O
  O24      1.0000 0.66120  0.03480  0.65938  Biso   1.000  O
  O25      1.0000 0.83893  0.81130  0.82187  Biso   1.000  O
  O26      1.0000 0.33893  0.31130  0.82187  Biso   1.000  O
  O27      1.0000 0.83893  0.18870  0.32187  Biso   1.000  O
  O28      1.0000 0.33893  0.68870  0.32187  Biso   1.000  O
  O29      1.0000 0.16107  0.18870  0.17813  Biso   1.000  O
  O30      1.0000 0.66107  0.68870  0.17813  Biso   1.000  O
  O31      1.0000 0.16107  0.81130  0.67813  Biso   1.000  O
  O32      1.0000 0.66107  0.31130  0.67813  Biso   1.000  O
  O33      1.0000 0.88310  0.71660  0.91390  Biso   1.000  O
  O34      1.0000 0.38310  0.21660  0.91390  Biso   1.000  O
  O35      1.0000 0.88310  0.28340  0.41390  Biso   1.000  O
  O36      1.0000 0.38310  0.78340  0.41390  Biso   1.000  O
  O37      1.0000 0.11690  0.28340  0.08610  Biso   1.000  O
  O38      1.0000 0.61690  0.78340  0.08610  Biso   1.000  O
  O39      1.0000 0.11690  0.71660  0.58610  Biso   1.000  O
  O40      1.0000 0.61690  0.21660  0.58610  Biso   1.000  O
  O41      1.0000 0.92180  0.70500  0.89907  Biso   1.000  O
  O42      1.0000 0.42180  0.20500  0.89907  Biso   1.000  O
  O43      1.0000 0.92180  0.29500  0.39907  Biso   1.000  O
  O44      1.0000 0.42180  0.79500  0.39907  Biso   1.000  O
  O45      1.0000 0.07820  0.29500  0.10093  Biso   1.000  O
  O46      1.0000 0.57820  0.79500  0.10093  Biso   1.000  O
  O47      1.0000 0.07820  0.70500  0.60093  Biso   1.000  O
  O48      1.0000 0.57820  0.20500  0.60093  Biso   1.000  O
  O49      1.0000 0.90564  0.67020  0.78540  Biso   1.000  O
  O50      1.0000 0.40564  0.17020  0.78540  Biso   1.000  O
  O51      1.0000 0.90564  0.32980  0.28540  Biso   1.000  O
  O52      1.0000 0.40564  0.82980  0.28540  Biso   1.000  O
  O53      1.0000 0.09436  0.32980  0.21460  Biso   1.000  O
  O54      1.0000 0.59436  0.82980  0.21460  Biso   1.000  O
  O55      1.0000 0.09436  0.67020  0.71460  Biso   1.000  O
  O56      1.0000 0.59436  0.17020  0.71460  Biso   1.000  O
  O57      1.0000 0.92462  0.63680  0.82720  Biso   1.000  O
  O58      1.0000 0.42462  0.13680  0.82720  Biso   1.000  O
  O59      1.0000 0.92462  0.36320  0.32720  Biso   1.000  O
  O60      1.0000 0.42462  0.86320  0.32720  Biso   1.000  O
  O61      1.0000 0.07538  0.36320  0.17280  Biso   1.000  O
  O62      1.0000 0.57538  0.86320  0.17280  Biso   1.000  O
  O63      1.0000 0.07538  0.63680  0.67280  Biso   1.000  O
  O64      1.0000 0.57538  0.13680  0.67280  Biso   1.000  O
