data_image0
_cell_length_a       22.611
_cell_length_b       8.3018
_cell_length_c       21.086
_cell_angle_alpha    90
_cell_angle_beta     103.657
_cell_angle_gamma    90

_symmetry_space_group_name_H-M    "P 1"
_symmetry_int_tables_number       1

loop_
  _symmetry_equiv_pos_as_xyz
  'x, y, z'

loop_
  _atom_site_label
  _atom_site_occupancy
  _atom_site_fract_x
  _atom_site_fract_y
  _atom_site_fract_z
  _atom_site_thermal_displace_type
  _atom_site_B_iso_or_equiv
  _atom_site_type_symbol
  Cu1      1.0000 0.00000  0.20128  0.25000  Biso   1.000  Cu
  Cu2      1.0000 0.50000  0.70128  0.25000  Biso   1.000  Cu
  Cu3      1.0000 0.00000  0.79872  0.75000  Biso   1.000  Cu
  Cu4      1.0000 0.50000  0.29872  0.75000  Biso   1.000  Cu
  N1       1.0000 0.90843  0.21007  0.20565  Biso   1.000  N
  N2       1.0000 0.40843  0.71007  0.20565  Biso   1.000  N
  N3       1.0000 0.90843  0.78993  0.70565  Biso   1.000  N
  N4       1.0000 0.40843  0.28993  0.70565  Biso   1.000  N
  N5       1.0000 0.09157  0.78993  0.79435  Biso   1.000  N
  N6       1.0000 0.59157  0.28993  0.79435  Biso   1.000  N
  N7       1.0000 0.09157  0.21007  0.29435  Biso   1.000  N
  N8       1.0000 0.59157  0.71007  0.29435  Biso   1.000  N
  N9       1.0000 0.80777  0.04440  0.05940  Biso   1.000  N
  N10      1.0000 0.30777  0.54440  0.05940  Biso   1.000  N
  N11      1.0000 0.80777  0.95560  0.55940  Biso   1.000  N
  N12      1.0000 0.30777  0.45560  0.55940  Biso   1.000  N
  N13      1.0000 0.19223  0.95560  0.94060  Biso   1.000  N
  N14      1.0000 0.69223  0.45560  0.94060  Biso   1.000  N
  N15      1.0000 0.19223  0.04440  0.44060  Biso   1.000  N
  N16      1.0000 0.69223  0.54440  0.44060  Biso   1.000  N
  N17      1.0000 0.75244  0.05700  0.03246  Biso   1.000  N
  N18      1.0000 0.25244  0.55700  0.03246  Biso   1.000  N
  N19      1.0000 0.75244  0.94300  0.53246  Biso   1.000  N
  N20      1.0000 0.25244  0.44300  0.53246  Biso   1.000  N
  N21      1.0000 0.24756  0.94300  0.96754  Biso   1.000  N
  N22      1.0000 0.74756  0.44300  0.96754  Biso   1.000  N
  N23      1.0000 0.24756  0.05700  0.46754  Biso   1.000  N
  N24      1.0000 0.74756  0.55700  0.46754  Biso   1.000  N
  N25      1.0000 0.64727  0.87440  0.89358  Biso   1.000  N
  N26      1.0000 0.14727  0.37440  0.89358  Biso   1.000  N
  N27      1.0000 0.64727  0.12560  0.39358  Biso   1.000  N
  N28      1.0000 0.14727  0.62560  0.39358  Biso   1.000  N
  N29      1.0000 0.35273  0.12560  0.10642  Biso   1.000  N
  N30      1.0000 0.85273  0.62560  0.10642  Biso   1.000  N
  N31      1.0000 0.35273  0.87440  0.60642  Biso   1.000  N
  N32      1.0000 0.85273  0.37440  0.60642  Biso   1.000  N
  N33      1.0000 0.01927  0.20993  0.16070  Biso   1.000  N
  N34      1.0000 0.51927  0.70993  0.16070  Biso   1.000  N
  N35      1.0000 0.01927  0.79007  0.66070  Biso   1.000  N
  N36      1.0000 0.51927  0.29007  0.66070  Biso   1.000  N
  N37      1.0000 0.98073  0.79007  0.83930  Biso   1.000  N
  N38      1.0000 0.48073  0.29007  0.83930  Biso   1.000  N
  N39      1.0000 0.98073  0.20993  0.33930  Biso   1.000  N
  N40      1.0000 0.48073  0.70993  0.33930  Biso   1.000  N
  N41      1.0000 0.98837  0.48641  0.02362  Biso   1.000  N
  N42      1.0000 0.48837  0.98641  0.02362  Biso   1.000  N
  N43      1.0000 0.98837  0.51359  0.52362  Biso   1.000  N
  N44      1.0000 0.48837  0.01359  0.52362  Biso   1.000  N
  N45      1.0000 0.01163  0.51359  0.97638  Biso   1.000  N
  N46      1.0000 0.51163  0.01359  0.97638  Biso   1.000  N
  N47      1.0000 0.01163  0.48641  0.47638  Biso   1.000  N
  N48      1.0000 0.51163  0.98641  0.47638  Biso   1.000  N
  O1       1.0000 0.00000  0.93380  0.25000  Biso   1.000  O
  O2       1.0000 0.50000  0.43380  0.25000  Biso   1.000  O
  O3       1.0000 0.00000  0.06620  0.75000  Biso   1.000  O
  O4       1.0000 0.50000  0.56620  0.75000  Biso   1.000  O
  H1       1.0000 0.98840  0.87500  0.21510  Biso   1.000  H
  H2       1.0000 0.48840  0.37500  0.21510  Biso   1.000  H
  H3       1.0000 0.98840  0.12500  0.71510  Biso   1.000  H
  H4       1.0000 0.48840  0.62500  0.71510  Biso   1.000  H
  H5       1.0000 0.01160  0.12500  0.78490  Biso   1.000  H
  H6       1.0000 0.51160  0.62500  0.78490  Biso   1.000  H
  H7       1.0000 0.01160  0.87500  0.28490  Biso   1.000  H
  H8       1.0000 0.51160  0.37500  0.28490  Biso   1.000  H
  O5       1.0000 0.00000  0.50070  0.25000  Biso   1.000  O
  O6       1.0000 0.50000  0.00070  0.25000  Biso   1.000  O
  O7       1.0000 0.00000  0.49930  0.75000  Biso   1.000  O
  O8       1.0000 0.50000  0.99930  0.75000  Biso   1.000  O
  H9       1.0000 0.02560  0.55700  0.23640  Biso   1.000  H
  H10      1.0000 0.52560  0.05700  0.23640  Biso   1.000  H
  H11      1.0000 0.02560  0.44300  0.73640  Biso   1.000  H
  H12      1.0000 0.52560  0.94300  0.73640  Biso   1.000  H
  H13      1.0000 0.97440  0.44300  0.76360  Biso   1.000  H
  H14      1.0000 0.47440  0.94300  0.76360  Biso   1.000  H
  H15      1.0000 0.97440  0.55700  0.26360  Biso   1.000  H
  H16      1.0000 0.47440  0.05700  0.26360  Biso   1.000  H
  O9       1.0000 0.03634  0.78958  0.36857  Biso   1.000  O
  O10      1.0000 0.53634  0.28958  0.36857  Biso   1.000  O
  O11      1.0000 0.03634  0.21042  0.86857  Biso   1.000  O
  O12      1.0000 0.53634  0.71042  0.86857  Biso   1.000  O
  O13      1.0000 0.96366  0.21042  0.63143  Biso   1.000  O
  O14      1.0000 0.46366  0.71042  0.63143  Biso   1.000  O
  O15      1.0000 0.96366  0.78958  0.13143  Biso   1.000  O
  O16      1.0000 0.46366  0.28958  0.13143  Biso   1.000  O
  H17      1.0000 0.06600  0.72300  0.37620  Biso   1.000  H
  H18      1.0000 0.56600  0.22300  0.37620  Biso   1.000  H
  H19      1.0000 0.06600  0.27700  0.87620  Biso   1.000  H
  H20      1.0000 0.56600  0.77700  0.87620  Biso   1.000  H
  H21      1.0000 0.93400  0.27700  0.62380  Biso   1.000  H
  H22      1.0000 0.43400  0.77700  0.62380  Biso   1.000  H
  H23      1.0000 0.93400  0.72300  0.12380  Biso   1.000  H
  H24      1.0000 0.43400  0.22300  0.12380  Biso   1.000  H
  H25      1.0000 0.00730  0.73900  0.37970  Biso   1.000  H
  H26      1.0000 0.50730  0.23900  0.37970  Biso   1.000  H
  H27      1.0000 0.00730  0.26100  0.87970  Biso   1.000  H
  H28      1.0000 0.50730  0.76100  0.87970  Biso   1.000  H
  H29      1.0000 0.99270  0.26100  0.62030  Biso   1.000  H
  H30      1.0000 0.49270  0.76100  0.62030  Biso   1.000  H
  H31      1.0000 0.99270  0.73900  0.12030  Biso   1.000  H
  H32      1.0000 0.49270  0.23900  0.12030  Biso   1.000  H
  B1       1.0000 0.12460  0.67910  0.16153  Biso   1.000  B
  B2       1.0000 0.62460  0.17910  0.16153  Biso   1.000  B
  B3       1.0000 0.12460  0.32090  0.66153  Biso   1.000  B
  B4       1.0000 0.62460  0.82090  0.66153  Biso   1.000  B
  B5       1.0000 0.87540  0.32090  0.83847  Biso   1.000  B
  B6       1.0000 0.37540  0.82090  0.83847  Biso   1.000  B
  B7       1.0000 0.87540  0.67910  0.33847  Biso   1.000  B
  B8       1.0000 0.37540  0.17910  0.33847  Biso   1.000  B
  F1       1.0000 0.15840  0.54330  0.16101  Biso   1.000  F
  F2       1.0000 0.65840  0.04330  0.16101  Biso   1.000  F
  F3       1.0000 0.15840  0.45670  0.66101  Biso   1.000  F
  F4       1.0000 0.65840  0.95670  0.66101  Biso   1.000  F
  F5       1.0000 0.84160  0.45670  0.83899  Biso   1.000  F
  F6       1.0000 0.34160  0.95670  0.83899  Biso   1.000  F
  F7       1.0000 0.84160  0.54330  0.33899  Biso   1.000  F
  F8       1.0000 0.34160  0.04330  0.33899  Biso   1.000  F
  F9       1.0000 0.15905  0.81310  0.17726  Biso   1.000  F
  F10      1.0000 0.65905  0.31310  0.17726  Biso   1.000  F
  F11      1.0000 0.15905  0.18690  0.67726  Biso   1.000  F
  F12      1.0000 0.65905  0.68690  0.67726  Biso   1.000  F
  F13      1.0000 0.84095  0.18690  0.82274  Biso   1.000  F
  F14      1.0000 0.34095  0.68690  0.82274  Biso   1.000  F
  F15      1.0000 0.84095  0.81310  0.32274  Biso   1.000  F
  F16      1.0000 0.34095  0.31310  0.32274  Biso   1.000  F
  F17      1.0000 0.08130  0.64170  0.19050  Biso   1.000  F
  F18      1.0000 0.58130  0.14170  0.19050  Biso   1.000  F
  F19      1.0000 0.08130  0.35830  0.69050  Biso   1.000  F
  F20      1.0000 0.58130  0.85830  0.69050  Biso   1.000  F
  F21      1.0000 0.91870  0.35830  0.80950  Biso   1.000  F
  F22      1.0000 0.41870  0.85830  0.80950  Biso   1.000  F
  F23      1.0000 0.91870  0.64170  0.30950  Biso   1.000  F
  F24      1.0000 0.41870  0.14170  0.30950  Biso   1.000  F
  F25      1.0000 0.09460  0.67500  0.21580  Biso   1.000  F
  F26      1.0000 0.59460  0.17500  0.21580  Biso   1.000  F
  F27      1.0000 0.09460  0.32500  0.71580  Biso   1.000  F
  F28      1.0000 0.59460  0.82500  0.71580  Biso   1.000  F
  F29      1.0000 0.90540  0.32500  0.78420  Biso   1.000  F
  F30      1.0000 0.40540  0.82500  0.78420  Biso   1.000  F
  F31      1.0000 0.90540  0.67500  0.28420  Biso   1.000  F
  F32      1.0000 0.40540  0.17500  0.28420  Biso   1.000  F
  F33      1.0000 0.10000  0.71340  0.09670  Biso   1.000  F
  F34      1.0000 0.60000  0.21340  0.09670  Biso   1.000  F
  F35      1.0000 0.10000  0.28660  0.59670  Biso   1.000  F
  F36      1.0000 0.60000  0.78660  0.59670  Biso   1.000  F
  F37      1.0000 0.90000  0.28660  0.90330  Biso   1.000  F
  F38      1.0000 0.40000  0.78660  0.90330  Biso   1.000  F
  F39      1.0000 0.90000  0.71340  0.40330  Biso   1.000  F
  F40      1.0000 0.40000  0.21340  0.40330  Biso   1.000  F
  F41      1.0000 0.07736  0.70210  0.10700  Biso   1.000  F
  F42      1.0000 0.57736  0.20210  0.10700  Biso   1.000  F
  F43      1.0000 0.07736  0.29790  0.60700  Biso   1.000  F
  F44      1.0000 0.57736  0.79790  0.60700  Biso   1.000  F
  F45      1.0000 0.92264  0.29790  0.89300  Biso   1.000  F
  F46      1.0000 0.42264  0.79790  0.89300  Biso   1.000  F
  F47      1.0000 0.92264  0.70210  0.39300  Biso   1.000  F
  F48      1.0000 0.42264  0.20210  0.39300  Biso   1.000  F
  C1       1.0000 0.82442  0.13410  0.11878  Biso   1.000  C
  C2       1.0000 0.32442  0.63410  0.11878  Biso   1.000  C
  C3       1.0000 0.82442  0.86590  0.61878  Biso   1.000  C
  C4       1.0000 0.32442  0.36590  0.61878  Biso   1.000  C
  C5       1.0000 0.17558  0.86590  0.88122  Biso   1.000  C
  C6       1.0000 0.67558  0.36590  0.88122  Biso   1.000  C
  C7       1.0000 0.17558  0.13410  0.38122  Biso   1.000  C
  C8       1.0000 0.67558  0.63410  0.38122  Biso   1.000  C
  C9       1.0000 0.88548  0.12740  0.15047  Biso   1.000  C
  C10      1.0000 0.38548  0.62740  0.15047  Biso   1.000  C
  C11      1.0000 0.88548  0.87260  0.65047  Biso   1.000  C
  C12      1.0000 0.38548  0.37260  0.65047  Biso   1.000  C
  C13      1.0000 0.11452  0.87260  0.84953  Biso   1.000  C
  C14      1.0000 0.61452  0.37260  0.84953  Biso   1.000  C
  C15      1.0000 0.11452  0.12740  0.34953  Biso   1.000  C
  C16      1.0000 0.61452  0.62740  0.34953  Biso   1.000  C
  H33      1.0000 0.91150  0.06360  0.13300  Biso   1.000  H
  H34      1.0000 0.41150  0.56360  0.13300  Biso   1.000  H
  H35      1.0000 0.91150  0.93640  0.63300  Biso   1.000  H
  H36      1.0000 0.41150  0.43640  0.63300  Biso   1.000  H
  H37      1.0000 0.08850  0.93640  0.86700  Biso   1.000  H
  H38      1.0000 0.58850  0.43640  0.86700  Biso   1.000  H
  H39      1.0000 0.08850  0.06360  0.36700  Biso   1.000  H
  H40      1.0000 0.58850  0.56360  0.36700  Biso   1.000  H
  C17      1.0000 0.86972  0.29970  0.23054  Biso   1.000  C
  C18      1.0000 0.36972  0.79970  0.23054  Biso   1.000  C
  C19      1.0000 0.86972  0.70030  0.73054  Biso   1.000  C
  C20      1.0000 0.36972  0.20030  0.73054  Biso   1.000  C
  C21      1.0000 0.13028  0.70030  0.76946  Biso   1.000  C
  C22      1.0000 0.63028  0.20030  0.76946  Biso   1.000  C
  C23      1.0000 0.13028  0.29970  0.26946  Biso   1.000  C
  C24      1.0000 0.63028  0.79970  0.26946  Biso   1.000  C
  H41      1.0000 0.88520  0.35850  0.26840  Biso   1.000  H
  H42      1.0000 0.38520  0.85850  0.26840  Biso   1.000  H
  H43      1.0000 0.88520  0.64150  0.76840  Biso   1.000  H
  H44      1.0000 0.38520  0.14150  0.76840  Biso   1.000  H
  H45      1.0000 0.11480  0.64150  0.73160  Biso   1.000  H
  H46      1.0000 0.61480  0.14150  0.73160  Biso   1.000  H
  H47      1.0000 0.11480  0.35850  0.23160  Biso   1.000  H
  H48      1.0000 0.61480  0.85850  0.23160  Biso   1.000  H
  C25      1.0000 0.80798  0.30810  0.20235  Biso   1.000  C
  C26      1.0000 0.30798  0.80810  0.20235  Biso   1.000  C
  C27      1.0000 0.80798  0.69190  0.70235  Biso   1.000  C
  C28      1.0000 0.30798  0.19190  0.70235  Biso   1.000  C
  C29      1.0000 0.19202  0.69190  0.79765  Biso   1.000  C
  C30      1.0000 0.69202  0.19190  0.79765  Biso   1.000  C
  C31      1.0000 0.19202  0.30810  0.29765  Biso   1.000  C
  C32      1.0000 0.69202  0.80810  0.29765  Biso   1.000  C
  H49      1.0000 0.78260  0.36940  0.22170  Biso   1.000  H
  H50      1.0000 0.28260  0.86940  0.22170  Biso   1.000  H
  H51      1.0000 0.78260  0.63060  0.72170  Biso   1.000  H
  H52      1.0000 0.28260  0.13060  0.72170  Biso   1.000  H
  H53      1.0000 0.21740  0.63060  0.77830  Biso   1.000  H
  H54      1.0000 0.71740  0.13060  0.77830  Biso   1.000  H
  H55      1.0000 0.21740  0.36940  0.27830  Biso   1.000  H
  H56      1.0000 0.71740  0.86940  0.27830  Biso   1.000  H
  C33      1.0000 0.78444  0.22510  0.14540  Biso   1.000  C
  C34      1.0000 0.28444  0.72510  0.14540  Biso   1.000  C
  C35      1.0000 0.78444  0.77490  0.64540  Biso   1.000  C
  C36      1.0000 0.28444  0.27490  0.64540  Biso   1.000  C
  C37      1.0000 0.21556  0.77490  0.85460  Biso   1.000  C
  C38      1.0000 0.71556  0.27490  0.85460  Biso   1.000  C
  C39      1.0000 0.21556  0.22510  0.35460  Biso   1.000  C
  C40      1.0000 0.71556  0.72510  0.35460  Biso   1.000  C
  H57      1.0000 0.74320  0.22960  0.12540  Biso   1.000  H
  H58      1.0000 0.24320  0.72960  0.12540  Biso   1.000  H
  H59      1.0000 0.74320  0.77040  0.62540  Biso   1.000  H
  H60      1.0000 0.24320  0.27040  0.62540  Biso   1.000  H
  H61      1.0000 0.25680  0.77040  0.87460  Biso   1.000  H
  H62      1.0000 0.75680  0.27040  0.87460  Biso   1.000  H
  H63      1.0000 0.25680  0.22960  0.37460  Biso   1.000  H
  H64      1.0000 0.75680  0.72960  0.37460  Biso   1.000  H
  C41      1.0000 0.73431  0.96810  0.97313  Biso   1.000  C
  C42      1.0000 0.23431  0.46810  0.97313  Biso   1.000  C
  C43      1.0000 0.73431  0.03190  0.47313  Biso   1.000  C
  C44      1.0000 0.23431  0.53190  0.47313  Biso   1.000  C
  C45      1.0000 0.26569  0.03190  0.02687  Biso   1.000  C
  C46      1.0000 0.76569  0.53190  0.02687  Biso   1.000  C
  C47      1.0000 0.26569  0.96810  0.52687  Biso   1.000  C
  C48      1.0000 0.76569  0.46810  0.52687  Biso   1.000  C
  C49      1.0000 0.67201  0.95430  0.94874  Biso   1.000  C
  C50      1.0000 0.17201  0.45430  0.94874  Biso   1.000  C
  C51      1.0000 0.67201  0.04570  0.44874  Biso   1.000  C
  C52      1.0000 0.17201  0.54570  0.44874  Biso   1.000  C
  C53      1.0000 0.32799  0.04570  0.05126  Biso   1.000  C
  C54      1.0000 0.82799  0.54570  0.05126  Biso   1.000  C
  C55      1.0000 0.32799  0.95430  0.55126  Biso   1.000  C
  C56      1.0000 0.82799  0.45430  0.55126  Biso   1.000  C
  H65      1.0000 0.64620  0.00250  0.97160  Biso   1.000  H
  H66      1.0000 0.14620  0.50250  0.97160  Biso   1.000  H
  H67      1.0000 0.64620  0.99750  0.47160  Biso   1.000  H
  H68      1.0000 0.14620  0.49750  0.47160  Biso   1.000  H
  H69      1.0000 0.35380  0.99750  0.02840  Biso   1.000  H
  H70      1.0000 0.85380  0.49750  0.02840  Biso   1.000  H
  H71      1.0000 0.35380  0.00250  0.52840  Biso   1.000  H
  H72      1.0000 0.85380  0.50250  0.52840  Biso   1.000  H
  C57      1.0000 0.68522  0.80810  0.86142  Biso   1.000  C
  C58      1.0000 0.18522  0.30810  0.86142  Biso   1.000  C
  C59      1.0000 0.68522  0.19190  0.36142  Biso   1.000  C
  C60      1.0000 0.18522  0.69190  0.36142  Biso   1.000  C
  C61      1.0000 0.31478  0.19190  0.13858  Biso   1.000  C
  C62      1.0000 0.81478  0.69190  0.13858  Biso   1.000  C
  C63      1.0000 0.31478  0.80810  0.63858  Biso   1.000  C
  C64      1.0000 0.81478  0.30810  0.63858  Biso   1.000  C
  H73      1.0000 0.66860  0.75390  0.82270  Biso   1.000  H
  H74      1.0000 0.16860  0.25390  0.82270  Biso   1.000  H
  H75      1.0000 0.66860  0.24610  0.32270  Biso   1.000  H
  H76      1.0000 0.16860  0.74610  0.32270  Biso   1.000  H
  H77      1.0000 0.33140  0.24610  0.17730  Biso   1.000  H
  H78      1.0000 0.83140  0.74610  0.17730  Biso   1.000  H
  H79      1.0000 0.33140  0.75390  0.67730  Biso   1.000  H
  H80      1.0000 0.83140  0.25390  0.67730  Biso   1.000  H
  C65      1.0000 0.74787  0.81530  0.88243  Biso   1.000  C
  C66      1.0000 0.24787  0.31530  0.88243  Biso   1.000  C
  C67      1.0000 0.74787  0.18470  0.38243  Biso   1.000  C
  C68      1.0000 0.24787  0.68470  0.38243  Biso   1.000  C
  C69      1.0000 0.25213  0.18470  0.11757  Biso   1.000  C
  C70      1.0000 0.75213  0.68470  0.11757  Biso   1.000  C
  C71      1.0000 0.25213  0.81530  0.61757  Biso   1.000  C
  C72      1.0000 0.75213  0.31530  0.61757  Biso   1.000  C
  H81      1.0000 0.77260  0.76660  0.85850  Biso   1.000  H
  H82      1.0000 0.27260  0.26660  0.85850  Biso   1.000  H
  H83      1.0000 0.77260  0.23340  0.35850  Biso   1.000  H
  H84      1.0000 0.27260  0.73340  0.35850  Biso   1.000  H
  H85      1.0000 0.22740  0.23340  0.14150  Biso   1.000  H
  H86      1.0000 0.72740  0.73340  0.14150  Biso   1.000  H
  H87      1.0000 0.22740  0.76660  0.64150  Biso   1.000  H
  H88      1.0000 0.72740  0.26660  0.64150  Biso   1.000  H
  C73      1.0000 0.77308  0.89630  0.93974  Biso   1.000  C
  C74      1.0000 0.27308  0.39630  0.93974  Biso   1.000  C
  C75      1.0000 0.77308  0.10370  0.43974  Biso   1.000  C
  C76      1.0000 0.27308  0.60370  0.43974  Biso   1.000  C
  C77      1.0000 0.22692  0.10370  0.06026  Biso   1.000  C
  C78      1.0000 0.72692  0.60370  0.06026  Biso   1.000  C
  C79      1.0000 0.22692  0.89630  0.56026  Biso   1.000  C
  C80      1.0000 0.72692  0.39630  0.56026  Biso   1.000  C
  H89      1.0000 0.81510  0.90230  0.95540  Biso   1.000  H
  H90      1.0000 0.31510  0.40230  0.95540  Biso   1.000  H
  H91      1.0000 0.81510  0.09770  0.45540  Biso   1.000  H
  H92      1.0000 0.31510  0.59770  0.45540  Biso   1.000  H
  H93      1.0000 0.18490  0.09770  0.04460  Biso   1.000  H
  H94      1.0000 0.68490  0.59770  0.04460  Biso   1.000  H
  H95      1.0000 0.18490  0.90230  0.54460  Biso   1.000  H
  H96      1.0000 0.68490  0.40230  0.54460  Biso   1.000  H
  C81      1.0000 0.05255  0.09450  0.14105  Biso   1.000  C
  C82      1.0000 0.55255  0.59450  0.14105  Biso   1.000  C
  C83      1.0000 0.05255  0.90550  0.64105  Biso   1.000  C
  C84      1.0000 0.55255  0.40550  0.64105  Biso   1.000  C
  C85      1.0000 0.94745  0.90550  0.85895  Biso   1.000  C
  C86      1.0000 0.44745  0.40550  0.85895  Biso   1.000  C
  C87      1.0000 0.94745  0.09450  0.35895  Biso   1.000  C
  C88      1.0000 0.44745  0.59450  0.35895  Biso   1.000  C
  H97      1.0000 0.06760  0.01040  0.16940  Biso   1.000  H
  H98      1.0000 0.56760  0.51040  0.16940  Biso   1.000  H
  H99      1.0000 0.06760  0.98960  0.66940  Biso   1.000  H
  H100     1.0000 0.56760  0.48960  0.66940  Biso   1.000  H
  H101     1.0000 0.93240  0.98960  0.83060  Biso   1.000  H
  H102     1.0000 0.43240  0.48960  0.83060  Biso   1.000  H
  H103     1.0000 0.93240  0.01040  0.33060  Biso   1.000  H
  H104     1.0000 0.43240  0.51040  0.33060  Biso   1.000  H
  C89      1.0000 0.06523  0.09700  0.07972  Biso   1.000  C
  C90      1.0000 0.56523  0.59700  0.07972  Biso   1.000  C
  C91      1.0000 0.06523  0.90300  0.57972  Biso   1.000  C
  C92      1.0000 0.56523  0.40300  0.57972  Biso   1.000  C
  C93      1.0000 0.93477  0.90300  0.92028  Biso   1.000  C
  C94      1.0000 0.43477  0.40300  0.92028  Biso   1.000  C
  C95      1.0000 0.93477  0.09700  0.42028  Biso   1.000  C
  C96      1.0000 0.43477  0.59700  0.42028  Biso   1.000  C
  H105     1.0000 0.08710  0.01330  0.06680  Biso   1.000  H
  H106     1.0000 0.58710  0.51330  0.06680  Biso   1.000  H
  H107     1.0000 0.08710  0.98670  0.56680  Biso   1.000  H
  H108     1.0000 0.58710  0.48670  0.56680  Biso   1.000  H
  H109     1.0000 0.91290  0.98670  0.93320  Biso   1.000  H
  H110     1.0000 0.41290  0.48670  0.93320  Biso   1.000  H
  H111     1.0000 0.91290  0.01330  0.43320  Biso   1.000  H
  H112     1.0000 0.41290  0.51330  0.43320  Biso   1.000  H
  C97      1.0000 0.04520  0.22380  0.03805  Biso   1.000  C
  C98      1.0000 0.54520  0.72380  0.03805  Biso   1.000  C
  C99      1.0000 0.04520  0.77620  0.53805  Biso   1.000  C
  C100     1.0000 0.54520  0.27620  0.53805  Biso   1.000  C
  C101     1.0000 0.95480  0.77620  0.96195  Biso   1.000  C
  C102     1.0000 0.45480  0.27620  0.96195  Biso   1.000  C
  C103     1.0000 0.95480  0.22380  0.46195  Biso   1.000  C
  C104     1.0000 0.45480  0.72380  0.46195  Biso   1.000  C
  H113     1.0000 0.05370  0.22830  0.99700  Biso   1.000  H
  H114     1.0000 0.55370  0.72830  0.99700  Biso   1.000  H
  H115     1.0000 0.05370  0.77170  0.49700  Biso   1.000  H
  H116     1.0000 0.55370  0.27170  0.49700  Biso   1.000  H
  H117     1.0000 0.94630  0.77170  0.00300  Biso   1.000  H
  H118     1.0000 0.44630  0.27170  0.00300  Biso   1.000  H
  H119     1.0000 0.94630  0.22830  0.50300  Biso   1.000  H
  H120     1.0000 0.44630  0.72830  0.50300  Biso   1.000  H
  C105     1.0000 0.01191  0.34520  0.05920  Biso   1.000  C
  C106     1.0000 0.51191  0.84520  0.05920  Biso   1.000  C
  C107     1.0000 0.01191  0.65480  0.55920  Biso   1.000  C
  C108     1.0000 0.51191  0.15480  0.55920  Biso   1.000  C
  C109     1.0000 0.98809  0.65480  0.94080  Biso   1.000  C
  C110     1.0000 0.48809  0.15480  0.94080  Biso   1.000  C
  C111     1.0000 0.98809  0.34520  0.44080  Biso   1.000  C
  C112     1.0000 0.48809  0.84520  0.44080  Biso   1.000  C
  C113     1.0000 0.99845  0.33230  0.11969  Biso   1.000  C
  C114     1.0000 0.49845  0.83230  0.11969  Biso   1.000  C
  C115     1.0000 0.99845  0.66770  0.61969  Biso   1.000  C
  C116     1.0000 0.49845  0.16770  0.61969  Biso   1.000  C
  C117     1.0000 0.00155  0.66770  0.88031  Biso   1.000  C
  C118     1.0000 0.50155  0.16770  0.88031  Biso   1.000  C
  C119     1.0000 0.00155  0.33230  0.38031  Biso   1.000  C
  C120     1.0000 0.50155  0.83230  0.38031  Biso   1.000  C
  H121     1.0000 0.97420  0.41070  0.13240  Biso   1.000  H
  H122     1.0000 0.47420  0.91070  0.13240  Biso   1.000  H
  H123     1.0000 0.97420  0.58930  0.63240  Biso   1.000  H
  H124     1.0000 0.47420  0.08930  0.63240  Biso   1.000  H
  H125     1.0000 0.02580  0.58930  0.86760  Biso   1.000  H
  H126     1.0000 0.52580  0.08930  0.86760  Biso   1.000  H
  H127     1.0000 0.02580  0.41070  0.36760  Biso   1.000  H
  H128     1.0000 0.52580  0.91070  0.36760  Biso   1.000  H
