data_image0
_cell_length_a       7.465
_cell_length_b       8.392
_cell_length_c       15.11
_cell_angle_alpha    77.518
_cell_angle_beta     84.066
_cell_angle_gamma    85.22

_symmetry_space_group_name_H-M    "P 1"
_symmetry_int_tables_number       1

loop_
  _symmetry_equiv_pos_as_xyz
  'x, y, z'

loop_
  _atom_site_label
  _atom_site_occupancy
  _atom_site_fract_x
  _atom_site_fract_y
  _atom_site_fract_z
  _atom_site_thermal_displace_type
  _atom_site_B_iso_or_equiv
  _atom_site_type_symbol
  Cu1      1.0000 0.50000  0.50000  0.50000  Biso   1.000  Cu
  Cu2      1.0000 0.50000  0.50000  0.00000  Biso   1.000  Cu
  N1       1.0000 0.41610  0.30460  0.46047  Biso   1.000  N
  N2       1.0000 0.58390  0.69540  0.53953  Biso   1.000  N
  N3       1.0000 0.04200  0.03890  0.52140  Biso   1.000  N
  N4       1.0000 0.95800  0.96110  0.47860  Biso   1.000  N
  N5       1.0000 0.41930  0.30210  0.96297  Biso   1.000  N
  N6       1.0000 0.58070  0.69790  0.03703  Biso   1.000  N
  N7       1.0000 0.02420  0.06180  0.01130  Biso   1.000  N
  N8       1.0000 0.97580  0.93820  0.98870  Biso   1.000  N
  O1       1.0000 0.77980  0.39730  0.48469  Biso   1.000  O
  O2       1.0000 0.22020  0.60270  0.51531  Biso   1.000  O
  O3       1.0000 0.51110  0.63550  0.36600  Biso   1.000  O
  O4       1.0000 0.48890  0.36450  0.63400  Biso   1.000  O
  O5       1.0000 0.21360  0.60130  0.00551  Biso   1.000  O
  O6       1.0000 0.78640  0.39870  0.99449  Biso   1.000  O
  O7       1.0000 0.54200  0.62420  0.86515  Biso   1.000  O
  O8       1.0000 0.45800  0.37580  0.13485  Biso   1.000  O
  Si1      1.0000 0.04984  0.58647  0.26745  Biso   1.000  Si
  Si2      1.0000 0.95016  0.41353  0.73255  Biso   1.000  Si
  F1       1.0000 0.00650  0.40280  0.33202  Biso   1.000  F
  F2       1.0000 0.99350  0.59720  0.66798  Biso   1.000  F
  F3       1.0000 0.82850  0.63520  0.26810  Biso   1.000  F
  F4       1.0000 0.17150  0.36480  0.73190  Biso   1.000  F
  F5       1.0000 0.09210  0.76880  0.20190  Biso   1.000  F
  F6       1.0000 0.90790  0.23120  0.79810  Biso   1.000  F
  F7       1.0000 0.27410  0.53420  0.26597  Biso   1.000  F
  F8       1.0000 0.72590  0.46580  0.73403  Biso   1.000  F
  F9       1.0000 0.04630  0.51010  0.17270  Biso   1.000  F
  F10      1.0000 0.95370  0.48990  0.82730  Biso   1.000  F
  F11      1.0000 0.05980  0.66120  0.36067  Biso   1.000  F
  F12      1.0000 0.94020  0.33880  0.63933  Biso   1.000  F
  C1       1.0000 0.26630  0.23290  0.49990  Biso   1.000  C
  C2       1.0000 0.73370  0.76710  0.50010  Biso   1.000  C
  H1       1.0000 0.20070  0.27360  0.54690  Biso   1.000  H
  H2       1.0000 0.79930  0.72640  0.45310  Biso   1.000  H
  C3       1.0000 0.20490  0.10040  0.47350  Biso   1.000  C
  C4       1.0000 0.79510  0.89960  0.52650  Biso   1.000  C
  C5       1.0000 0.30640  0.03200  0.40680  Biso   1.000  C
  C6       1.0000 0.69360  0.96800  0.59320  Biso   1.000  C
  H3       1.0000 0.27000  0.94070  0.38940  Biso   1.000  H
  H4       1.0000 0.73000  0.05930  0.61060  Biso   1.000  H
  C7       1.0000 0.46250  0.10410  0.36730  Biso   1.000  C
  C8       1.0000 0.53750  0.89590  0.63270  Biso   1.000  C
  H5       1.0000 0.53440  0.06160  0.32290  Biso   1.000  H
  H6       1.0000 0.46560  0.93840  0.67710  Biso   1.000  H
  C9       1.0000 0.51140  0.24090  0.39470  Biso   1.000  C
  C10      1.0000 0.48860  0.75910  0.60530  Biso   1.000  C
  H7       1.0000 0.61490  0.29070  0.36600  Biso   1.000  H
  H8       1.0000 0.38510  0.70930  0.63400  Biso   1.000  H
  C11      1.0000 0.26060  0.24170  0.99670  Biso   1.000  C
  C12      1.0000 0.73940  0.75830  0.00330  Biso   1.000  C
  H9       1.0000 0.18930  0.29050  0.03890  Biso   1.000  H
  H10      1.0000 0.81070  0.70950  0.96110  Biso   1.000  H
  C13      1.0000 0.19850  0.10890  0.97090  Biso   1.000  C
  C14      1.0000 0.80150  0.89110  0.02910  Biso   1.000  C
  C15      1.0000 0.30480  0.03410  0.90810  Biso   1.000  C
  C16      1.0000 0.69520  0.96590  0.09190  Biso   1.000  C
  H11      1.0000 0.26530  0.94580  0.88920  Biso   1.000  H
  H12      1.0000 0.73470  0.05420  0.11080  Biso   1.000  H
  C17      1.0000 0.47020  0.09450  0.87490  Biso   1.000  C
  C18      1.0000 0.52980  0.90550  0.12510  Biso   1.000  C
  H13      1.0000 0.54610  0.04560  0.83430  Biso   1.000  H
  H14      1.0000 0.45390  0.95440  0.16570  Biso   1.000  H
  C19      1.0000 0.52170  0.22940  0.90300  Biso   1.000  C
  C20      1.0000 0.47830  0.77060  0.09700  Biso   1.000  C
  H15      1.0000 0.63220  0.27120  0.87920  Biso   1.000  H
  H16      1.0000 0.36780  0.72880  0.12080  Biso   1.000  H
  H17      1.0000 0.85500  0.39400  0.44100  Biso   1.000  H
  H18      1.0000 0.14500  0.60600  0.55900  Biso   1.000  H
  H19      1.0000 0.83400  0.38500  0.53100  Biso   1.000  H
  H20      1.0000 0.16600  0.61500  0.46900  Biso   1.000  H
  H21      1.0000 0.43900  0.61700  0.33300  Biso   1.000  H
  H22      1.0000 0.56100  0.38300  0.66700  Biso   1.000  H
  H23      1.0000 0.60300  0.63200  0.33200  Biso   1.000  H
  H24      1.0000 0.39700  0.36800  0.66800  Biso   1.000  H
  H25      1.0000 0.14400  0.60800  0.05100  Biso   1.000  H
  H26      1.0000 0.85600  0.39200  0.94900  Biso   1.000  H
  H27      1.0000 0.18300  0.65800  0.95800  Biso   1.000  H
  H28      1.0000 0.81700  0.34200  0.04200  Biso   1.000  H
  H29      1.0000 0.44800  0.65900  0.84200  Biso   1.000  H
  H30      1.0000 0.55200  0.34100  0.15800  Biso   1.000  H
  H31      1.0000 0.62000  0.58200  0.83300  Biso   1.000  H
  H32      1.0000 0.38000  0.41800  0.16700  Biso   1.000  H
  O9       1.0000 0.20890  0.70800  0.81700  Biso   1.000  O
  O10      1.0000 0.79110  0.29200  0.18300  Biso   1.000  O
  H33      1.0000 0.13400  0.63900  0.81500  Biso   1.000  H
  H34      1.0000 0.86600  0.36100  0.18500  Biso   1.000  H
  H35      1.0000 0.17400  0.79700  0.78300  Biso   1.000  H
  H36      1.0000 0.82600  0.20300  0.21700  Biso   1.000  H
  O11      1.0000 0.09900  0.99160  0.71940  Biso   1.000  O
  O12      1.0000 0.90100  0.00840  0.28060  Biso   1.000  O
  H37      1.0000 0.99100  0.97600  0.74200  Biso   1.000  H
  H38      1.0000 0.00900  0.02400  0.25800  Biso   1.000  H
  H39      1.0000 0.06300  0.01100  0.66600  Biso   1.000  H
  H40      1.0000 0.93700  0.98900  0.33400  Biso   1.000  H
