data_image0
_cell_length_a       20.407
_cell_length_b       10.729
_cell_length_c       25.126
_cell_angle_alpha    90
_cell_angle_beta     101.464
_cell_angle_gamma    90

_symmetry_space_group_name_H-M    "P 1"
_symmetry_int_tables_number       1

loop_
  _symmetry_equiv_pos_as_xyz
  'x, y, z'

loop_
  _atom_site_label
  _atom_site_occupancy
  _atom_site_fract_x
  _atom_site_fract_y
  _atom_site_fract_z
  _atom_site_thermal_displace_type
  _atom_site_B_iso_or_equiv
  _atom_site_type_symbol
  Cu1      1.0000 0.27338  0.64969  0.08667  Biso   1.000  Cu
  Cu2      1.0000 0.77338  0.85031  0.58667  Biso   1.000  Cu
  Cu3      1.0000 0.72662  0.35031  0.91333  Biso   1.000  Cu
  Cu4      1.0000 0.22662  0.14969  0.41333  Biso   1.000  Cu
  N1       1.0000 0.36380  0.78590  0.13730  Biso   1.000  N
  N2       1.0000 0.86380  0.71410  0.63730  Biso   1.000  N
  N3       1.0000 0.63620  0.21410  0.86270  Biso   1.000  N
  N4       1.0000 0.13620  0.28590  0.36270  Biso   1.000  N
  N5       1.0000 0.31520  0.73740  0.03130  Biso   1.000  N
  N6       1.0000 0.81520  0.76260  0.53130  Biso   1.000  N
  N7       1.0000 0.68480  0.26260  0.96870  Biso   1.000  N
  N8       1.0000 0.18480  0.23740  0.46870  Biso   1.000  N
  N9       1.0000 0.30940  0.71140  0.97660  Biso   1.000  N
  N10      1.0000 0.80940  0.78860  0.47660  Biso   1.000  N
  N11      1.0000 0.69060  0.28860  0.02340  Biso   1.000  N
  N12      1.0000 0.19060  0.21140  0.52340  Biso   1.000  N
  N13      1.0000 0.38490  0.85940  0.00100  Biso   1.000  N
  N14      1.0000 0.88490  0.64060  0.50100  Biso   1.000  N
  N15      1.0000 0.61510  0.14060  0.99900  Biso   1.000  N
  N16      1.0000 0.11510  0.35940  0.49900  Biso   1.000  N
  C1       1.0000 0.38080  0.81300  0.19050  Biso   1.000  C
  C2       1.0000 0.88080  0.68700  0.69050  Biso   1.000  C
  C3       1.0000 0.61920  0.18700  0.80950  Biso   1.000  C
  C4       1.0000 0.11920  0.31300  0.30950  Biso   1.000  C
  H1       1.0000 0.36900  0.75590  0.21600  Biso   1.000  H
  H2       1.0000 0.86900  0.74410  0.71600  Biso   1.000  H
  H3       1.0000 0.63100  0.24410  0.78400  Biso   1.000  H
  H4       1.0000 0.13100  0.25590  0.28400  Biso   1.000  H
  C5       1.0000 0.41470  0.92050  0.20970  Biso   1.000  C
  C6       1.0000 0.91470  0.57950  0.70970  Biso   1.000  C
  C7       1.0000 0.58530  0.07950  0.79030  Biso   1.000  C
  C8       1.0000 0.08530  0.42050  0.29030  Biso   1.000  C
  H5       1.0000 0.42750  0.93620  0.24750  Biso   1.000  H
  H6       1.0000 0.92750  0.56380  0.74750  Biso   1.000  H
  H7       1.0000 0.57250  0.06380  0.75250  Biso   1.000  H
  H8       1.0000 0.07250  0.43620  0.25250  Biso   1.000  H
  C9       1.0000 0.42910  0.00380  0.17220  Biso   1.000  C
  C10      1.0000 0.92910  0.49620  0.67220  Biso   1.000  C
  C11      1.0000 0.57090  0.99620  0.82780  Biso   1.000  C
  C12      1.0000 0.07090  0.50380  0.32780  Biso   1.000  C
  H9       1.0000 0.45210  0.07890  0.18420  Biso   1.000  H
  H10      1.0000 0.95210  0.42110  0.68420  Biso   1.000  H
  H11      1.0000 0.54790  0.92110  0.81580  Biso   1.000  H
  H12      1.0000 0.04790  0.57890  0.31580  Biso   1.000  H
  C13      1.0000 0.41060  0.97970  0.11680  Biso   1.000  C
  C14      1.0000 0.91060  0.52030  0.61680  Biso   1.000  C
  C15      1.0000 0.58940  0.02030  0.88320  Biso   1.000  C
  C16      1.0000 0.08940  0.47970  0.38320  Biso   1.000  C
  H13      1.0000 0.41850  0.03860  0.09050  Biso   1.000  H
  H14      1.0000 0.91850  0.46140  0.59050  Biso   1.000  H
  H15      1.0000 0.58150  0.96140  0.90950  Biso   1.000  H
  H16      1.0000 0.08150  0.53860  0.40950  Biso   1.000  H
  C17      1.0000 0.38030  0.86660  0.10150  Biso   1.000  C
  C18      1.0000 0.88030  0.63340  0.60150  Biso   1.000  C
  C19      1.0000 0.61970  0.13340  0.89850  Biso   1.000  C
  C20      1.0000 0.11970  0.36660  0.39850  Biso   1.000  C
  C21      1.0000 0.36010  0.82330  0.04510  Biso   1.000  C
  C22      1.0000 0.86010  0.67670  0.54510  Biso   1.000  C
  C23      1.0000 0.63990  0.17670  0.95490  Biso   1.000  C
  C24      1.0000 0.13990  0.32330  0.45490  Biso   1.000  C
  C25      1.0000 0.35270  0.78540  0.95950  Biso   1.000  C
  C26      1.0000 0.85270  0.71460  0.45950  Biso   1.000  C
  C27      1.0000 0.64730  0.21460  0.04050  Biso   1.000  C
  C28      1.0000 0.14730  0.28540  0.54050  Biso   1.000  C
  C29      1.0000 0.36640  0.78090  0.90500  Biso   1.000  C
  C30      1.0000 0.86640  0.71910  0.40500  Biso   1.000  C
  C31      1.0000 0.63360  0.21910  0.09500  Biso   1.000  C
  C32      1.0000 0.13360  0.28090  0.59500  Biso   1.000  C
  C33      1.0000 0.37600  0.88520  0.87560  Biso   1.000  C
  C34      1.0000 0.87600  0.61480  0.37560  Biso   1.000  C
  C35      1.0000 0.62400  0.11480  0.12440  Biso   1.000  C
  C36      1.0000 0.12400  0.38520  0.62440  Biso   1.000  C
  H17      1.0000 0.37370  0.96600  0.89060  Biso   1.000  H
  H18      1.0000 0.87370  0.53400  0.39060  Biso   1.000  H
  H19      1.0000 0.62630  0.03400  0.10940  Biso   1.000  H
  H20      1.0000 0.12630  0.46600  0.60940  Biso   1.000  H
  C37      1.0000 0.38930  0.87090  0.82300  Biso   1.000  C
  C38      1.0000 0.88930  0.62910  0.32300  Biso   1.000  C
  C39      1.0000 0.61070  0.12910  0.17700  Biso   1.000  C
  C40      1.0000 0.11070  0.37090  0.67700  Biso   1.000  C
  H21      1.0000 0.39580  0.94310  0.80280  Biso   1.000  H
  H22      1.0000 0.89580  0.55690  0.30280  Biso   1.000  H
  H23      1.0000 0.60420  0.05690  0.19720  Biso   1.000  H
  H24      1.0000 0.10420  0.44310  0.69720  Biso   1.000  H
  C41      1.0000 0.39300  0.75880  0.80070  Biso   1.000  C
  C42      1.0000 0.89300  0.74120  0.30070  Biso   1.000  C
  C43      1.0000 0.60700  0.24120  0.19930  Biso   1.000  C
  C44      1.0000 0.10700  0.25880  0.69930  Biso   1.000  C
  H25      1.0000 0.40160  0.75180  0.76510  Biso   1.000  H
  H26      1.0000 0.90160  0.74820  0.26510  Biso   1.000  H
  H27      1.0000 0.59840  0.24820  0.23490  Biso   1.000  H
  H28      1.0000 0.09840  0.25180  0.73490  Biso   1.000  H
  C45      1.0000 0.38440  0.65360  0.82980  Biso   1.000  C
  C46      1.0000 0.88440  0.84640  0.32980  Biso   1.000  C
  C47      1.0000 0.61560  0.34640  0.17020  Biso   1.000  C
  C48      1.0000 0.11560  0.15360  0.67020  Biso   1.000  C
  H29      1.0000 0.38690  0.57340  0.81430  Biso   1.000  H
  H30      1.0000 0.88690  0.92660  0.31430  Biso   1.000  H
  H31      1.0000 0.61310  0.42660  0.18570  Biso   1.000  H
  H32      1.0000 0.11310  0.07340  0.68570  Biso   1.000  H
  C49      1.0000 0.37180  0.66480  0.88210  Biso   1.000  C
  C50      1.0000 0.87180  0.83520  0.38210  Biso   1.000  C
  C51      1.0000 0.62820  0.33520  0.11790  Biso   1.000  C
  C52      1.0000 0.12820  0.16480  0.61790  Biso   1.000  C
  H33      1.0000 0.36700  0.59180  0.90240  Biso   1.000  H
  H34      1.0000 0.86700  0.90820  0.40240  Biso   1.000  H
  H35      1.0000 0.63300  0.40820  0.09760  Biso   1.000  H
  H36      1.0000 0.13300  0.09180  0.59760  Biso   1.000  H
  C53      1.0000 0.50440  0.87440  0.01300  Biso   1.000  C
  C54      1.0000 0.00440  0.62560  0.51300  Biso   1.000  C
  C55      1.0000 0.49560  0.12560  0.98700  Biso   1.000  C
  C56      1.0000 0.99560  0.37440  0.48700  Biso   1.000  C
  H37      1.0000 0.50710  0.78830  0.02200  Biso   1.000  H
  H38      1.0000 0.00710  0.71170  0.52200  Biso   1.000  H
  H39      1.0000 0.49290  0.21170  0.97800  Biso   1.000  H
  H40      1.0000 0.99290  0.28830  0.47800  Biso   1.000  H
  C57      1.0000 0.44380  0.93290  0.00040  Biso   1.000  C
  C58      1.0000 0.94380  0.56710  0.50040  Biso   1.000  C
  C59      1.0000 0.55620  0.06710  0.99960  Biso   1.000  C
  C60      1.0000 0.05620  0.43290  0.49960  Biso   1.000  C
  C61      1.0000 0.43880  0.05800  0.98760  Biso   1.000  C
  C62      1.0000 0.93880  0.44200  0.48760  Biso   1.000  C
  C63      1.0000 0.56120  0.94200  0.01240  Biso   1.000  C
  C64      1.0000 0.06120  0.55800  0.51240  Biso   1.000  C
  H41      1.0000 0.39620  0.09700  0.97920  Biso   1.000  H
  H42      1.0000 0.89620  0.40300  0.47920  Biso   1.000  H
  H43      1.0000 0.60380  0.90300  0.02080  Biso   1.000  H
  H44      1.0000 0.10380  0.59700  0.52080  Biso   1.000  H
  N17      1.0000 0.17740  0.58660  0.02510  Biso   1.000  N
  N18      1.0000 0.67740  0.91340  0.52510  Biso   1.000  N
  N19      1.0000 0.82260  0.41340  0.97490  Biso   1.000  N
  N20      1.0000 0.32260  0.08660  0.47490  Biso   1.000  N
  N21      1.0000 0.20880  0.78700  0.08550  Biso   1.000  N
  N22      1.0000 0.70880  0.71300  0.58550  Biso   1.000  N
  N23      1.0000 0.79120  0.21300  0.91450  Biso   1.000  N
  N24      1.0000 0.29120  0.28700  0.41450  Biso   1.000  N
  N25      1.0000 0.21650  0.89930  0.11240  Biso   1.000  N
  N26      1.0000 0.71650  0.60070  0.61240  Biso   1.000  N
  N27      1.0000 0.78350  0.10070  0.88760  Biso   1.000  N
  N28      1.0000 0.28350  0.39930  0.38760  Biso   1.000  N
  N29      1.0000 0.11910  0.89590  0.05585  Biso   1.000  N
  N30      1.0000 0.61910  0.60410  0.55585  Biso   1.000  N
  N31      1.0000 0.88090  0.10410  0.94415  Biso   1.000  N
  N32      1.0000 0.38090  0.39590  0.44415  Biso   1.000  N
  C65      1.0000 0.16600  0.48060  0.99640  Biso   1.000  C
  C66      1.0000 0.66600  0.01940  0.49640  Biso   1.000  C
  C67      1.0000 0.83400  0.51940  0.00360  Biso   1.000  C
  C68      1.0000 0.33400  0.98060  0.50360  Biso   1.000  C
  H45      1.0000 0.19880  0.41660  0.00230  Biso   1.000  H
  H46      1.0000 0.69880  0.08340  0.50230  Biso   1.000  H
  H47      1.0000 0.80120  0.58340  0.99770  Biso   1.000  H
  H48      1.0000 0.30120  0.91660  0.49770  Biso   1.000  H
  C69      1.0000 0.10760  0.46200  0.95830  Biso   1.000  C
  C70      1.0000 0.60760  0.03800  0.45830  Biso   1.000  C
  C71      1.0000 0.89240  0.53800  0.04170  Biso   1.000  C
  C72      1.0000 0.39240  0.96200  0.54170  Biso   1.000  C
  H49      1.0000 0.10020  0.38660  0.93810  Biso   1.000  H
  H50      1.0000 0.60020  0.11340  0.43810  Biso   1.000  H
  H51      1.0000 0.89980  0.61340  0.06190  Biso   1.000  H
  H52      1.0000 0.39980  0.88660  0.56190  Biso   1.000  H
  C73      1.0000 0.06110  0.55450  0.95040  Biso   1.000  C
  C74      1.0000 0.56110  0.94550  0.45040  Biso   1.000  C
  C75      1.0000 0.93890  0.44550  0.04960  Biso   1.000  C
  C76      1.0000 0.43890  0.05450  0.54960  Biso   1.000  C
  H53      1.0000 0.02030  0.54310  0.92500  Biso   1.000  H
  H54      1.0000 0.52030  0.95690  0.42500  Biso   1.000  H
  H55      1.0000 0.97970  0.45690  0.07500  Biso   1.000  H
  H56      1.0000 0.47970  0.04310  0.57500  Biso   1.000  H
  C77      1.0000 0.07240  0.66450  0.97890  Biso   1.000  C
  C78      1.0000 0.57240  0.83550  0.47890  Biso   1.000  C
  C79      1.0000 0.92760  0.33550  0.02110  Biso   1.000  C
  C80      1.0000 0.42760  0.16450  0.52110  Biso   1.000  C
  H57      1.0000 0.04060  0.73010  0.97260  Biso   1.000  H
  H58      1.0000 0.54060  0.76990  0.47260  Biso   1.000  H
  H59      1.0000 0.95940  0.26990  0.02740  Biso   1.000  H
  H60      1.0000 0.45940  0.23010  0.52740  Biso   1.000  H
  C81      1.0000 0.13060  0.67780  0.01670  Biso   1.000  C
  C82      1.0000 0.63060  0.82220  0.51670  Biso   1.000  C
  C83      1.0000 0.86940  0.32220  0.98330  Biso   1.000  C
  C84      1.0000 0.36940  0.17780  0.48330  Biso   1.000  C
  C85      1.0000 0.15050  0.78540  0.05080  Biso   1.000  C
  C86      1.0000 0.65050  0.71460  0.55080  Biso   1.000  C
  C87      1.0000 0.84950  0.21460  0.94920  Biso   1.000  C
  C88      1.0000 0.34950  0.28540  0.44920  Biso   1.000  C
  C89      1.0000 0.16240  0.96510  0.09390  Biso   1.000  C
  C90      1.0000 0.66240  0.53490  0.59390  Biso   1.000  C
  C91      1.0000 0.83760  0.03490  0.90610  Biso   1.000  C
  C92      1.0000 0.33760  0.46510  0.40610  Biso   1.000  C
  C93      1.0000 0.14780  0.08930  0.11180  Biso   1.000  C
  C94      1.0000 0.64780  0.41070  0.61180  Biso   1.000  C
  C95      1.0000 0.85220  0.91070  0.88820  Biso   1.000  C
  C96      1.0000 0.35220  0.58930  0.38820  Biso   1.000  C
  C97      1.0000 0.09100  0.11300  0.13250  Biso   1.000  C
  C98      1.0000 0.59100  0.38700  0.63250  Biso   1.000  C
  C99      1.0000 0.90900  0.88700  0.86750  Biso   1.000  C
  C100     1.0000 0.40900  0.61300  0.36750  Biso   1.000  C
  H61      1.0000 0.06140  0.04720  0.13690  Biso   1.000  H
  H62      1.0000 0.56140  0.45280  0.63690  Biso   1.000  H
  H63      1.0000 0.93860  0.95280  0.86310  Biso   1.000  H
  H64      1.0000 0.43860  0.54720  0.36310  Biso   1.000  H
  C101     1.0000 0.07770  0.23450  0.14690  Biso   1.000  C
  C102     1.0000 0.57770  0.26550  0.64690  Biso   1.000  C
  C103     1.0000 0.92230  0.76550  0.85310  Biso   1.000  C
  C104     1.0000 0.42230  0.73450  0.35310  Biso   1.000  C
  H65      1.0000 0.03930  0.25080  0.16180  Biso   1.000  H
  H66      1.0000 0.53930  0.24920  0.66180  Biso   1.000  H
  H67      1.0000 0.96070  0.74920  0.83820  Biso   1.000  H
  H68      1.0000 0.46070  0.75080  0.33820  Biso   1.000  H
  C105     1.0000 0.11910  0.33090  0.13970  Biso   1.000  C
  C106     1.0000 0.61910  0.16910  0.63970  Biso   1.000  C
  C107     1.0000 0.88090  0.66910  0.86030  Biso   1.000  C
  C108     1.0000 0.38090  0.83090  0.36030  Biso   1.000  C
  H69      1.0000 0.10860  0.41380  0.14830  Biso   1.000  H
  H70      1.0000 0.60860  0.08620  0.64830  Biso   1.000  H
  H71      1.0000 0.89140  0.58620  0.85170  Biso   1.000  H
  H72      1.0000 0.39140  0.91380  0.35170  Biso   1.000  H
  C109     1.0000 0.17560  0.30690  0.12030  Biso   1.000  C
  C110     1.0000 0.67560  0.19310  0.62030  Biso   1.000  C
  C111     1.0000 0.82440  0.69310  0.87970  Biso   1.000  C
  C112     1.0000 0.32440  0.80690  0.37970  Biso   1.000  C
  H73      1.0000 0.20520  0.37310  0.11630  Biso   1.000  H
  H74      1.0000 0.70520  0.12690  0.61630  Biso   1.000  H
  H75      1.0000 0.79480  0.62690  0.88370  Biso   1.000  H
  H76      1.0000 0.29480  0.87310  0.38370  Biso   1.000  H
  C113     1.0000 0.19000  0.18700  0.10650  Biso   1.000  C
  C114     1.0000 0.69000  0.31300  0.60650  Biso   1.000  C
  C115     1.0000 0.81000  0.81300  0.89350  Biso   1.000  C
  C116     1.0000 0.31000  0.68700  0.39350  Biso   1.000  C
  H77      1.0000 0.22970  0.17150  0.09310  Biso   1.000  H
  H78      1.0000 0.72970  0.32850  0.59310  Biso   1.000  H
  H79      1.0000 0.77030  0.82850  0.90690  Biso   1.000  H
  H80      1.0000 0.27030  0.67150  0.40690  Biso   1.000  H
  C117     1.0000 0.99820  0.90300  0.03620  Biso   1.000  C
  C118     1.0000 0.49820  0.59700  0.53620  Biso   1.000  C
  C119     1.0000 0.00180  0.09700  0.96380  Biso   1.000  C
  C120     1.0000 0.50180  0.40300  0.46380  Biso   1.000  C
  H81      1.0000 0.99750  0.83740  0.06150  Biso   1.000  H
  H82      1.0000 0.49750  0.66260  0.56150  Biso   1.000  H
  H83      1.0000 0.00250  0.16260  0.93850  Biso   1.000  H
  H84      1.0000 0.50250  0.33740  0.43850  Biso   1.000  H
  C121     1.0000 0.05750  0.94600  0.02590  Biso   1.000  C
  C122     1.0000 0.55750  0.55400  0.52590  Biso   1.000  C
  C123     1.0000 0.94250  0.05400  0.97410  Biso   1.000  C
  C124     1.0000 0.44250  0.44600  0.47410  Biso   1.000  C
  C125     1.0000 0.06080  0.04350  0.99070  Biso   1.000  C
  C126     1.0000 0.56080  0.45650  0.49070  Biso   1.000  C
  C127     1.0000 0.93920  0.95650  0.00930  Biso   1.000  C
  C128     1.0000 0.43920  0.54350  0.50930  Biso   1.000  C
  H85      1.0000 0.10270  0.07310  0.98500  Biso   1.000  H
  H86      1.0000 0.60270  0.42690  0.48500  Biso   1.000  H
  H87      1.0000 0.89730  0.92690  0.01500  Biso   1.000  H
  H88      1.0000 0.39730  0.57310  0.51500  Biso   1.000  H
  N33      1.0000 0.26250  0.58380  0.15900  Biso   1.000  N
  N34      1.0000 0.76250  0.91620  0.65900  Biso   1.000  N
  N35      1.0000 0.73750  0.41620  0.84100  Biso   1.000  N
  N36      1.0000 0.23750  0.08380  0.34100  Biso   1.000  N
  N37      1.0000 0.33490  0.50350  0.09200  Biso   1.000  N
  N38      1.0000 0.83490  0.99650  0.59200  Biso   1.000  N
  N39      1.0000 0.66510  0.49650  0.90800  Biso   1.000  N
  N40      1.0000 0.16510  0.00350  0.40800  Biso   1.000  N
  C129     1.0000 0.21960  0.62770  0.18860  Biso   1.000  C
  C130     1.0000 0.71960  0.87230  0.68860  Biso   1.000  C
  C131     1.0000 0.78040  0.37230  0.81140  Biso   1.000  C
  C132     1.0000 0.28040  0.12770  0.31140  Biso   1.000  C
  H89      1.0000 0.18840  0.69070  0.17420  Biso   1.000  H
  H90      1.0000 0.68840  0.80930  0.67420  Biso   1.000  H
  H91      1.0000 0.81160  0.30930  0.82580  Biso   1.000  H
  H92      1.0000 0.31160  0.19070  0.32580  Biso   1.000  H
  C133     1.0000 0.22090  0.58040  0.24090  Biso   1.000  C
  C134     1.0000 0.72090  0.91960  0.74090  Biso   1.000  C
  C135     1.0000 0.77910  0.41960  0.75910  Biso   1.000  C
  C136     1.0000 0.27910  0.08040  0.25910  Biso   1.000  C
  H93      1.0000 0.19130  0.61020  0.26270  Biso   1.000  H
  H94      1.0000 0.69130  0.88980  0.76270  Biso   1.000  H
  H95      1.0000 0.80870  0.38980  0.73730  Biso   1.000  H
  H96      1.0000 0.30870  0.11020  0.23730  Biso   1.000  H
  C137     1.0000 0.26910  0.48520  0.25970  Biso   1.000  C
  C138     1.0000 0.76910  0.01480  0.75970  Biso   1.000  C
  C139     1.0000 0.73090  0.51480  0.74030  Biso   1.000  C
  C140     1.0000 0.23090  0.98520  0.24030  Biso   1.000  C
  H97      1.0000 0.27040  0.44800  0.29420  Biso   1.000  H
  H98      1.0000 0.77040  0.05200  0.79420  Biso   1.000  H
  H99      1.0000 0.72960  0.55200  0.70580  Biso   1.000  H
  H100     1.0000 0.22960  0.94800  0.20580  Biso   1.000  H
  C141     1.0000 0.31140  0.44860  0.22980  Biso   1.000  C
  C142     1.0000 0.81140  0.05140  0.72980  Biso   1.000  C
  C143     1.0000 0.68860  0.55140  0.77020  Biso   1.000  C
  C144     1.0000 0.18860  0.94860  0.27020  Biso   1.000  C
  H101     1.0000 0.34440  0.38840  0.24390  Biso   1.000  H
  H102     1.0000 0.84440  0.11160  0.74390  Biso   1.000  H
  H103     1.0000 0.65560  0.61160  0.75610  Biso   1.000  H
  H104     1.0000 0.15560  0.88840  0.25610  Biso   1.000  H
  C145     1.0000 0.30910  0.49510  0.17880  Biso   1.000  C
  C146     1.0000 0.80910  0.00490  0.67880  Biso   1.000  C
  C147     1.0000 0.69090  0.50490  0.82120  Biso   1.000  C
  C148     1.0000 0.19090  0.99510  0.32120  Biso   1.000  C
  C149     1.0000 0.35070  0.45270  0.14040  Biso   1.000  C
  C150     1.0000 0.85070  0.04730  0.64040  Biso   1.000  C
  C151     1.0000 0.64930  0.54730  0.85960  Biso   1.000  C
  C152     1.0000 0.14930  0.95270  0.35960  Biso   1.000  C
  C153     1.0000 0.40220  0.36760  0.15450  Biso   1.000  C
  C154     1.0000 0.90220  0.13240  0.65450  Biso   1.000  C
  C155     1.0000 0.59780  0.63240  0.84550  Biso   1.000  C
  C156     1.0000 0.09780  0.86760  0.34550  Biso   1.000  C
  H105     1.0000 0.41140  0.33240  0.18990  Biso   1.000  H
  H106     1.0000 0.91140  0.16760  0.68990  Biso   1.000  H
  H107     1.0000 0.58860  0.66760  0.81010  Biso   1.000  H
  H108     1.0000 0.08860  0.83240  0.31010  Biso   1.000  H
  C157     1.0000 0.43830  0.33530  0.11900  Biso   1.000  C
  C158     1.0000 0.93830  0.16470  0.61900  Biso   1.000  C
  C159     1.0000 0.56170  0.66470  0.88100  Biso   1.000  C
  C160     1.0000 0.06170  0.83530  0.38100  Biso   1.000  C
  H109     1.0000 0.47560  0.28130  0.12910  Biso   1.000  H
  H110     1.0000 0.97560  0.21870  0.62910  Biso   1.000  H
  H111     1.0000 0.52440  0.71870  0.87090  Biso   1.000  H
  H112     1.0000 0.02440  0.78130  0.37090  Biso   1.000  H
  C161     1.0000 0.42160  0.38060  0.06680  Biso   1.000  C
  C162     1.0000 0.92160  0.11940  0.56680  Biso   1.000  C
  C163     1.0000 0.57840  0.61940  0.93320  Biso   1.000  C
  C164     1.0000 0.07840  0.88060  0.43320  Biso   1.000  C
  H113     1.0000 0.44540  0.35440  0.03990  Biso   1.000  H
  H114     1.0000 0.94540  0.14560  0.53990  Biso   1.000  H
  H115     1.0000 0.55460  0.64560  0.96010  Biso   1.000  H
  H116     1.0000 0.05460  0.85440  0.46010  Biso   1.000  H
  C165     1.0000 0.36800  0.46770  0.05380  Biso   1.000  C
  C166     1.0000 0.86800  0.03230  0.55380  Biso   1.000  C
  C167     1.0000 0.63200  0.53230  0.94620  Biso   1.000  C
  C168     1.0000 0.13200  0.96770  0.44620  Biso   1.000  C
  H117     1.0000 0.35590  0.50010  0.01800  Biso   1.000  H
  H118     1.0000 0.85590  0.99990  0.51800  Biso   1.000  H
  H119     1.0000 0.64410  0.49990  0.98200  Biso   1.000  H
  H120     1.0000 0.14410  0.00010  0.48200  Biso   1.000  H
  Cl1      1.0000 0.03710  0.72030  0.17496  Biso   1.000  Cl
  Cl2      1.0000 0.53710  0.77970  0.67496  Biso   1.000  Cl
  Cl3      1.0000 0.96290  0.27970  0.82504  Biso   1.000  Cl
  Cl4      1.0000 0.46290  0.22030  0.32504  Biso   1.000  Cl
  O1       1.0000 0.08240  0.81820  0.16770  Biso   1.000  O
  O2       1.0000 0.58240  0.68180  0.66770  Biso   1.000  O
  O3       1.0000 0.91760  0.18180  0.83230  Biso   1.000  O
  O4       1.0000 0.41760  0.31820  0.33230  Biso   1.000  O
  O5       1.0000 0.97070  0.75400  0.15100  Biso   1.000  O
  O6       1.0000 0.47070  0.74600  0.65100  Biso   1.000  O
  O7       1.0000 0.02930  0.24600  0.84900  Biso   1.000  O
  O8       1.0000 0.52930  0.25400  0.34900  Biso   1.000  O
  O9       1.0000 0.05180  0.61640  0.14840  Biso   1.000  O
  O10      1.0000 0.55180  0.88360  0.64840  Biso   1.000  O
  O11      1.0000 0.94820  0.38360  0.85160  Biso   1.000  O
  O12      1.0000 0.44820  0.11640  0.35160  Biso   1.000  O
  O13      1.0000 0.04230  0.70270  0.23030  Biso   1.000  O
  O14      1.0000 0.54230  0.79730  0.73030  Biso   1.000  O
  O15      1.0000 0.95770  0.29730  0.76970  Biso   1.000  O
  O16      1.0000 0.45770  0.20270  0.26970  Biso   1.000  O
  Cl5      1.0000 0.75007  0.87960  0.02708  Biso   1.000  Cl
  Cl6      1.0000 0.25007  0.62040  0.52708  Biso   1.000  Cl
  Cl7      1.0000 0.24993  0.12040  0.97292  Biso   1.000  Cl
  Cl8      1.0000 0.74993  0.37960  0.47292  Biso   1.000  Cl
  O17      1.0000 0.72020  0.90990  0.07200  Biso   1.000  O
  O18      1.0000 0.22020  0.59010  0.57200  Biso   1.000  O
  O19      1.0000 0.27980  0.09010  0.92800  Biso   1.000  O
  O20      1.0000 0.77980  0.40990  0.42800  Biso   1.000  O
  O21      1.0000 0.80840  0.80750  0.04350  Biso   1.000  O
  O22      1.0000 0.30840  0.69250  0.54350  Biso   1.000  O
  O23      1.0000 0.19160  0.19250  0.95650  Biso   1.000  O
  O24      1.0000 0.69160  0.30750  0.45650  Biso   1.000  O
  O25      1.0000 0.76800  0.99010  0.00370  Biso   1.000  O
  O26      1.0000 0.26800  0.50990  0.50370  Biso   1.000  O
  O27      1.0000 0.23200  0.00990  0.99630  Biso   1.000  O
  O28      1.0000 0.73200  0.49010  0.49630  Biso   1.000  O
  O29      1.0000 0.70400  0.80660  0.98940  Biso   1.000  O
  O30      1.0000 0.20400  0.69340  0.48940  Biso   1.000  O
  O31      1.0000 0.29600  0.19340  0.01060  Biso   1.000  O
  O32      1.0000 0.79600  0.30660  0.51060  Biso   1.000  O
  O33      1.0000 0.94050  0.35420  0.19980  Biso   1.000  O
  O34      1.0000 0.44050  0.14580  0.69980  Biso   1.000  O
  O35      1.0000 0.05950  0.64580  0.80020  Biso   1.000  O
  O36      1.0000 0.55950  0.85420  0.30020  Biso   1.000  O
  N41      1.0000 0.84920  0.47050  0.17400  Biso   1.000  N
  N42      1.0000 0.34920  0.02950  0.67400  Biso   1.000  N
  N43      1.0000 0.15080  0.52950  0.82600  Biso   1.000  N
  N44      1.0000 0.65080  0.97050  0.32600  Biso   1.000  N
  C169     1.0000 0.91270  0.45230  0.19000  Biso   1.000  C
  C170     1.0000 0.41270  0.04770  0.69000  Biso   1.000  C
  C171     1.0000 0.08730  0.54770  0.81000  Biso   1.000  C
  C172     1.0000 0.58730  0.95230  0.31000  Biso   1.000  C
  H121     1.0000 0.94030  0.52440  0.19450  Biso   1.000  H
  H122     1.0000 0.44030  0.97560  0.69450  Biso   1.000  H
  H123     1.0000 0.05970  0.47560  0.80550  Biso   1.000  H
  H124     1.0000 0.55970  0.02440  0.30550  Biso   1.000  H
  C173     1.0000 0.80480  0.36900  0.16580  Biso   1.000  C
  C174     1.0000 0.30480  0.13100  0.66580  Biso   1.000  C
  C175     1.0000 0.19520  0.63100  0.83420  Biso   1.000  C
  C176     1.0000 0.69520  0.86900  0.33420  Biso   1.000  C
  H125     1.0000 0.82710  0.29670  0.15370  Biso   1.000  H
  H126     1.0000 0.32710  0.20330  0.65370  Biso   1.000  H
  H127     1.0000 0.17290  0.70330  0.84630  Biso   1.000  H
  H128     1.0000 0.67290  0.79670  0.34630  Biso   1.000  H
  H129     1.0000 0.76550  0.39080  0.13810  Biso   1.000  H
  H130     1.0000 0.26550  0.10920  0.63810  Biso   1.000  H
  H131     1.0000 0.23450  0.60920  0.86190  Biso   1.000  H
  H132     1.0000 0.73450  0.89080  0.36190  Biso   1.000  H
  H133     1.0000 0.79070  0.34930  0.19990  Biso   1.000  H
  H134     1.0000 0.29070  0.15070  0.69990  Biso   1.000  H
  H135     1.0000 0.20930  0.65070  0.80010  Biso   1.000  H
  H136     1.0000 0.70930  0.84930  0.30010  Biso   1.000  H
  C177     1.0000 0.82070  0.59200  0.16200  Biso   1.000  C
  C178     1.0000 0.32070  0.90800  0.66200  Biso   1.000  C
  C179     1.0000 0.17930  0.40800  0.83800  Biso   1.000  C
  C180     1.0000 0.67930  0.09200  0.33800  Biso   1.000  C
  H137     1.0000 0.85610  0.65490  0.16930  Biso   1.000  H
  H138     1.0000 0.35610  0.84510  0.66930  Biso   1.000  H
  H139     1.0000 0.14390  0.34510  0.83070  Biso   1.000  H
  H140     1.0000 0.64390  0.15490  0.33070  Biso   1.000  H
  H141     1.0000 0.78780  0.60810  0.18470  Biso   1.000  H
  H142     1.0000 0.28780  0.89190  0.68470  Biso   1.000  H
  H143     1.0000 0.21220  0.39190  0.81530  Biso   1.000  H
  H144     1.0000 0.71220  0.10810  0.31530  Biso   1.000  H
  H145     1.0000 0.79860  0.59570  0.12360  Biso   1.000  H
  H146     1.0000 0.29860  0.90430  0.62360  Biso   1.000  H
  H147     1.0000 0.20140  0.40430  0.87640  Biso   1.000  H
  H148     1.0000 0.70140  0.09570  0.37640  Biso   1.000  H
  O37      1.0000 0.30290  0.47920  0.73290  Biso   1.000  O
  O38      1.0000 0.80290  0.02080  0.23290  Biso   1.000  O
  O39      1.0000 0.69710  0.52080  0.26710  Biso   1.000  O
  O40      1.0000 0.19710  0.97920  0.76710  Biso   1.000  O
  N45      1.0000 0.37570  0.45200  0.67570  Biso   1.000  N
  N46      1.0000 0.87570  0.04800  0.17570  Biso   1.000  N
  N47      1.0000 0.62430  0.54800  0.32430  Biso   1.000  N
  N48      1.0000 0.12430  0.95200  0.82430  Biso   1.000  N
  C181     1.0000 0.31610  0.46280  0.68980  Biso   1.000  C
  C182     1.0000 0.81610  0.03720  0.18980  Biso   1.000  C
  C183     1.0000 0.68390  0.53720  0.31020  Biso   1.000  C
  C184     1.0000 0.18390  0.96280  0.81020  Biso   1.000  C
  H149     1.0000 0.27870  0.45620  0.66060  Biso   1.000  H
  H150     1.0000 0.77870  0.04380  0.16060  Biso   1.000  H
  H151     1.0000 0.72130  0.54380  0.33940  Biso   1.000  H
  H152     1.0000 0.22130  0.95620  0.83940  Biso   1.000  H
  C185     1.0000 0.43150  0.46080  0.71530  Biso   1.000  C
  C186     1.0000 0.93150  0.03920  0.21530  Biso   1.000  C
  C187     1.0000 0.56850  0.53920  0.28470  Biso   1.000  C
  C188     1.0000 0.06850  0.96080  0.78470  Biso   1.000  C
  H153     1.0000 0.45660  0.38240  0.71740  Biso   1.000  H
  H154     1.0000 0.95660  0.11760  0.21740  Biso   1.000  H
  H155     1.0000 0.54340  0.61760  0.28260  Biso   1.000  H
  H156     1.0000 0.04340  0.88240  0.78260  Biso   1.000  H
  H157     1.0000 0.41870  0.47700  0.75020  Biso   1.000  H
  H158     1.0000 0.91870  0.02300  0.25020  Biso   1.000  H
  H159     1.0000 0.58130  0.52300  0.24980  Biso   1.000  H
  H160     1.0000 0.08130  0.97700  0.74980  Biso   1.000  H
  H161     1.0000 0.45960  0.52920  0.70680  Biso   1.000  H
  H162     1.0000 0.95960  0.97080  0.20680  Biso   1.000  H
  H163     1.0000 0.54040  0.47080  0.29320  Biso   1.000  H
  H164     1.0000 0.04040  0.02920  0.79320  Biso   1.000  H
  C189     1.0000 0.38680  0.43600  0.62910  Biso   1.000  C
  C190     1.0000 0.88680  0.06400  0.12910  Biso   1.000  C
  C191     1.0000 0.61320  0.56400  0.37090  Biso   1.000  C
  C192     1.0000 0.11320  0.93600  0.87090  Biso   1.000  C
  H165     1.0000 0.36140  0.36340  0.61240  Biso   1.000  H
  H166     1.0000 0.86140  0.13660  0.11240  Biso   1.000  H
  H167     1.0000 0.63860  0.63660  0.38760  Biso   1.000  H
  H168     1.0000 0.13860  0.86340  0.88760  Biso   1.000  H
  H169     1.0000 0.43460  0.42090  0.63130  Biso   1.000  H
  H170     1.0000 0.93460  0.07910  0.13130  Biso   1.000  H
  H171     1.0000 0.56540  0.57910  0.36870  Biso   1.000  H
  H172     1.0000 0.06540  0.92090  0.86870  Biso   1.000  H
  H173     1.0000 0.37300  0.51000  0.60700  Biso   1.000  H
  H174     1.0000 0.87300  0.99000  0.10700  Biso   1.000  H
  H175     1.0000 0.62700  0.49000  0.39300  Biso   1.000  H
  H176     1.0000 0.12700  0.01000  0.89300  Biso   1.000  H
  O41      1.0000 0.58380  0.63050  0.07270  Biso   1.000  O
  O42      1.0000 0.08380  0.86950  0.57270  Biso   1.000  O
  O43      1.0000 0.41620  0.36950  0.92730  Biso   1.000  O
  O44      1.0000 0.91620  0.13050  0.42730  Biso   1.000  O
  C193     1.0000 0.62510  0.67500  0.10220  Biso   1.000  C
  C194     1.0000 0.12510  0.82500  0.60220  Biso   1.000  C
  C195     1.0000 0.37490  0.32500  0.89780  Biso   1.000  C
  C196     1.0000 0.87490  0.17500  0.39780  Biso   1.000  C
  H177     1.0000 0.66990  0.67910  0.09690  Biso   1.000  H
  H178     1.0000 0.16990  0.82090  0.59690  Biso   1.000  H
  H179     1.0000 0.33010  0.32090  0.90310  Biso   1.000  H
  H180     1.0000 0.83010  0.17910  0.40310  Biso   1.000  H
  N49      1.0000 0.60710  0.72000  0.14310  Biso   1.000  N
  N50      1.0000 0.10710  0.78000  0.64310  Biso   1.000  N
  N51      1.0000 0.39290  0.28000  0.85690  Biso   1.000  N
  N52      1.0000 0.89290  0.22000  0.35690  Biso   1.000  N
  C197     1.0000 0.65600  0.76600  0.17470  Biso   1.000  C
  C198     1.0000 0.15600  0.73400  0.67470  Biso   1.000  C
  C199     1.0000 0.34400  0.23400  0.82530  Biso   1.000  C
  C200     1.0000 0.84400  0.26600  0.32530  Biso   1.000  C
  H181     1.0000 0.69730  0.73730  0.16470  Biso   1.000  H
  H182     1.0000 0.19730  0.76270  0.66470  Biso   1.000  H
  H183     1.0000 0.30270  0.26270  0.83530  Biso   1.000  H
  H184     1.0000 0.80270  0.23730  0.33530  Biso   1.000  H
  H185     1.0000 0.65490  0.73980  0.21190  Biso   1.000  H
  H186     1.0000 0.15490  0.76020  0.71190  Biso   1.000  H
  H187     1.0000 0.34510  0.26020  0.78810  Biso   1.000  H
  H188     1.0000 0.84510  0.23980  0.28810  Biso   1.000  H
  H189     1.0000 0.65340  0.85720  0.17240  Biso   1.000  H
  H190     1.0000 0.15340  0.64280  0.67240  Biso   1.000  H
  H191     1.0000 0.34660  0.14280  0.82760  Biso   1.000  H
  H192     1.0000 0.84660  0.35720  0.32760  Biso   1.000  H
  C201     1.0000 0.54410  0.70500  0.15050  Biso   1.000  C
  C202     1.0000 0.04410  0.79500  0.65050  Biso   1.000  C
  C203     1.0000 0.45590  0.29500  0.84950  Biso   1.000  C
  C204     1.0000 0.95590  0.20500  0.34950  Biso   1.000  C
  H193     1.0000 0.52400  0.63250  0.12990  Biso   1.000  H
  H194     1.0000 0.02400  0.86750  0.62990  Biso   1.000  H
  H195     1.0000 0.47600  0.36750  0.87010  Biso   1.000  H
  H196     1.0000 0.97600  0.13250  0.37010  Biso   1.000  H
  H197     1.0000 0.51780  0.77980  0.13760  Biso   1.000  H
  H198     1.0000 0.01780  0.72020  0.63760  Biso   1.000  H
  H199     1.0000 0.48220  0.22020  0.86240  Biso   1.000  H
  H200     1.0000 0.98220  0.27980  0.36240  Biso   1.000  H
  H201     1.0000 0.54450  0.69300  0.18920  Biso   1.000  H
  H202     1.0000 0.04450  0.80700  0.68920  Biso   1.000  H
  H203     1.0000 0.45550  0.30700  0.81080  Biso   1.000  H
  H204     1.0000 0.95550  0.19300  0.31080  Biso   1.000  H
