data_image0
_cell_length_a       7.141
_cell_length_b       14.509
_cell_length_c       18.983
_cell_angle_alpha    90
_cell_angle_beta     90
_cell_angle_gamma    90

_symmetry_space_group_name_H-M    "P 1"
_symmetry_int_tables_number       1

loop_
  _symmetry_equiv_pos_as_xyz
  'x, y, z'

loop_
  _atom_site_label
  _atom_site_occupancy
  _atom_site_fract_x
  _atom_site_fract_y
  _atom_site_fract_z
  _atom_site_thermal_displace_type
  _atom_site_B_iso_or_equiv
  _atom_site_type_symbol
  Cu1      1.0000 0.15981  0.25914  0.13046  Biso   1.000  Cu
  Cu2      1.0000 0.65981  0.25914  0.36954  Biso   1.000  Cu
  Cu3      1.0000 0.34019  0.75914  0.13046  Biso   1.000  Cu
  Cu4      1.0000 0.15981  0.24086  0.63046  Biso   1.000  Cu
  Cu5      1.0000 0.84019  0.74086  0.86954  Biso   1.000  Cu
  Cu6      1.0000 0.34019  0.74086  0.63046  Biso   1.000  Cu
  Cu7      1.0000 0.65981  0.24086  0.86954  Biso   1.000  Cu
  Cu8      1.0000 0.84019  0.75914  0.36954  Biso   1.000  Cu
  O1       1.0000 0.02560  0.20970  0.04700  Biso   1.000  O
  O2       1.0000 0.52560  0.20970  0.45300  Biso   1.000  O
  O3       1.0000 0.47440  0.70970  0.04700  Biso   1.000  O
  O4       1.0000 0.02560  0.29030  0.54700  Biso   1.000  O
  O5       1.0000 0.97440  0.79030  0.95300  Biso   1.000  O
  O6       1.0000 0.47440  0.79030  0.54700  Biso   1.000  O
  O7       1.0000 0.52560  0.29030  0.95300  Biso   1.000  O
  O8       1.0000 0.97440  0.70970  0.45300  Biso   1.000  O
  H1       1.0000 0.90900  0.17600  0.05700  Biso   1.000  H
  H2       1.0000 0.40900  0.17600  0.44300  Biso   1.000  H
  H3       1.0000 0.59100  0.67600  0.05700  Biso   1.000  H
  H4       1.0000 0.90900  0.32400  0.55700  Biso   1.000  H
  H5       1.0000 0.09100  0.82400  0.94300  Biso   1.000  H
  H6       1.0000 0.59100  0.82400  0.55700  Biso   1.000  H
  H7       1.0000 0.40900  0.32400  0.94300  Biso   1.000  H
  H8       1.0000 0.09100  0.67600  0.44300  Biso   1.000  H
  H9       1.0000 0.98500  0.25600  0.01300  Biso   1.000  H
  H10      1.0000 0.48500  0.25600  0.48700  Biso   1.000  H
  H11      1.0000 0.51500  0.75600  0.01300  Biso   1.000  H
  H12      1.0000 0.98500  0.24400  0.51300  Biso   1.000  H
  H13      1.0000 0.01500  0.74400  0.98700  Biso   1.000  H
  H14      1.0000 0.51500  0.74400  0.51300  Biso   1.000  H
  H15      1.0000 0.48500  0.24400  0.98700  Biso   1.000  H
  H16      1.0000 0.01500  0.75600  0.48700  Biso   1.000  H
  O9       1.0000 0.21000  0.38390  0.08923  Biso   1.000  O
  O10      1.0000 0.71000  0.38390  0.41077  Biso   1.000  O
  O11      1.0000 0.29000  0.88390  0.08923  Biso   1.000  O
  O12      1.0000 0.21000  0.11610  0.58923  Biso   1.000  O
  O13      1.0000 0.79000  0.61610  0.91077  Biso   1.000  O
  O14      1.0000 0.29000  0.61610  0.58923  Biso   1.000  O
  O15      1.0000 0.71000  0.11610  0.91077  Biso   1.000  O
  O16      1.0000 0.79000  0.88390  0.41077  Biso   1.000  O
  H17      1.0000 0.16300  0.43200  0.12000  Biso   1.000  H
  H18      1.0000 0.66300  0.43200  0.38000  Biso   1.000  H
  H19      1.0000 0.33700  0.93200  0.12000  Biso   1.000  H
  H20      1.0000 0.16300  0.06800  0.62000  Biso   1.000  H
  H21      1.0000 0.83700  0.56800  0.88000  Biso   1.000  H
  H22      1.0000 0.33700  0.56800  0.62000  Biso   1.000  H
  H23      1.0000 0.66300  0.06800  0.88000  Biso   1.000  H
  H24      1.0000 0.83700  0.93200  0.38000  Biso   1.000  H
  H25      1.0000 0.17800  0.40400  0.04220  Biso   1.000  H
  H26      1.0000 0.67800  0.40400  0.45780  Biso   1.000  H
  H27      1.0000 0.32200  0.90400  0.04220  Biso   1.000  H
  H28      1.0000 0.17800  0.09600  0.54220  Biso   1.000  H
  H29      1.0000 0.82200  0.59600  0.95780  Biso   1.000  H
  H30      1.0000 0.32200  0.59600  0.54220  Biso   1.000  H
  H31      1.0000 0.67800  0.09600  0.95780  Biso   1.000  H
  H32      1.0000 0.82200  0.90400  0.45780  Biso   1.000  H
  O17      1.0000 0.24840  0.30970  0.22130  Biso   1.000  O
  O18      1.0000 0.74840  0.30970  0.27870  Biso   1.000  O
  O19      1.0000 0.25160  0.80970  0.22130  Biso   1.000  O
  O20      1.0000 0.24840  0.19030  0.72130  Biso   1.000  O
  O21      1.0000 0.75160  0.69030  0.77870  Biso   1.000  O
  O22      1.0000 0.25160  0.69030  0.72130  Biso   1.000  O
  O23      1.0000 0.74840  0.19030  0.77870  Biso   1.000  O
  O24      1.0000 0.75160  0.80970  0.27870  Biso   1.000  O
  O25      1.0000 0.26170  0.28300  0.33715  Biso   1.000  O
  O26      1.0000 0.76170  0.28300  0.16285  Biso   1.000  O
  O27      1.0000 0.23830  0.78300  0.33715  Biso   1.000  O
  O28      1.0000 0.26170  0.21700  0.83715  Biso   1.000  O
  O29      1.0000 0.73830  0.71700  0.66285  Biso   1.000  O
  O30      1.0000 0.23830  0.71700  0.83715  Biso   1.000  O
  O31      1.0000 0.76170  0.21700  0.66285  Biso   1.000  O
  O32      1.0000 0.73830  0.78300  0.16285  Biso   1.000  O
  O33      1.0000 0.92610  0.19020  0.41368  Biso   1.000  O
  O34      1.0000 0.42610  0.19020  0.08632  Biso   1.000  O
  O35      1.0000 0.57390  0.69020  0.41368  Biso   1.000  O
  O36      1.0000 0.92610  0.30980  0.91368  Biso   1.000  O
  O37      1.0000 0.07390  0.80980  0.58632  Biso   1.000  O
  O38      1.0000 0.57390  0.80980  0.91368  Biso   1.000  O
  O39      1.0000 0.42610  0.30980  0.58632  Biso   1.000  O
  O40      1.0000 0.07390  0.69020  0.08632  Biso   1.000  O
  O41      1.0000 0.16910  0.09610  0.43270  Biso   1.000  O
  O42      1.0000 0.66910  0.09610  0.06730  Biso   1.000  O
  O43      1.0000 0.33090  0.59610  0.43270  Biso   1.000  O
  O44      1.0000 0.16910  0.40390  0.93270  Biso   1.000  O
  O45      1.0000 0.83090  0.90390  0.56730  Biso   1.000  O
  O46      1.0000 0.33090  0.90390  0.93270  Biso   1.000  O
  O47      1.0000 0.66910  0.40390  0.56730  Biso   1.000  O
  O48      1.0000 0.83090  0.59610  0.06730  Biso   1.000  O
  N1       1.0000 0.09680  0.14950  0.19525  Biso   1.000  N
  N2       1.0000 0.59680  0.14950  0.30475  Biso   1.000  N
  N3       1.0000 0.40320  0.64950  0.19525  Biso   1.000  N
  N4       1.0000 0.09680  0.35050  0.69525  Biso   1.000  N
  N5       1.0000 0.90320  0.85050  0.80475  Biso   1.000  N
  N6       1.0000 0.40320  0.85050  0.69525  Biso   1.000  N
  N7       1.0000 0.59680  0.35050  0.80475  Biso   1.000  N
  N8       1.0000 0.90320  0.64950  0.30475  Biso   1.000  N
  N9       1.0000 0.98780  0.02760  0.30056  Biso   1.000  N
  N10      1.0000 0.48780  0.02760  0.19944  Biso   1.000  N
  N11      1.0000 0.51220  0.52760  0.30056  Biso   1.000  N
  N12      1.0000 0.98780  0.47240  0.80056  Biso   1.000  N
  N13      1.0000 0.01220  0.97240  0.69944  Biso   1.000  N
  N14      1.0000 0.51220  0.97240  0.80056  Biso   1.000  N
  N15      1.0000 0.48780  0.47240  0.69944  Biso   1.000  N
  N16      1.0000 0.01220  0.52760  0.19944  Biso   1.000  N
  C1       1.0000 0.02970  0.06590  0.17931  Biso   1.000  C
  C2       1.0000 0.52970  0.06590  0.32069  Biso   1.000  C
  C3       1.0000 0.47030  0.56590  0.17931  Biso   1.000  C
  C4       1.0000 0.02970  0.43410  0.67931  Biso   1.000  C
  C5       1.0000 0.97030  0.93410  0.82069  Biso   1.000  C
  C6       1.0000 0.47030  0.93410  0.67931  Biso   1.000  C
  C7       1.0000 0.52970  0.43410  0.82069  Biso   1.000  C
  C8       1.0000 0.97030  0.56590  0.32069  Biso   1.000  C
  H33      1.0000 0.01760  0.04860  0.13240  Biso   1.000  H
  H34      1.0000 0.51760  0.04860  0.36760  Biso   1.000  H
  H35      1.0000 0.48240  0.54860  0.13240  Biso   1.000  H
  H36      1.0000 0.01760  0.45140  0.63240  Biso   1.000  H
  H37      1.0000 0.98240  0.95140  0.86760  Biso   1.000  H
  H38      1.0000 0.48240  0.95140  0.63240  Biso   1.000  H
  H39      1.0000 0.51760  0.45140  0.86760  Biso   1.000  H
  H40      1.0000 0.98240  0.54860  0.36760  Biso   1.000  H
  C9       1.0000 0.97770  0.00470  0.23220  Biso   1.000  C
  C10      1.0000 0.47770  0.00470  0.26780  Biso   1.000  C
  C11      1.0000 0.52230  0.50470  0.23220  Biso   1.000  C
  C12      1.0000 0.97770  0.49530  0.73220  Biso   1.000  C
  C13      1.0000 0.02230  0.99530  0.76780  Biso   1.000  C
  C14      1.0000 0.52230  0.99530  0.73220  Biso   1.000  C
  C15      1.0000 0.47770  0.49530  0.76780  Biso   1.000  C
  C16      1.0000 0.02230  0.50470  0.26780  Biso   1.000  C
  H41      1.0000 0.93490  0.94630  0.21990  Biso   1.000  H
  H42      1.0000 0.43490  0.94630  0.28010  Biso   1.000  H
  H43      1.0000 0.56510  0.44630  0.21990  Biso   1.000  H
  H44      1.0000 0.93490  0.55370  0.71990  Biso   1.000  H
  H45      1.0000 0.06510  0.05370  0.78010  Biso   1.000  H
  H46      1.0000 0.56510  0.05370  0.71990  Biso   1.000  H
  H47      1.0000 0.43490  0.55370  0.78010  Biso   1.000  H
  H48      1.0000 0.06510  0.44630  0.28010  Biso   1.000  H
  C17      1.0000 0.05480  0.11140  0.31646  Biso   1.000  C
  C18      1.0000 0.55480  0.11140  0.18354  Biso   1.000  C
  C19      1.0000 0.44520  0.61140  0.31646  Biso   1.000  C
  C20      1.0000 0.05480  0.38860  0.81646  Biso   1.000  C
  C21      1.0000 0.94520  0.88860  0.68354  Biso   1.000  C
  C22      1.0000 0.44520  0.88860  0.81646  Biso   1.000  C
  C23      1.0000 0.55480  0.38860  0.68354  Biso   1.000  C
  C24      1.0000 0.94520  0.61140  0.18354  Biso   1.000  C
  C25      1.0000 0.11710  0.17200  0.26400  Biso   1.000  C
  C26      1.0000 0.61710  0.17200  0.23600  Biso   1.000  C
  C27      1.0000 0.38290  0.67200  0.26400  Biso   1.000  C
  C28      1.0000 0.11710  0.32800  0.76400  Biso   1.000  C
  C29      1.0000 0.88290  0.82800  0.73600  Biso   1.000  C
  C30      1.0000 0.38290  0.82800  0.76400  Biso   1.000  C
  C31      1.0000 0.61710  0.32800  0.73600  Biso   1.000  C
  C32      1.0000 0.88290  0.67200  0.23600  Biso   1.000  C
  C33      1.0000 0.05120  0.13570  0.39443  Biso   1.000  C
  C34      1.0000 0.55120  0.13570  0.10557  Biso   1.000  C
  C35      1.0000 0.44880  0.63570  0.39443  Biso   1.000  C
  C36      1.0000 0.05120  0.36430  0.89443  Biso   1.000  C
  C37      1.0000 0.94880  0.86430  0.60557  Biso   1.000  C
  C38      1.0000 0.44880  0.86430  0.89443  Biso   1.000  C
  C39      1.0000 0.55120  0.36430  0.60557  Biso   1.000  C
  C40      1.0000 0.94880  0.63570  0.10557  Biso   1.000  C
  C41      1.0000 0.21470  0.26290  0.27670  Biso   1.000  C
  C42      1.0000 0.71470  0.26290  0.22330  Biso   1.000  C
  C43      1.0000 0.28530  0.76290  0.27670  Biso   1.000  C
  C44      1.0000 0.21470  0.23710  0.77670  Biso   1.000  C
  C45      1.0000 0.78530  0.73710  0.72330  Biso   1.000  C
  C46      1.0000 0.28530  0.73710  0.77670  Biso   1.000  C
  C47      1.0000 0.71470  0.23710  0.72330  Biso   1.000  C
  C48      1.0000 0.78530  0.76290  0.22330  Biso   1.000  C
  O49      1.0000 0.15720  0.42080  0.43298  Biso   1.000  O
  O50      1.0000 0.65720  0.42080  0.06702  Biso   1.000  O
  O51      1.0000 0.34280  0.92080  0.43298  Biso   1.000  O
  O52      1.0000 0.15720  0.07920  0.93298  Biso   1.000  O
  O53      1.0000 0.84280  0.57920  0.56702  Biso   1.000  O
  O54      1.0000 0.34280  0.57920  0.93298  Biso   1.000  O
  O55      1.0000 0.65720  0.07920  0.56702  Biso   1.000  O
  O56      1.0000 0.84280  0.92080  0.06702  Biso   1.000  O
  H49      1.0000 0.19500  0.37900  0.40000  Biso   1.000  H
  H50      1.0000 0.69500  0.37900  0.10000  Biso   1.000  H
  H51      1.0000 0.30500  0.87900  0.40000  Biso   1.000  H
  H52      1.0000 0.19500  0.12100  0.90000  Biso   1.000  H
  H53      1.0000 0.80500  0.62100  0.60000  Biso   1.000  H
  H54      1.0000 0.30500  0.62100  0.90000  Biso   1.000  H
  H55      1.0000 0.69500  0.12100  0.60000  Biso   1.000  H
  H56      1.0000 0.80500  0.87900  0.10000  Biso   1.000  H
  H57      1.0000 0.23700  0.47100  0.43700  Biso   1.000  H
  H58      1.0000 0.73700  0.47100  0.06300  Biso   1.000  H
  H59      1.0000 0.26300  0.97100  0.43700  Biso   1.000  H
  H60      1.0000 0.23700  0.02900  0.93700  Biso   1.000  H
  H61      1.0000 0.76300  0.52900  0.56300  Biso   1.000  H
  H62      1.0000 0.26300  0.52900  0.93700  Biso   1.000  H
  H63      1.0000 0.73700  0.02900  0.56300  Biso   1.000  H
  H64      1.0000 0.76300  0.97100  0.06300  Biso   1.000  H
