data_image0
_cell_length_a       16.2653
_cell_length_b       16.2653
_cell_length_c       10.2173
_cell_angle_alpha    90
_cell_angle_beta     90
_cell_angle_gamma    120

_symmetry_space_group_name_H-M    "P 1"
_symmetry_int_tables_number       1

loop_
  _symmetry_equiv_pos_as_xyz
  'x, y, z'

loop_
  _atom_site_label
  _atom_site_occupancy
  _atom_site_fract_x
  _atom_site_fract_y
  _atom_site_fract_z
  _atom_site_thermal_displace_type
  _atom_site_B_iso_or_equiv
  _atom_site_type_symbol
  Cu1      1.0000 0.00000  0.43483  0.83330  Biso   1.000  Cu
  Cu2      1.0000 0.56517  0.56517  0.16663  Biso   1.000  Cu
  Cu3      1.0000 0.43483  0.00000  0.16663  Biso   1.000  Cu
  Cu4      1.0000 0.56517  0.56517  0.50003  Biso   1.000  Cu
  Cu5      1.0000 0.00000  0.43483  0.50003  Biso   1.000  Cu
  Cu6      1.0000 0.00000  0.62248  0.83330  Biso   1.000  Cu
  Cu7      1.0000 0.37752  0.37752  0.16663  Biso   1.000  Cu
  Cu8      1.0000 0.62248  0.00000  0.16663  Biso   1.000  Cu
  Cu9      1.0000 0.37752  0.37752  0.50003  Biso   1.000  Cu
  Cu10     1.0000 0.00000  0.62248  0.50003  Biso   1.000  Cu
  C1       1.0000 0.81020  0.27870  0.86330  Biso   1.000  C
  C2       1.0000 0.72130  0.53150  0.19663  Biso   1.000  C
  C3       1.0000 0.46850  0.18980  0.19663  Biso   1.000  C
  C4       1.0000 0.27870  0.81020  0.13670  Biso   1.000  C
  C5       1.0000 0.53150  0.72130  0.47003  Biso   1.000  C
  C6       1.0000 0.18980  0.46850  0.47003  Biso   1.000  C
  H1       1.0000 0.76730  0.21250  0.87180  Biso   1.000  H
  H2       1.0000 0.78750  0.55480  0.20513  Biso   1.000  H
  H3       1.0000 0.44520  0.23270  0.20513  Biso   1.000  H
  H4       1.0000 0.21250  0.76730  0.12820  Biso   1.000  H
  H5       1.0000 0.55480  0.78750  0.46153  Biso   1.000  H
  H6       1.0000 0.23270  0.44520  0.46153  Biso   1.000  H
  C7       1.0000 0.76620  0.33810  0.85840  Biso   1.000  C
  C8       1.0000 0.66190  0.42810  0.19173  Biso   1.000  C
  C9       1.0000 0.57190  0.23380  0.19173  Biso   1.000  C
  C10      1.0000 0.33810  0.76620  0.14160  Biso   1.000  C
  C11      1.0000 0.42810  0.66190  0.47493  Biso   1.000  C
  C12      1.0000 0.23380  0.57190  0.47493  Biso   1.000  C
  C13      1.0000 0.81860  0.43820  0.85370  Biso   1.000  C
  C14      1.0000 0.56180  0.38040  0.18703  Biso   1.000  C
  C15      1.0000 0.61960  0.18140  0.18703  Biso   1.000  C
  C16      1.0000 0.43820  0.81860  0.14630  Biso   1.000  C
  C17      1.0000 0.38040  0.56180  0.47963  Biso   1.000  C
  C18      1.0000 0.18140  0.61960  0.47963  Biso   1.000  C
  C19      1.0000 0.76610  0.48550  0.85230  Biso   1.000  C
  C20      1.0000 0.51450  0.28060  0.18563  Biso   1.000  C
  C21      1.0000 0.71940  0.23390  0.18563  Biso   1.000  C
  C22      1.0000 0.48550  0.76610  0.14770  Biso   1.000  C
  C23      1.0000 0.28060  0.51450  0.48103  Biso   1.000  C
  C24      1.0000 0.23390  0.71940  0.48103  Biso   1.000  C
  C25      1.0000 0.80850  0.58730  0.85430  Biso   1.000  C
  C26      1.0000 0.41270  0.22120  0.18763  Biso   1.000  C
  C27      1.0000 0.77880  0.19150  0.18763  Biso   1.000  C
  C28      1.0000 0.58730  0.80850  0.14570  Biso   1.000  C
  C29      1.0000 0.22120  0.41270  0.47903  Biso   1.000  C
  C30      1.0000 0.19150  0.77880  0.47903  Biso   1.000  C
  H7       1.0000 0.76500  0.61010  0.85700  Biso   1.000  H
  H8       1.0000 0.38990  0.15490  0.19033  Biso   1.000  H
  H9       1.0000 0.84510  0.23500  0.19033  Biso   1.000  H
  H10      1.0000 0.61010  0.76500  0.14300  Biso   1.000  H
  H11      1.0000 0.15490  0.38990  0.47633  Biso   1.000  H
  H12      1.0000 0.23500  0.84510  0.47633  Biso   1.000  H
  C31      1.0000 0.66590  0.29010  0.86120  Biso   1.000  C
  C32      1.0000 0.70990  0.37580  0.19453  Biso   1.000  C
  C33      1.0000 0.62420  0.33410  0.19453  Biso   1.000  C
  C34      1.0000 0.29010  0.66590  0.13880  Biso   1.000  C
  C35      1.0000 0.37580  0.70990  0.47213  Biso   1.000  C
  C36      1.0000 0.33410  0.62420  0.47213  Biso   1.000  C
  H13      1.0000 0.63210  0.22270  0.86460  Biso   1.000  H
  H14      1.0000 0.77730  0.40940  0.19793  Biso   1.000  H
  H15      1.0000 0.59060  0.36790  0.19793  Biso   1.000  H
  H16      1.0000 0.22270  0.63210  0.13540  Biso   1.000  H
  H17      1.0000 0.40940  0.77730  0.46873  Biso   1.000  H
  H18      1.0000 0.36790  0.59060  0.46873  Biso   1.000  H
  C37      1.0000 0.61550  0.33680  0.85910  Biso   1.000  C
  C38      1.0000 0.66320  0.27870  0.19243  Biso   1.000  C
  C39      1.0000 0.72130  0.38450  0.19243  Biso   1.000  C
  C40      1.0000 0.33680  0.61550  0.14090  Biso   1.000  C
  C41      1.0000 0.27870  0.66320  0.47423  Biso   1.000  C
  C42      1.0000 0.38450  0.72130  0.47423  Biso   1.000  C
  C43      1.0000 0.66610  0.43320  0.85510  Biso   1.000  C
  C44      1.0000 0.56680  0.23290  0.18843  Biso   1.000  C
  C45      1.0000 0.76710  0.33390  0.18843  Biso   1.000  C
  C46      1.0000 0.43320  0.66610  0.14490  Biso   1.000  C
  C47      1.0000 0.23290  0.56680  0.47823  Biso   1.000  C
  C48      1.0000 0.33390  0.76710  0.47823  Biso   1.000  C
  H19      1.0000 0.63240  0.46700  0.85420  Biso   1.000  H
  H20      1.0000 0.53300  0.16540  0.18753  Biso   1.000  H
  H21      1.0000 0.83460  0.36760  0.18753  Biso   1.000  H
  H22      1.0000 0.46700  0.63240  0.14580  Biso   1.000  H
  H23      1.0000 0.16540  0.53300  0.47913  Biso   1.000  H
  H24      1.0000 0.36760  0.83460  0.47913  Biso   1.000  H
  C49      1.0000 0.50950  0.28270  0.86510  Biso   1.000  C
  C50      1.0000 0.71730  0.22680  0.19843  Biso   1.000  C
  C51      1.0000 0.77320  0.49050  0.19843  Biso   1.000  C
  C52      1.0000 0.28270  0.50950  0.13490  Biso   1.000  C
  C53      1.0000 0.22680  0.71730  0.46823  Biso   1.000  C
  C54      1.0000 0.49050  0.77320  0.46823  Biso   1.000  C
  H25      1.0000 0.48550  0.32730  0.86520  Biso   1.000  H
  H26      1.0000 0.67270  0.15820  0.19853  Biso   1.000  H
  H27      1.0000 0.84180  0.51450  0.19853  Biso   1.000  H
  H28      1.0000 0.32730  0.48550  0.13480  Biso   1.000  H
  H29      1.0000 0.15820  0.67270  0.46813  Biso   1.000  H
  H30      1.0000 0.51450  0.84180  0.46813  Biso   1.000  H
  H31      1.0000 0.48900  0.24460  0.94530  Biso   1.000  H
  H32      1.0000 0.75540  0.24440  0.27863  Biso   1.000  H
  H33      1.0000 0.75560  0.51100  0.27863  Biso   1.000  H
  H34      1.0000 0.24460  0.48900  0.05470  Biso   1.000  H
  H35      1.0000 0.24440  0.75540  0.38803  Biso   1.000  H
  H36      1.0000 0.51100  0.75560  0.38803  Biso   1.000  H
  H37      1.0000 0.48430  0.24090  0.78880  Biso   1.000  H
  H38      1.0000 0.75910  0.24340  0.12213  Biso   1.000  H
  H39      1.0000 0.75660  0.51570  0.12213  Biso   1.000  H
  H40      1.0000 0.24090  0.48430  0.21120  Biso   1.000  H
  H41      1.0000 0.24340  0.75910  0.54453  Biso   1.000  H
  H42      1.0000 0.51570  0.75660  0.54453  Biso   1.000  H
  C55      1.0000 0.91580  0.22330  0.86650  Biso   1.000  C
  C56      1.0000 0.77670  0.69250  0.19983  Biso   1.000  C
  C57      1.0000 0.30750  0.08420  0.19983  Biso   1.000  C
  C58      1.0000 0.22330  0.91580  0.13350  Biso   1.000  C
  C59      1.0000 0.69250  0.77670  0.46683  Biso   1.000  C
  C60      1.0000 0.08420  0.30750  0.46683  Biso   1.000  C
  C61      1.0000 0.99760  0.23710  0.87270  Biso   1.000  C
  C62      1.0000 0.76290  0.76050  0.20603  Biso   1.000  C
  C63      1.0000 0.23950  0.00240  0.20603  Biso   1.000  C
  C64      1.0000 0.23710  0.99760  0.12730  Biso   1.000  C
  C65      1.0000 0.76050  0.76290  0.46063  Biso   1.000  C
  C66      1.0000 0.00240  0.23950  0.46063  Biso   1.000  C
  C67      1.0000 0.91340  0.75060  0.86060  Biso   1.000  C
  C68      1.0000 0.24940  0.16280  0.19393  Biso   1.000  C
  C69      1.0000 0.83720  0.08660  0.19393  Biso   1.000  C
  C70      1.0000 0.75060  0.91340  0.13940  Biso   1.000  C
  C71      1.0000 0.16280  0.24940  0.47273  Biso   1.000  C
  C72      1.0000 0.08660  0.83720  0.47273  Biso   1.000  C
  C73      1.0000 0.01440  0.82520  0.90250  Biso   1.000  C
  C74      1.0000 0.17480  0.18920  0.23583  Biso   1.000  C
  C75      1.0000 0.81080  0.98560  0.23583  Biso   1.000  C
  C76      1.0000 0.82520  0.01440  0.09750  Biso   1.000  C
  C77      1.0000 0.18920  0.17480  0.43083  Biso   1.000  C
  C78      1.0000 0.98560  0.81080  0.43083  Biso   1.000  C
  O1       1.0000 0.91247  0.48478  0.85330  Biso   1.000  O
  O2       1.0000 0.51522  0.42769  0.18663  Biso   1.000  O
  O3       1.0000 0.57231  0.08753  0.18663  Biso   1.000  O
  O4       1.0000 0.48478  0.91247  0.14670  Biso   1.000  O
  O5       1.0000 0.42769  0.51522  0.48003  Biso   1.000  O
  O6       1.0000 0.08753  0.57231  0.48003  Biso   1.000  O
  N1       1.0000 0.89800  0.30300  0.85770  Biso   1.000  N
  N2       1.0000 0.69700  0.59500  0.19103  Biso   1.000  N
  N3       1.0000 0.40500  0.10200  0.19103  Biso   1.000  N
  N4       1.0000 0.30300  0.89800  0.14230  Biso   1.000  N
  N5       1.0000 0.59500  0.69700  0.47563  Biso   1.000  N
  N6       1.0000 0.10200  0.40500  0.47563  Biso   1.000  N
  N7       1.0000 0.89640  0.65170  0.85310  Biso   1.000  N
  N8       1.0000 0.34830  0.24470  0.18643  Biso   1.000  N
  N9       1.0000 0.75530  0.10360  0.18643  Biso   1.000  N
  N10      1.0000 0.65170  0.89640  0.14690  Biso   1.000  N
  N11      1.0000 0.24470  0.34830  0.48023  Biso   1.000  N
  N12      1.0000 0.10360  0.75530  0.48023  Biso   1.000  N
  C79      1.0000 0.97490  0.51240  0.53490  Biso   1.000  C
  C80      1.0000 0.48760  0.46250  0.86823  Biso   1.000  C
  C81      1.0000 0.53750  0.02510  0.86823  Biso   1.000  C
  C82      1.0000 0.51240  0.97490  0.46510  Biso   1.000  C
  C83      1.0000 0.46250  0.48760  0.79843  Biso   1.000  C
  C84      1.0000 0.02510  0.53750  0.79843  Biso   1.000  C
  C85      1.0000 0.99280  0.51950  0.38900  Biso   1.000  C
  C86      1.0000 0.48050  0.47330  0.72233  Biso   1.000  C
  C87      1.0000 0.52670  0.00720  0.72233  Biso   1.000  C
  C88      1.0000 0.51950  0.99280  0.61100  Biso   1.000  C
  C89      1.0000 0.47330  0.48050  0.94433  Biso   1.000  C
  C90      1.0000 0.00720  0.52670  0.94433  Biso   1.000  C
  O7       1.0000 0.96890  0.44100  0.59140  Biso   1.000  O
  O8       1.0000 0.55900  0.52790  0.92473  Biso   1.000  O
  O9       1.0000 0.47210  0.03110  0.92473  Biso   1.000  O
  O10      1.0000 0.44100  0.96890  0.40860  Biso   1.000  O
  O11      1.0000 0.52790  0.55900  0.74193  Biso   1.000  O
  O12      1.0000 0.03110  0.47210  0.74193  Biso   1.000  O
  O13      1.0000 0.96860  0.57920  0.58550  Biso   1.000  O
  O14      1.0000 0.42080  0.38940  0.91883  Biso   1.000  O
  O15      1.0000 0.61060  0.03140  0.91883  Biso   1.000  O
  O16      1.0000 0.57920  0.96860  0.41450  Biso   1.000  O
  O17      1.0000 0.38940  0.42080  0.74783  Biso   1.000  O
  O18      1.0000 0.03140  0.61060  0.74783  Biso   1.000  O
  C91      1.0000 0.08170  0.78690  0.47580  Biso   1.000  C
  C92      1.0000 0.21310  0.29480  0.80913  Biso   1.000  C
  C93      1.0000 0.70520  0.91830  0.80913  Biso   1.000  C
  C94      1.0000 0.78690  0.08170  0.52420  Biso   1.000  C
  C95      1.0000 0.29480  0.21310  0.85753  Biso   1.000  C
  C96      1.0000 0.91830  0.70520  0.85753  Biso   1.000  C
  O19      1.0000 0.99250  0.72760  0.45400  Biso   1.000  O
  O20      1.0000 0.27240  0.26490  0.78733  Biso   1.000  O
  O21      1.0000 0.73510  0.00750  0.78733  Biso   1.000  O
  O22      1.0000 0.72760  0.99250  0.54600  Biso   1.000  O
  O23      1.0000 0.26490  0.27240  0.87933  Biso   1.000  O
  O24      1.0000 0.00750  0.73510  0.87933  Biso   1.000  O
  O25      1.0000 0.96230  0.28920  0.45610  Biso   1.000  O
  O26      1.0000 0.71080  0.67310  0.78943  Biso   1.000  O
  O27      1.0000 0.32690  0.03770  0.78943  Biso   1.000  O
  O28      1.0000 0.28920  0.96230  0.54390  Biso   1.000  O
  O29      1.0000 0.67310  0.71080  0.87723  Biso   1.000  O
  O30      1.0000 0.03770  0.32690  0.87723  Biso   1.000  O
  O31      1.0000 0.10280  0.91780  0.47950  Biso   1.000  O
  O32      1.0000 0.08220  0.18500  0.81283  Biso   1.000  O
  O33      1.0000 0.81500  0.89720  0.81283  Biso   1.000  O
  O34      1.0000 0.91780  0.10280  0.52050  Biso   1.000  O
  O35      1.0000 0.18500  0.08220  0.85383  Biso   1.000  O
  O36      1.0000 0.89720  0.81500  0.85383  Biso   1.000  O
  O37      1.0000 0.03500  0.91300  0.50100  Biso   1.000  O
  O38      1.0000 0.08700  0.12200  0.83433  Biso   1.000  O
  O39      1.0000 0.87800  0.96500  0.83433  Biso   1.000  O
  O40      1.0000 0.91300  0.03500  0.49900  Biso   1.000  O
  O41      1.0000 0.12200  0.08700  0.83233  Biso   1.000  O
  O42      1.0000 0.96500  0.87800  0.83233  Biso   1.000  O
  O43      1.0000 0.00400  0.96180  0.37460  Biso   1.000  O
  O44      1.0000 0.03820  0.04220  0.70793  Biso   1.000  O
  O45      1.0000 0.95780  0.99600  0.70793  Biso   1.000  O
  O46      1.0000 0.96180  0.00400  0.62540  Biso   1.000  O
  O47      1.0000 0.04220  0.03820  0.95873  Biso   1.000  O
  O48      1.0000 0.99600  0.95780  0.95873  Biso   1.000  O
  O49      1.0000 0.08753  0.57231  0.81337  Biso   1.000  O
  O50      1.0000 0.42769  0.51522  0.14670  Biso   1.000  O
  O51      1.0000 0.51522  0.42769  0.51997  Biso   1.000  O
  O52      1.0000 0.91247  0.48478  0.51997  Biso   1.000  O
  N13      1.0000 0.10200  0.40500  0.80897  Biso   1.000  N
  N14      1.0000 0.59500  0.69700  0.14230  Biso   1.000  N
  N15      1.0000 0.69700  0.59500  0.52437  Biso   1.000  N
  N16      1.0000 0.89800  0.30300  0.52437  Biso   1.000  N
  O53      1.0000 0.03110  0.47210  0.07527  Biso   1.000  O
  O54      1.0000 0.52790  0.55900  0.40860  Biso   1.000  O
  O55      1.0000 0.55900  0.52790  0.25807  Biso   1.000  O
  O56      1.0000 0.96890  0.44100  0.25807  Biso   1.000  O
  N17      1.0000 0.10360  0.75530  0.81357  Biso   1.000  N
  N18      1.0000 0.24470  0.34830  0.14690  Biso   1.000  N
  N19      1.0000 0.34830  0.24470  0.51977  Biso   1.000  N
  N20      1.0000 0.89640  0.65170  0.51977  Biso   1.000  N
  O57      1.0000 0.03140  0.61060  0.08117  Biso   1.000  O
  O58      1.0000 0.38940  0.42080  0.41450  Biso   1.000  O
  O59      1.0000 0.42080  0.38940  0.25217  Biso   1.000  O
  O60      1.0000 0.96860  0.57920  0.25217  Biso   1.000  O
  C97      1.0000 0.00240  0.23950  0.79397  Biso   1.000  C
  C98      1.0000 0.76050  0.76290  0.12730  Biso   1.000  C
  C99      1.0000 0.76290  0.76050  0.53937  Biso   1.000  C
  C100     1.0000 0.99760  0.23710  0.53937  Biso   1.000  C
  C101     1.0000 0.08420  0.30750  0.80017  Biso   1.000  C
  C102     1.0000 0.69250  0.77670  0.13350  Biso   1.000  C
  C103     1.0000 0.77670  0.69250  0.53317  Biso   1.000  C
  C104     1.0000 0.91580  0.22330  0.53317  Biso   1.000  C
  C105     1.0000 0.98560  0.81080  0.76417  Biso   1.000  C
  C106     1.0000 0.18920  0.17480  0.09750  Biso   1.000  C
  C107     1.0000 0.17480  0.18920  0.56917  Biso   1.000  C
  C108     1.0000 0.01440  0.82520  0.56917  Biso   1.000  C
  C109     1.0000 0.08660  0.83720  0.80607  Biso   1.000  C
  C110     1.0000 0.16280  0.24940  0.13940  Biso   1.000  C
  C111     1.0000 0.24940  0.16280  0.52727  Biso   1.000  C
  C112     1.0000 0.91340  0.75060  0.52727  Biso   1.000  C
  C113     1.0000 0.00720  0.52670  0.27767  Biso   1.000  C
  C114     1.0000 0.47330  0.48050  0.61100  Biso   1.000  C
  C115     1.0000 0.48050  0.47330  0.05567  Biso   1.000  C
  C116     1.0000 0.99280  0.51950  0.05567  Biso   1.000  C
