data_image0
_cell_length_a       9.295
_cell_length_b       10.663
_cell_length_c       11.1282
_cell_angle_alpha    62.73
_cell_angle_beta     88.252
_cell_angle_gamma    70.912

_symmetry_space_group_name_H-M    "P 1"
_symmetry_int_tables_number       1

loop_
  _symmetry_equiv_pos_as_xyz
  'x, y, z'

loop_
  _atom_site_label
  _atom_site_occupancy
  _atom_site_fract_x
  _atom_site_fract_y
  _atom_site_fract_z
  _atom_site_thermal_displace_type
  _atom_site_B_iso_or_equiv
  _atom_site_type_symbol
  Cu1      1.0000 0.62511  0.84765  0.99221  Biso   1.000  Cu
  Cu2      1.0000 0.37489  0.15235  0.00779  Biso   1.000  Cu
  Br1      1.0000 0.97890  0.85800  0.29980  Biso   1.000  Br
  Br2      1.0000 0.02110  0.14200  0.70020  Biso   1.000  Br
  Br3      1.0000 0.81310  0.57420  0.46840  Biso   1.000  Br
  Br4      1.0000 0.18690  0.42580  0.53160  Biso   1.000  Br
  O1       1.0000 0.59770  0.05620  0.02770  Biso   1.000  O
  O2       1.0000 0.40230  0.94380  0.97230  Biso   1.000  O
  O3       1.0000 0.68000  0.12070  0.16930  Biso   1.000  O
  O4       1.0000 0.32000  0.87930  0.83070  Biso   1.000  O
  O5       1.0000 0.62810  0.73120  0.18900  Biso   1.000  O
  O6       1.0000 0.37190  0.26880  0.81100  Biso   1.000  O
  O7       1.0000 0.54050  0.58710  0.14490  Biso   1.000  O
  O8       1.0000 0.45950  0.41290  0.85510  Biso   1.000  O
  O9       1.0000 0.45250  0.32800  0.22110  Biso   1.000  O
  O10      1.0000 0.54750  0.67200  0.77890  Biso   1.000  O
  N1       1.0000 0.85100  0.73440  0.00890  Biso   1.000  N
  N2       1.0000 0.14900  0.26560  0.99110  Biso   1.000  N
  N3       1.0000 0.64760  0.94060  0.79260  Biso   1.000  N
  N4       1.0000 0.35240  0.05940  0.20740  Biso   1.000  N
  C1       1.0000 0.94990  0.63440  0.12170  Biso   1.000  C
  C2       1.0000 0.05010  0.36560  0.87830  Biso   1.000  C
  C3       1.0000 0.10320  0.55820  0.11550  Biso   1.000  C
  C4       1.0000 0.89680  0.44180  0.88450  Biso   1.000  C
  C5       1.0000 0.15270  0.58850  0.99220  Biso   1.000  C
  C6       1.0000 0.84730  0.41150  0.00780  Biso   1.000  C
  C7       1.0000 0.04970  0.69350  0.87270  Biso   1.000  C
  C8       1.0000 0.95030  0.30650  0.12730  Biso   1.000  C
  C9       1.0000 0.08700  0.73030  0.73790  Biso   1.000  C
  C10      1.0000 0.91300  0.26970  0.26210  Biso   1.000  C
  C11      1.0000 0.98110  0.83070  0.62780  Biso   1.000  C
  C12      1.0000 0.01890  0.16930  0.37220  Biso   1.000  C
  C13      1.0000 0.82850  0.91110  0.63690  Biso   1.000  C
  C14      1.0000 0.17150  0.08890  0.36310  Biso   1.000  C
  C15      1.0000 0.71560  0.02290  0.52860  Biso   1.000  C
  C16      1.0000 0.28440  0.97710  0.47140  Biso   1.000  C
  C17      1.0000 0.57560  0.09350  0.55270  Biso   1.000  C
  C18      1.0000 0.42440  0.90650  0.44730  Biso   1.000  C
  C19      1.0000 0.54300  0.04980  0.68590  Biso   1.000  C
  C20      1.0000 0.45700  0.95020  0.31410  Biso   1.000  C
  C21      1.0000 0.78740  0.87350  0.76950  Biso   1.000  C
  C22      1.0000 0.21260  0.12650  0.23050  Biso   1.000  C
  C23      1.0000 0.89910  0.76320  0.88620  Biso   1.000  C
  C24      1.0000 0.10090  0.23680  0.11380  Biso   1.000  C
  C25      1.0000 0.69980  0.07540  0.08440  Biso   1.000  C
  C26      1.0000 0.30020  0.92460  0.91560  Biso   1.000  C
  C27      1.0000 0.85620  0.03300  0.04320  Biso   1.000  C
  C28      1.0000 0.14380  0.96700  0.95680  Biso   1.000  C
  C29      1.0000 0.98860  0.94270  0.13910  Biso   1.000  C
  C30      1.0000 0.01140  0.05730  0.86090  Biso   1.000  C
  C31      1.0000 0.86880  0.08870  0.90540  Biso   1.000  C
  C32      1.0000 0.13120  0.91130  0.09460  Biso   1.000  C
  C33      1.0000 0.57240  0.62960  0.22230  Biso   1.000  C
  C34      1.0000 0.42760  0.37040  0.77770  Biso   1.000  C
  C35      1.0000 0.53820  0.56130  0.36770  Biso   1.000  C
  C36      1.0000 0.46180  0.43870  0.63230  Biso   1.000  C
  C37      1.0000 0.63210  0.53770  0.47680  Biso   1.000  C
  C38      1.0000 0.36790  0.46230  0.52320  Biso   1.000  C
  C39      1.0000 0.40670  0.52430  0.39270  Biso   1.000  C
  C40      1.0000 0.59330  0.47570  0.60730  Biso   1.000  C
  H1       1.0000 0.89100  0.61700  0.19900  Biso   1.000  H
  H2       1.0000 0.10900  0.38300  0.80100  Biso   1.000  H
  H3       1.0000 0.16900  0.48100  0.21600  Biso   1.000  H
  H4       1.0000 0.83100  0.51900  0.78400  Biso   1.000  H
  H5       1.0000 0.25900  0.54000  0.00100  Biso   1.000  H
  H6       1.0000 0.74100  0.46000  0.99900  Biso   1.000  H
  H7       1.0000 0.18200  0.66000  0.74500  Biso   1.000  H
  H8       1.0000 0.81800  0.34000  0.25500  Biso   1.000  H
  H9       1.0000 0.00800  0.86900  0.54100  Biso   1.000  H
  H10      1.0000 0.99200  0.13100  0.45900  Biso   1.000  H
  H11      1.0000 0.73300  0.05600  0.43900  Biso   1.000  H
  H12      1.0000 0.26700  0.94400  0.56100  Biso   1.000  H
  H13      1.0000 0.49700  0.16100  0.48100  Biso   1.000  H
  H14      1.0000 0.50300  0.83900  0.51900  Biso   1.000  H
  H15      1.0000 0.44100  0.09700  0.69600  Biso   1.000  H
  H16      1.0000 0.55900  0.90300  0.30400  Biso   1.000  H
  H17      1.0000 0.53800  0.27000  0.20200  Biso   1.000  H
  H18      1.0000 0.46200  0.73000  0.79800  Biso   1.000  H
  H19      1.0000 0.48600  0.39900  0.20200  Biso   1.000  H
  H20      1.0000 0.51400  0.60100  0.79800  Biso   1.000  H
  H21      1.0000 0.79200  0.15400  0.83100  Biso   1.000  H
  H22      1.0000 0.20800  0.84600  0.16900  Biso   1.000  H
  H23      1.0000 0.34400  0.52000  0.33400  Biso   1.000  H
  H24      1.0000 0.65600  0.48000  0.66600  Biso   1.000  H
