data_image0
_cell_length_a       8.0398
_cell_length_b       9.165
_cell_length_c       12.29
_cell_angle_alpha    111.73
_cell_angle_beta     94.75
_cell_angle_gamma    97.18

_symmetry_space_group_name_H-M    "P 1"
_symmetry_int_tables_number       1

loop_
  _symmetry_equiv_pos_as_xyz
  'x, y, z'

loop_
  _atom_site_label
  _atom_site_occupancy
  _atom_site_fract_x
  _atom_site_fract_y
  _atom_site_fract_z
  _atom_site_thermal_displace_type
  _atom_site_B_iso_or_equiv
  _atom_site_type_symbol
  Cu1      1.0000 0.00000  0.00000  0.00000  Biso   1.000  Cu
  O1       1.0000 0.84910  0.03180  0.12320  Biso   1.000  O
  O2       1.0000 0.15090  0.96820  0.87680  Biso   1.000  O
  O3       1.0000 0.91430  0.79720  0.10360  Biso   1.000  O
  O4       1.0000 0.08570  0.20280  0.89640  Biso   1.000  O
  O5       1.0000 0.03370  0.65290  0.22720  Biso   1.000  O
  O6       1.0000 0.96630  0.34710  0.77280  Biso   1.000  O
  H1       1.0000 0.98580  0.69680  0.18940  Biso   1.000  H
  H2       1.0000 0.01420  0.30320  0.81060  Biso   1.000  H
  O7       1.0000 0.96460  0.47150  0.30030  Biso   1.000  O
  O8       1.0000 0.03540  0.52850  0.69970  Biso   1.000  O
  N1       1.0000 0.63780  0.76090  0.70870  Biso   1.000  N
  N2       1.0000 0.36220  0.23910  0.29130  Biso   1.000  N
  N3       1.0000 0.80600  0.91560  0.87220  Biso   1.000  N
  N4       1.0000 0.19400  0.08440  0.12780  Biso   1.000  N
  C1       1.0000 0.72790  0.83310  0.31340  Biso   1.000  C
  C2       1.0000 0.27210  0.16690  0.68660  Biso   1.000  C
  C3       1.0000 0.81520  0.95100  0.28210  Biso   1.000  C
  C4       1.0000 0.18480  0.04900  0.71790  Biso   1.000  C
  C5       1.0000 0.86550  0.10430  0.36640  Biso   1.000  C
  C6       1.0000 0.13450  0.89570  0.63360  Biso   1.000  C
  H3       1.0000 0.91990  0.18290  0.34460  Biso   1.000  H
  H4       1.0000 0.08010  0.81710  0.65540  Biso   1.000  H
  C7       1.0000 0.83620  0.14240  0.48200  Biso   1.000  C
  C8       1.0000 0.16380  0.85760  0.51800  Biso   1.000  C
  H5       1.0000 0.87230  0.24540  0.53780  Biso   1.000  H
  H6       1.0000 0.12770  0.75460  0.46220  Biso   1.000  H
  C9       1.0000 0.75380  0.02810  0.51400  Biso   1.000  C
  C10      1.0000 0.24620  0.97190  0.48600  Biso   1.000  C
  H7       1.0000 0.73620  0.05300  0.59230  Biso   1.000  H
  H8       1.0000 0.26380  0.94700  0.40770  Biso   1.000  H
  C11      1.0000 0.69640  0.87580  0.43090  Biso   1.000  C
  C12      1.0000 0.30360  0.12420  0.56910  Biso   1.000  C
  H9       1.0000 0.63610  0.80040  0.45320  Biso   1.000  H
  H10      1.0000 0.36390  0.19960  0.54680  Biso   1.000  H
  C13      1.0000 0.65380  0.66750  0.22900  Biso   1.000  C
  C14      1.0000 0.34620  0.33250  0.77100  Biso   1.000  C
  C15      1.0000 0.73910  0.53790  0.20030  Biso   1.000  C
  C16      1.0000 0.26090  0.46210  0.79970  Biso   1.000  C
  C17      1.0000 0.65470  0.38530  0.13140  Biso   1.000  C
  C18      1.0000 0.34530  0.61470  0.86860  Biso   1.000  C
  H11      1.0000 0.71240  0.29940  0.11530  Biso   1.000  H
  H12      1.0000 0.28760  0.70060  0.88470  Biso   1.000  H
  C19      1.0000 0.48390  0.35970  0.08620  Biso   1.000  C
  C20      1.0000 0.51610  0.64030  0.91380  Biso   1.000  C
  H13      1.0000 0.42890  0.25830  0.03640  Biso   1.000  H
  H14      1.0000 0.57110  0.74170  0.96360  Biso   1.000  H
  C21      1.0000 0.39850  0.48600  0.11630  Biso   1.000  C
  C22      1.0000 0.60150  0.51400  0.88370  Biso   1.000  C
  H15      1.0000 0.28370  0.46910  0.08860  Biso   1.000  H
  H16      1.0000 0.71630  0.53090  0.91140  Biso   1.000  H
  C23      1.0000 0.47990  0.63820  0.18700  Biso   1.000  C
  C24      1.0000 0.52010  0.36180  0.81300  Biso   1.000  C
  H17      1.0000 0.41910  0.72210  0.20700  Biso   1.000  H
  H18      1.0000 0.58090  0.27790  0.79300  Biso   1.000  H
  C25      1.0000 0.86040  0.92090  0.16130  Biso   1.000  C
  C26      1.0000 0.13960  0.07910  0.83870  Biso   1.000  C
  C27      1.0000 0.92180  0.55250  0.24700  Biso   1.000  C
  C28      1.0000 0.07820  0.44750  0.75300  Biso   1.000  C
  C29      1.0000 0.57000  0.62730  0.60330  Biso   1.000  C
  C30      1.0000 0.43000  0.37270  0.39670  Biso   1.000  C
  C31      1.0000 0.67490  0.54450  0.52860  Biso   1.000  C
  C32      1.0000 0.32510  0.45550  0.47140  Biso   1.000  C
  H19      1.0000 0.79170  0.57410  0.54800  Biso   1.000  H
  H20      1.0000 0.20830  0.42590  0.45200  Biso   1.000  H
  C33      1.0000 0.39370  0.58240  0.57520  Biso   1.000  C
  C34      1.0000 0.60630  0.41760  0.42480  Biso   1.000  C
  H21      1.0000 0.32330  0.63780  0.62610  Biso   1.000  H
  H22      1.0000 0.67670  0.36220  0.37390  Biso   1.000  H
  C35      1.0000 0.78310  0.77830  0.77950  Biso   1.000  C
  C36      1.0000 0.21690  0.22170  0.22050  Biso   1.000  C
  H23      1.0000 0.85640  0.70450  0.76530  Biso   1.000  H
  H24      1.0000 0.14360  0.29550  0.23470  Biso   1.000  H
  C37      1.0000 0.66910  0.98590  0.86100  Biso   1.000  C
  C38      1.0000 0.33090  0.01410  0.13900  Biso   1.000  C
  H25      1.0000 0.65070  0.08340  0.91430  Biso   1.000  H
  H26      1.0000 0.34930  0.91660  0.08570  Biso   1.000  H
  C39      1.0000 0.56480  0.89280  0.76140  Biso   1.000  C
  C40      1.0000 0.43520  0.10720  0.23860  Biso   1.000  C
  H27      1.0000 0.46300  0.91370  0.73360  Biso   1.000  H
  H28      1.0000 0.53700  0.08630  0.26640  Biso   1.000  H
