data_image0
_cell_length_a       13.043
_cell_length_b       13.872
_cell_length_c       15.061
_cell_angle_alpha    104.87
_cell_angle_beta     107.02
_cell_angle_gamma    107.14

_symmetry_space_group_name_H-M    "P 1"
_symmetry_int_tables_number       1

loop_
  _symmetry_equiv_pos_as_xyz
  'x, y, z'

loop_
  _atom_site_label
  _atom_site_occupancy
  _atom_site_fract_x
  _atom_site_fract_y
  _atom_site_fract_z
  _atom_site_thermal_displace_type
  _atom_site_B_iso_or_equiv
  _atom_site_type_symbol
  Cu1      1.0000 0.52070  0.73601  0.29730  Biso   1.000  Cu
  Cu2      1.0000 0.47930  0.26399  0.70270  Biso   1.000  Cu
  O1       1.0000 0.43400  0.79020  0.36910  Biso   1.000  O
  O2       1.0000 0.56600  0.20980  0.63090  Biso   1.000  O
  C1       1.0000 0.37950  0.85870  0.49790  Biso   1.000  C
  C2       1.0000 0.62050  0.14130  0.50210  Biso   1.000  C
  F1       1.0000 0.28200  0.79110  0.47430  Biso   1.000  F
  F2       1.0000 0.71800  0.20890  0.52570  Biso   1.000  F
  F3       1.0000 0.42280  0.90370  0.59560  Biso   1.000  F
  F4       1.0000 0.57720  0.09630  0.40440  Biso   1.000  F
  F5       1.0000 0.37190  0.93920  0.47580  Biso   1.000  F
  F6       1.0000 0.62810  0.06080  0.52420  Biso   1.000  F
  C3       1.0000 0.45830  0.81230  0.46100  Biso   1.000  C
  C4       1.0000 0.54170  0.18770  0.53900  Biso   1.000  C
  C5       1.0000 0.54470  0.80070  0.52920  Biso   1.000  C
  C6       1.0000 0.45530  0.19930  0.47080  Biso   1.000  C
  H1       1.0000 0.55710  0.82470  0.59660  Biso   1.000  H
  H2       1.0000 0.44290  0.17530  0.40340  Biso   1.000  H
  C7       1.0000 0.61210  0.75400  0.49820  Biso   1.000  C
  C8       1.0000 0.38790  0.24600  0.50180  Biso   1.000  C
  C9       1.0000 0.70800  0.74000  0.57880  Biso   1.000  C
  C10      1.0000 0.29200  0.26000  0.42120  Biso   1.000  C
  F7       1.0000 0.80020  0.76000  0.57420  Biso   1.000  F
  F8       1.0000 0.19980  0.24000  0.42580  Biso   1.000  F
  F9       1.0000 0.71070  0.77530  0.66660  Biso   1.000  F
  F10      1.0000 0.28930  0.22470  0.33340  Biso   1.000  F
  F11      1.0000 0.66890  0.63290  0.55530  Biso   1.000  F
  F12      1.0000 0.33110  0.36710  0.44470  Biso   1.000  F
  O3       1.0000 0.61620  0.72110  0.41210  Biso   1.000  O
  O4       1.0000 0.38380  0.27890  0.58790  Biso   1.000  O
  O5       1.0000 0.59640  0.66880  0.22310  Biso   1.000  O
  O6       1.0000 0.40360  0.33120  0.77690  Biso   1.000  O
  C11      1.0000 0.67300  0.63640  0.10310  Biso   1.000  C
  C12      1.0000 0.32700  0.36360  0.89690  Biso   1.000  C
  F13      1.0000 0.63950  0.59560  0.00480  Biso   1.000  F
  F14      1.0000 0.36050  0.40440  0.99520  Biso   1.000  F
  F15      1.0000 0.76560  0.72970  0.13040  Biso   1.000  F
  F16      1.0000 0.23440  0.27030  0.86960  Biso   1.000  F
  F17      1.0000 0.70880  0.57260  0.13750  Biso   1.000  F
  F18      1.0000 0.29120  0.42740  0.86250  Biso   1.000  F
  C13      1.0000 0.58200  0.66430  0.13650  Biso   1.000  C
  C14      1.0000 0.41800  0.33570  0.86350  Biso   1.000  C
  C15      1.0000 0.49450  0.68180  0.07070  Biso   1.000  C
  C16      1.0000 0.50550  0.31820  0.92930  Biso   1.000  C
  H3       1.0000 0.49800  0.67400  0.01600  Biso   1.000  H
  H4       1.0000 0.50200  0.32600  0.98400  Biso   1.000  H
  C17      1.0000 0.40620  0.69880  0.09480  Biso   1.000  C
  C18      1.0000 0.59380  0.30120  0.90520  Biso   1.000  C
  C19      1.0000 0.30430  0.70960  0.01570  Biso   1.000  C
  C20      1.0000 0.69570  0.29040  0.98430  Biso   1.000  C
  F19      1.0000 0.28490  0.78000  0.03730  Biso   1.000  F
  F20      1.0000 0.71510  0.22000  0.96270  Biso   1.000  F
  F21      1.0000 0.31530  0.68740  0.92890  Biso   1.000  F
  F22      1.0000 0.68470  0.31260  0.07110  Biso   1.000  F
  F23      1.0000 0.21570  0.61680  0.98400  Biso   1.000  F
  F24      1.0000 0.78430  0.38320  0.01600  Biso   1.000  F
  O7       1.0000 0.39440  0.71190  0.17550  Biso   1.000  O
  O8       1.0000 0.60560  0.28810  0.82450  Biso   1.000  O
  Cu3      1.0000 0.00000  0.00000  0.00000  Biso   1.000  Cu
  O9       1.0000 0.96120  0.05580  0.89660  Biso   1.000  O
  O10      1.0000 0.03880  0.94420  0.10340  Biso   1.000  O
  C21      1.0000 0.85710  0.10020  0.77270  Biso   1.000  C
  C22      1.0000 0.14290  0.89980  0.22730  Biso   1.000  C
  F25      1.0000 0.87850  0.05330  0.70210  Biso   1.000  F
  F26      1.0000 0.12150  0.94670  0.29790  Biso   1.000  F
  F27      1.0000 0.92280  0.19810  0.80740  Biso   1.000  F
  F28      1.0000 0.07720  0.80190  0.19260  Biso   1.000  F
  F29      1.0000 0.75810  0.10220  0.73060  Biso   1.000  F
  F30      1.0000 0.24190  0.89780  0.26940  Biso   1.000  F
  C23      1.0000 0.86530  0.05050  0.85240  Biso   1.000  C
  C24      1.0000 0.13470  0.94950  0.14760  Biso   1.000  C
  C25      1.0000 0.76320  0.00840  0.86500  Biso   1.000  C
  C26      1.0000 0.23680  0.99160  0.13500  Biso   1.000  C
  H5       1.0000 0.69200  0.00200  0.82700  Biso   1.000  H
  H6       1.0000 0.30800  0.99800  0.17300  Biso   1.000  H
  C27      1.0000 0.76020  0.96290  0.93640  Biso   1.000  C
  C28      1.0000 0.23980  0.03710  0.06360  Biso   1.000  C
  C29      1.0000 0.64530  0.91800  0.95240  Biso   1.000  C
  C30      1.0000 0.35470  0.08200  0.04760  Biso   1.000  C
  F31      1.0000 0.55470  0.91320  0.88090  Biso   1.000  F
  F32      1.0000 0.44530  0.08680  0.11910  Biso   1.000  F
  F33      1.0000 0.61110  0.81210  0.92440  Biso   1.000  F
  F34      1.0000 0.38890  0.18790  0.07560  Biso   1.000  F
  F35      1.0000 0.64660  0.95390  0.03130  Biso   1.000  F
  F36      1.0000 0.35340  0.04610  0.96870  Biso   1.000  F
  O11      1.0000 0.84350  0.95560  0.99820  Biso   1.000  O
  O12      1.0000 0.15650  0.04440  0.00180  Biso   1.000  O
  Cu4      1.0000 0.00000  0.50000  0.50000  Biso   1.000  Cu
  O13      1.0000 0.98500  0.36280  0.51530  Biso   1.000  O
  O14      1.0000 0.01500  0.63720  0.48470  Biso   1.000  O
  C31      1.0000 0.02770  0.23520  0.57550  Biso   1.000  C
  C32      1.0000 0.97230  0.76480  0.42450  Biso   1.000  C
  F37      1.0000 0.11040  0.21120  0.61930  Biso   1.000  F
  F38      1.0000 0.88960  0.78880  0.38070  Biso   1.000  F
  F39      1.0000 0.98090  0.23910  0.63880  Biso   1.000  F
  F40      1.0000 0.01910  0.76090  0.36120  Biso   1.000  F
  F41      1.0000 0.95580  0.16010  0.50090  Biso   1.000  F
  F42      1.0000 0.04420  0.83990  0.49910  Biso   1.000  F
  C33      1.0000 0.06770  0.34780  0.56870  Biso   1.000  C
  C34      1.0000 0.93230  0.65220  0.43130  Biso   1.000  C
  C35      1.0000 0.18720  0.41690  0.61810  Biso   1.000  C
  C36      1.0000 0.81280  0.58310  0.38190  Biso   1.000  C
  H7       1.0000 0.24100  0.40300  0.66100  Biso   1.000  H
  H8       1.0000 0.75900  0.59700  0.33900  Biso   1.000  H
  C37      1.0000 0.22610  0.51730  0.61200  Biso   1.000  C
  C38      1.0000 0.77390  0.48270  0.38800  Biso   1.000  C
  C39      1.0000 0.35480  0.58500  0.66270  Biso   1.000  C
  C40      1.0000 0.64520  0.41500  0.33730  Biso   1.000  C
  F43      1.0000 0.40060  0.61100  0.60380  Biso   1.000  F
  F44      1.0000 0.59940  0.38900  0.39620  Biso   1.000  F
  F45      1.0000 0.41700  0.54820  0.71030  Biso   1.000  F
  F46      1.0000 0.58300  0.45180  0.28970  Biso   1.000  F
  F47      1.0000 0.37730  0.67970  0.72220  Biso   1.000  F
  F48      1.0000 0.62270  0.32030  0.27780  Biso   1.000  F
  O15      1.0000 0.16850  0.56010  0.56590  Biso   1.000  O
  O16      1.0000 0.83150  0.43990  0.43410  Biso   1.000  O
  N1       1.0000 0.63820  0.89650  0.30820  Biso   1.000  N
  N2       1.0000 0.36180  0.10350  0.69180  Biso   1.000  N
  C41      1.0000 0.69820  0.96310  0.29340  Biso   1.000  C
  C42      1.0000 0.30180  0.03690  0.70660  Biso   1.000  C
  C43      1.0000 0.77640  0.04620  0.27360  Biso   1.000  C
  C44      1.0000 0.22360  0.95380  0.72640  Biso   1.000  C
  C45      1.0000 0.87120  0.03440  0.25770  Biso   1.000  C
  C46      1.0000 0.12880  0.96560  0.74230  Biso   1.000  C
  H9       1.0000 0.89600  0.97800  0.26100  Biso   1.000  H
  H10      1.0000 0.10400  0.02200  0.73900  Biso   1.000  H
  C47      1.0000 0.94660  0.11370  0.24080  Biso   1.000  C
  C48      1.0000 0.05340  0.88630  0.75920  Biso   1.000  C
  H11      1.0000 0.00300  0.09500  0.23700  Biso   1.000  H
  H12      1.0000 0.99700  0.90500  0.76300  Biso   1.000  H
  C49      1.0000 0.92840  0.20650  0.24040  Biso   1.000  C
  C50      1.0000 0.07160  0.79350  0.75960  Biso   1.000  C
  C51      1.0000 0.83310  0.21880  0.25580  Biso   1.000  C
  C52      1.0000 0.16690  0.78120  0.74420  Biso   1.000  C
  H13      1.0000 0.82000  0.28500  0.26600  Biso   1.000  H
  H14      1.0000 0.18000  0.71500  0.73400  Biso   1.000  H
  C53      1.0000 0.75680  0.13760  0.27120  Biso   1.000  C
  C54      1.0000 0.24320  0.86240  0.72880  Biso   1.000  C
  H15      1.0000 0.70700  0.15200  0.28900  Biso   1.000  H
  H16      1.0000 0.29300  0.84800  0.71100  Biso   1.000  H
  C55      1.0000 0.01000  0.29310  0.22510  Biso   1.000  C
  C56      1.0000 0.99000  0.70690  0.77490  Biso   1.000  C
  N3       1.0000 0.07610  0.28020  0.17500  Biso   1.000  N
  N4       1.0000 0.92390  0.71980  0.82500  Biso   1.000  N
  O17      1.0000 0.08310  0.18910  0.13210  Biso   1.000  O
  O18      1.0000 0.91690  0.81090  0.86790  Biso   1.000  O
  C57      1.0000 0.14060  0.38050  0.16100  Biso   1.000  C
  C58      1.0000 0.85940  0.61950  0.83900  Biso   1.000  C
  C59      1.0000 0.26490  0.39300  0.17870  Biso   1.000  C
  C60      1.0000 0.73510  0.60700  0.82130  Biso   1.000  C
  H17      1.0000 0.26700  0.32800  0.13800  Biso   1.000  H
  H18      1.0000 0.73300  0.67200  0.86200  Biso   1.000  H
  H19      1.0000 0.31100  0.41400  0.24400  Biso   1.000  H
  H20      1.0000 0.68900  0.58600  0.75600  Biso   1.000  H
  H21      1.0000 0.31400  0.46300  0.15100  Biso   1.000  H
  H22      1.0000 0.68600  0.53700  0.84900  Biso   1.000  H
  C61      1.0000 0.07710  0.36230  0.05070  Biso   1.000  C
  C62      1.0000 0.92290  0.63770  0.94930  Biso   1.000  C
  H23      1.0000 0.09300  0.29300  0.99900  Biso   1.000  H
  H24      1.0000 0.90700  0.70700  0.00100  Biso   1.000  H
  H25      1.0000 0.11200  0.42800  0.03900  Biso   1.000  H
  H26      1.0000 0.88800  0.57200  0.96100  Biso   1.000  H
  H27      1.0000 0.00700  0.33600  0.04100  Biso   1.000  H
  H28      1.0000 0.99300  0.66400  0.95900  Biso   1.000  H
  C63      1.0000 0.12590  0.46870  0.23950  Biso   1.000  C
  C64      1.0000 0.87410  0.53130  0.76050  Biso   1.000  C
  C65      1.0000 0.23070  0.52730  0.34140  Biso   1.000  C
  C66      1.0000 0.76930  0.47270  0.65860  Biso   1.000  C
  H29      1.0000 0.21500  0.57900  0.38570  Biso   1.000  H
  H30      1.0000 0.78500  0.42100  0.61430  Biso   1.000  H
  H31      1.0000 0.29940  0.56450  0.33260  Biso   1.000  H
  H32      1.0000 0.70060  0.43550  0.66740  Biso   1.000  H
  H33      1.0000 0.24290  0.47500  0.36970  Biso   1.000  H
  H34      1.0000 0.75710  0.52500  0.63030  Biso   1.000  H
  C67      1.0000 0.08700  0.54850  0.20030  Biso   1.000  C
  C68      1.0000 0.91300  0.45150  0.79970  Biso   1.000  C
  H35      1.0000 0.08800  0.59500  0.25800  Biso   1.000  H
  H36      1.0000 0.91200  0.40500  0.74200  Biso   1.000  H
  H37      1.0000 0.00600  0.49400  0.13500  Biso   1.000  H
  H38      1.0000 0.99400  0.50600  0.86500  Biso   1.000  H
  H39      1.0000 0.17300  0.58500  0.19100  Biso   1.000  H
  H40      1.0000 0.82700  0.41500  0.80900  Biso   1.000  H
  N5       1.0000 0.02950  0.39860  0.26130  Biso   1.000  N
  N6       1.0000 0.97050  0.60140  0.73870  Biso   1.000  N
  O19      1.0000 0.98280  0.44230  0.31350  Biso   1.000  O
  O20      1.0000 0.01720  0.55770  0.68650  Biso   1.000  O
