data_image0
_cell_length_a       9.854
_cell_length_b       34.522
_cell_length_c       9.607
_cell_angle_alpha    90
_cell_angle_beta     113.07
_cell_angle_gamma    90

_symmetry_space_group_name_H-M    "P 1"
_symmetry_int_tables_number       1

loop_
  _symmetry_equiv_pos_as_xyz
  'x, y, z'

loop_
  _atom_site_label
  _atom_site_occupancy
  _atom_site_fract_x
  _atom_site_fract_y
  _atom_site_fract_z
  _atom_site_thermal_displace_type
  _atom_site_B_iso_or_equiv
  _atom_site_type_symbol
  Cu1      1.0000 0.00022  0.87349  0.09190  Biso   1.000  Cu
  Cu2      1.0000 0.00022  0.62651  0.59190  Biso   1.000  Cu
  Cu3      1.0000 0.99978  0.12651  0.90810  Biso   1.000  Cu
  Cu4      1.0000 0.99978  0.37349  0.40810  Biso   1.000  Cu
  O1       1.0000 0.16670  0.83940  0.16520  Biso   1.000  O
  O2       1.0000 0.16670  0.66060  0.66520  Biso   1.000  O
  O3       1.0000 0.83330  0.16060  0.83480  Biso   1.000  O
  O4       1.0000 0.83330  0.33940  0.33480  Biso   1.000  O
  C1       1.0000 0.40800  0.81830  0.25200  Biso   1.000  C
  C2       1.0000 0.40800  0.68170  0.75200  Biso   1.000  C
  C3       1.0000 0.59200  0.18170  0.74800  Biso   1.000  C
  C4       1.0000 0.59200  0.31830  0.24800  Biso   1.000  C
  F1       1.0000 0.43600  0.80550  0.38270  Biso   1.000  F
  F2       1.0000 0.43600  0.69450  0.88270  Biso   1.000  F
  F3       1.0000 0.56400  0.19450  0.61730  Biso   1.000  F
  F4       1.0000 0.56400  0.30550  0.11730  Biso   1.000  F
  F5       1.0000 0.36710  0.78830  0.17400  Biso   1.000  F
  F6       1.0000 0.36710  0.71170  0.67400  Biso   1.000  F
  F7       1.0000 0.63290  0.21170  0.82600  Biso   1.000  F
  F8       1.0000 0.63290  0.28830  0.32600  Biso   1.000  F
  F9       1.0000 0.53410  0.82510  0.25480  Biso   1.000  F
  F10      1.0000 0.53410  0.67490  0.75480  Biso   1.000  F
  F11      1.0000 0.46590  0.17490  0.74520  Biso   1.000  F
  F12      1.0000 0.46590  0.32510  0.24520  Biso   1.000  F
  C5       1.0000 0.30170  0.85120  0.21100  Biso   1.000  C
  C6       1.0000 0.30170  0.64880  0.71100  Biso   1.000  C
  C7       1.0000 0.69830  0.14880  0.78900  Biso   1.000  C
  C8       1.0000 0.69830  0.35120  0.28900  Biso   1.000  C
  C9       1.0000 0.35270  0.88730  0.22850  Biso   1.000  C
  C10      1.0000 0.35270  0.61270  0.72850  Biso   1.000  C
  C11      1.0000 0.64730  0.11270  0.77150  Biso   1.000  C
  C12      1.0000 0.64730  0.38730  0.27150  Biso   1.000  C
  H1       1.0000 0.46700  0.90400  0.29000  Biso   1.000  H
  H2       1.0000 0.46700  0.59600  0.79000  Biso   1.000  H
  H3       1.0000 0.53300  0.09600  0.71000  Biso   1.000  H
  H4       1.0000 0.53300  0.40400  0.21000  Biso   1.000  H
  C13      1.0000 0.26140  0.91930  0.19310  Biso   1.000  C
  C14      1.0000 0.26140  0.58070  0.69310  Biso   1.000  C
  C15      1.0000 0.73860  0.08070  0.80690  Biso   1.000  C
  C16      1.0000 0.73860  0.41930  0.30690  Biso   1.000  C
  C17      1.0000 0.32150  0.96070  0.21500  Biso   1.000  C
  C18      1.0000 0.32150  0.53930  0.71500  Biso   1.000  C
  C19      1.0000 0.67850  0.03930  0.78500  Biso   1.000  C
  C20      1.0000 0.67850  0.46070  0.28500  Biso   1.000  C
  F13      1.0000 0.40530  0.96500  0.14130  Biso   1.000  F
  F14      1.0000 0.40530  0.53500  0.64130  Biso   1.000  F
  F15      1.0000 0.59470  0.03500  0.85870  Biso   1.000  F
  F16      1.0000 0.59470  0.46500  0.35870  Biso   1.000  F
  F17      1.0000 0.41560  0.96470  0.35540  Biso   1.000  F
  F18      1.0000 0.41560  0.53530  0.85540  Biso   1.000  F
  F19      1.0000 0.58440  0.03530  0.64460  Biso   1.000  F
  F20      1.0000 0.58440  0.46470  0.14460  Biso   1.000  F
  F21      1.0000 0.22870  0.98790  0.18530  Biso   1.000  F
  F22      1.0000 0.22870  0.51210  0.68530  Biso   1.000  F
  F23      1.0000 0.77130  0.01210  0.81470  Biso   1.000  F
  F24      1.0000 0.77130  0.48790  0.31470  Biso   1.000  F
  O5       1.0000 0.12050  0.91919  0.14630  Biso   1.000  O
  O6       1.0000 0.12050  0.58081  0.64630  Biso   1.000  O
  O7       1.0000 0.87950  0.08081  0.85370  Biso   1.000  O
  O8       1.0000 0.87950  0.41919  0.35370  Biso   1.000  O
  O9       1.0000 0.88100  0.82710  0.04580  Biso   1.000  O
  O10      1.0000 0.88100  0.67290  0.54580  Biso   1.000  O
  O11      1.0000 0.11900  0.17290  0.95420  Biso   1.000  O
  O12      1.0000 0.11900  0.32710  0.45420  Biso   1.000  O
  C21      1.0000 0.67420  0.78550  0.96400  Biso   1.000  C
  C22      1.0000 0.67420  0.71450  0.46400  Biso   1.000  C
  C23      1.0000 0.32580  0.21450  0.03600  Biso   1.000  C
  C24      1.0000 0.32580  0.28550  0.53600  Biso   1.000  C
  F25      1.0000 0.72520  0.76640  0.08730  Biso   1.000  F
  F26      1.0000 0.72520  0.73360  0.58730  Biso   1.000  F
  F27      1.0000 0.27480  0.23360  0.91270  Biso   1.000  F
  F28      1.0000 0.27480  0.26640  0.41270  Biso   1.000  F
  F29      1.0000 0.53660  0.78480  0.91870  Biso   1.000  F
  F30      1.0000 0.53660  0.71520  0.41870  Biso   1.000  F
  F31      1.0000 0.46340  0.21520  0.08130  Biso   1.000  F
  F32      1.0000 0.46340  0.28480  0.58130  Biso   1.000  F
  F33      1.0000 0.71730  0.76570  0.87570  Biso   1.000  F
  F34      1.0000 0.71730  0.73430  0.37570  Biso   1.000  F
  F35      1.0000 0.28270  0.23430  0.12430  Biso   1.000  F
  F36      1.0000 0.28270  0.26570  0.62430  Biso   1.000  F
  C25      1.0000 0.74280  0.82610  0.98620  Biso   1.000  C
  C26      1.0000 0.74280  0.67390  0.48620  Biso   1.000  C
  C27      1.0000 0.25720  0.17390  0.01380  Biso   1.000  C
  C28      1.0000 0.25720  0.32610  0.51380  Biso   1.000  C
  C29      1.0000 0.64940  0.85670  0.93910  Biso   1.000  C
  C30      1.0000 0.64940  0.64330  0.43910  Biso   1.000  C
  C31      1.0000 0.35060  0.14330  0.06090  Biso   1.000  C
  C32      1.0000 0.35060  0.35670  0.56090  Biso   1.000  C
  H5       1.0000 0.55100  0.84400  0.85700  Biso   1.000  H
  H6       1.0000 0.55100  0.65600  0.35700  Biso   1.000  H
  H7       1.0000 0.44900  0.15600  0.14300  Biso   1.000  H
  H8       1.0000 0.44900  0.34400  0.64300  Biso   1.000  H
  C33      1.0000 0.69780  0.89500  0.94820  Biso   1.000  C
  C34      1.0000 0.69780  0.60500  0.44820  Biso   1.000  C
  C35      1.0000 0.30220  0.10500  0.05180  Biso   1.000  C
  C36      1.0000 0.30220  0.39500  0.55180  Biso   1.000  C
  C37      1.0000 0.58500  0.92680  0.88000  Biso   1.000  C
  C38      1.0000 0.58500  0.57320  0.38000  Biso   1.000  C
  C39      1.0000 0.41500  0.07320  0.12000  Biso   1.000  C
  C40      1.0000 0.41500  0.42680  0.62000  Biso   1.000  C
  F37      1.0000 0.61190  0.95720  0.96510  Biso   1.000  F
  F38      1.0000 0.61190  0.54280  0.46510  Biso   1.000  F
  F39      1.0000 0.38810  0.04280  0.03490  Biso   1.000  F
  F40      1.0000 0.38810  0.45720  0.53490  Biso   1.000  F
  F41      1.0000 0.45280  0.91540  0.87450  Biso   1.000  F
  F42      1.0000 0.45280  0.58460  0.37450  Biso   1.000  F
  F43      1.0000 0.54720  0.08460  0.12550  Biso   1.000  F
  F44      1.0000 0.54720  0.41540  0.62550  Biso   1.000  F
  F45      1.0000 0.57800  0.93690  0.75250  Biso   1.000  F
  F46      1.0000 0.57800  0.56310  0.25250  Biso   1.000  F
  F47      1.0000 0.42200  0.06310  0.24750  Biso   1.000  F
  F48      1.0000 0.42200  0.43690  0.74750  Biso   1.000  F
  O13      1.0000 0.82900  0.90640  0.00760  Biso   1.000  O
  O14      1.0000 0.82900  0.59360  0.50760  Biso   1.000  O
  O15      1.0000 0.17100  0.09360  0.99240  Biso   1.000  O
  O16      1.0000 0.17100  0.40640  0.49240  Biso   1.000  O
  O17      1.0000 0.05480  0.88450  0.86320  Biso   1.000  O
  O18      1.0000 0.05480  0.61550  0.36320  Biso   1.000  O
  O19      1.0000 0.94520  0.11550  0.13680  Biso   1.000  O
  O20      1.0000 0.94520  0.38450  0.63680  Biso   1.000  O
  N1       1.0000 0.05160  0.87350  0.73740  Biso   1.000  N
  N2       1.0000 0.05160  0.62650  0.23740  Biso   1.000  N
  N3       1.0000 0.94840  0.12650  0.26260  Biso   1.000  N
  N4       1.0000 0.94840  0.37350  0.76260  Biso   1.000  N
  C41      1.0000 0.00130  0.83380  0.67280  Biso   1.000  C
  C42      1.0000 0.00130  0.66620  0.17280  Biso   1.000  C
  C43      1.0000 0.99870  0.16620  0.32720  Biso   1.000  C
  C44      1.0000 0.99870  0.33380  0.82720  Biso   1.000  C
  C45      1.0000 0.05500  0.80390  0.79600  Biso   1.000  C
  C46      1.0000 0.05500  0.69610  0.29600  Biso   1.000  C
  C47      1.0000 0.94500  0.19610  0.20400  Biso   1.000  C
  C48      1.0000 0.94500  0.30390  0.70400  Biso   1.000  C
  H9       1.0000 0.20200  0.80500  0.84900  Biso   1.000  H
  H10      1.0000 0.20200  0.69500  0.34900  Biso   1.000  H
  H11      1.0000 0.79800  0.19500  0.15100  Biso   1.000  H
  H12      1.0000 0.79800  0.30500  0.65100  Biso   1.000  H
  H13      1.0000 0.05100  0.77800  0.76400  Biso   1.000  H
  H14      1.0000 0.05100  0.72200  0.26400  Biso   1.000  H
  H15      1.0000 0.94900  0.22200  0.23600  Biso   1.000  H
  H16      1.0000 0.94900  0.27800  0.73600  Biso   1.000  H
  H17      1.0000 0.08000  0.81400  0.89000  Biso   1.000  H
  H18      1.0000 0.08000  0.68600  0.39000  Biso   1.000  H
  H19      1.0000 0.92000  0.18600  0.11000  Biso   1.000  H
  H20      1.0000 0.92000  0.31400  0.61000  Biso   1.000  H
  C49      1.0000 0.83150  0.83510  0.61500  Biso   1.000  C
  C50      1.0000 0.83150  0.66490  0.11500  Biso   1.000  C
  C51      1.0000 0.16850  0.16490  0.38500  Biso   1.000  C
  C52      1.0000 0.16850  0.33510  0.88500  Biso   1.000  C
  H21      1.0000 0.80320  0.83760  0.69980  Biso   1.000  H
  H22      1.0000 0.80320  0.66240  0.19980  Biso   1.000  H
  H23      1.0000 0.19680  0.16240  0.30020  Biso   1.000  H
  H24      1.0000 0.19680  0.33760  0.80020  Biso   1.000  H
  H25      1.0000 0.79070  0.81170  0.56130  Biso   1.000  H
  H26      1.0000 0.79070  0.68830  0.06130  Biso   1.000  H
  H27      1.0000 0.20930  0.18830  0.43870  Biso   1.000  H
  H28      1.0000 0.20930  0.31170  0.93870  Biso   1.000  H
  H29      1.0000 0.79500  0.85690  0.54900  Biso   1.000  H
  H30      1.0000 0.79500  0.64310  0.04900  Biso   1.000  H
  H31      1.0000 0.20500  0.14310  0.45100  Biso   1.000  H
  H32      1.0000 0.20500  0.35690  0.95100  Biso   1.000  H
  C53      1.0000 0.05920  0.83110  0.55020  Biso   1.000  C
  C54      1.0000 0.05920  0.66890  0.05020  Biso   1.000  C
  C55      1.0000 0.94080  0.16890  0.44980  Biso   1.000  C
  C56      1.0000 0.94080  0.33110  0.94980  Biso   1.000  C
  C57      1.0000 0.96300  0.81060  0.40600  Biso   1.000  C
  C58      1.0000 0.96300  0.68940  0.90600  Biso   1.000  C
  C59      1.0000 0.03700  0.18940  0.59400  Biso   1.000  C
  C60      1.0000 0.03700  0.31060  0.09400  Biso   1.000  C
  H33      1.0000 0.83000  0.82600  0.37000  Biso   1.000  H
  H34      1.0000 0.83000  0.67400  0.87000  Biso   1.000  H
  H35      1.0000 0.17000  0.17400  0.63000  Biso   1.000  H
  H36      1.0000 0.17000  0.32600  0.13000  Biso   1.000  H
  H37      1.0000 0.97600  0.78700  0.43200  Biso   1.000  H
  H38      1.0000 0.97600  0.71300  0.93200  Biso   1.000  H
  H39      1.0000 0.02400  0.21300  0.56800  Biso   1.000  H
  H40      1.0000 0.02400  0.28700  0.06800  Biso   1.000  H
  H41      1.0000 0.99500  0.80800  0.32700  Biso   1.000  H
  H42      1.0000 0.99500  0.69200  0.82700  Biso   1.000  H
  H43      1.0000 0.00500  0.19200  0.67300  Biso   1.000  H
  H44      1.0000 0.00500  0.30800  0.17300  Biso   1.000  H
  C61      1.0000 0.22100  0.81650  0.60900  Biso   1.000  C
  C62      1.0000 0.22100  0.68350  0.10900  Biso   1.000  C
  C63      1.0000 0.77900  0.18350  0.39100  Biso   1.000  C
  C64      1.0000 0.77900  0.31650  0.89100  Biso   1.000  C
  H45      1.0000 0.23700  0.82000  0.49300  Biso   1.000  H
  H46      1.0000 0.23700  0.68000  0.99300  Biso   1.000  H
  H47      1.0000 0.76300  0.18000  0.50700  Biso   1.000  H
  H48      1.0000 0.76300  0.32000  0.00700  Biso   1.000  H
  H49      1.0000 0.22600  0.78800  0.61200  Biso   1.000  H
  H50      1.0000 0.22600  0.71200  0.11200  Biso   1.000  H
  H51      1.0000 0.77400  0.21200  0.38800  Biso   1.000  H
  H52      1.0000 0.77400  0.28800  0.88800  Biso   1.000  H
  H53      1.0000 0.30200  0.82900  0.74200  Biso   1.000  H
  H54      1.0000 0.30200  0.67100  0.24200  Biso   1.000  H
  H55      1.0000 0.69800  0.17100  0.25800  Biso   1.000  H
  H56      1.0000 0.69800  0.32900  0.75800  Biso   1.000  H
  N5       1.0000 0.06940  0.87310  0.51620  Biso   1.000  N
  N6       1.0000 0.06940  0.62690  0.01620  Biso   1.000  N
  N7       1.0000 0.93060  0.12690  0.48380  Biso   1.000  N
  N8       1.0000 0.93060  0.37310  0.98380  Biso   1.000  N
  O21      1.0000 0.07980  0.88340  0.39210  Biso   1.000  O
  O22      1.0000 0.07980  0.61660  0.89210  Biso   1.000  O
  O23      1.0000 0.92020  0.11660  0.60790  Biso   1.000  O
  O24      1.0000 0.92020  0.38340  0.10790  Biso   1.000  O
  C65      1.0000 0.07750  0.89520  0.63260  Biso   1.000  C
  C66      1.0000 0.07750  0.60480  0.13260  Biso   1.000  C
  C67      1.0000 0.92250  0.10480  0.36740  Biso   1.000  C
  C68      1.0000 0.92250  0.39520  0.86740  Biso   1.000  C
  C69      1.0000 0.11100  0.93630  0.64690  Biso   1.000  C
  C70      1.0000 0.11100  0.56370  0.14690  Biso   1.000  C
  C71      1.0000 0.88900  0.06370  0.35310  Biso   1.000  C
  C72      1.0000 0.88900  0.43630  0.85310  Biso   1.000  C
  C73      1.0000 0.18970  0.95220  0.56710  Biso   1.000  C
  C74      1.0000 0.18970  0.54780  0.06710  Biso   1.000  C
  C75      1.0000 0.81030  0.04780  0.43290  Biso   1.000  C
  C76      1.0000 0.81030  0.45220  0.93290  Biso   1.000  C
  H57      1.0000 0.22500  0.93100  0.49700  Biso   1.000  H
  H58      1.0000 0.22500  0.56900  0.99700  Biso   1.000  H
  H59      1.0000 0.77500  0.06900  0.50300  Biso   1.000  H
  H60      1.0000 0.77500  0.43100  0.00300  Biso   1.000  H
  C77      1.0000 0.22690  0.99100  0.58700  Biso   1.000  C
  C78      1.0000 0.22690  0.50900  0.08700  Biso   1.000  C
  C79      1.0000 0.77310  0.00900  0.41300  Biso   1.000  C
  C80      1.0000 0.77310  0.49100  0.91300  Biso   1.000  C
  H61      1.0000 0.28100  0.00200  0.51000  Biso   1.000  H
  H62      1.0000 0.28100  0.49800  0.01000  Biso   1.000  H
  H63      1.0000 0.71900  0.99800  0.49000  Biso   1.000  H
  H64      1.0000 0.71900  0.50200  0.99000  Biso   1.000  H
  C81      1.0000 0.18480  0.01450  0.67680  Biso   1.000  C
  C82      1.0000 0.18480  0.48550  0.17680  Biso   1.000  C
  C83      1.0000 0.81520  0.98550  0.32320  Biso   1.000  C
  C84      1.0000 0.81520  0.51450  0.82320  Biso   1.000  C
  C85      1.0000 0.10160  0.99970  0.75160  Biso   1.000  C
  C86      1.0000 0.10160  0.50030  0.25160  Biso   1.000  C
  C87      1.0000 0.89840  0.00030  0.24840  Biso   1.000  C
  C88      1.0000 0.89840  0.49970  0.74840  Biso   1.000  C
  H65      1.0000 0.09700  0.01500  0.84400  Biso   1.000  H
  H66      1.0000 0.09700  0.48500  0.34400  Biso   1.000  H
  H67      1.0000 0.90300  0.98500  0.15600  Biso   1.000  H
  H68      1.0000 0.90300  0.51500  0.65600  Biso   1.000  H
  C89      1.0000 0.06860  0.96020  0.73840  Biso   1.000  C
  C90      1.0000 0.06860  0.53980  0.23840  Biso   1.000  C
  C91      1.0000 0.93140  0.03980  0.26160  Biso   1.000  C
  C92      1.0000 0.93140  0.46020  0.76160  Biso   1.000  C
  H69      1.0000 0.01000  0.94900  0.79000  Biso   1.000  H
  H70      1.0000 0.01000  0.55100  0.29000  Biso   1.000  H
  H71      1.0000 0.99000  0.05100  0.21000  Biso   1.000  H
  H72      1.0000 0.99000  0.44900  0.71000  Biso   1.000  H
  C93      1.0000 0.22220  0.05550  0.68900  Biso   1.000  C
  C94      1.0000 0.22220  0.44450  0.18900  Biso   1.000  C
  C95      1.0000 0.77780  0.94450  0.31100  Biso   1.000  C
  C96      1.0000 0.77780  0.55550  0.81100  Biso   1.000  C
  N9       1.0000 0.25420  0.08680  0.68650  Biso   1.000  N
  N10      1.0000 0.25420  0.41320  0.18650  Biso   1.000  N
  N11      1.0000 0.74580  0.91320  0.31350  Biso   1.000  N
  N12      1.0000 0.74580  0.58680  0.81350  Biso   1.000  N
