data_image0
_cell_length_a       11.431
_cell_length_b       12.317
_cell_length_c       12.682
_cell_angle_alpha    91.05
_cell_angle_beta     107.13
_cell_angle_gamma    116.26

_symmetry_space_group_name_H-M    "P 1"
_symmetry_int_tables_number       1

loop_
  _symmetry_equiv_pos_as_xyz
  'x, y, z'

loop_
  _atom_site_label
  _atom_site_occupancy
  _atom_site_fract_x
  _atom_site_fract_y
  _atom_site_fract_z
  _atom_site_thermal_displace_type
  _atom_site_B_iso_or_equiv
  _atom_site_type_symbol
  Cu1      1.0000 0.50000  0.00000  0.50000  Biso   1.000  Cu
  O1       1.0000 0.55480  0.88390  0.57020  Biso   1.000  O
  O2       1.0000 0.44520  0.11610  0.42980  Biso   1.000  O
  C1       1.0000 0.70060  0.81070  0.66760  Biso   1.000  C
  C2       1.0000 0.29940  0.18930  0.33240  Biso   1.000  C
  F1       1.0000 0.61150  0.70140  0.63420  Biso   1.000  F
  F2       1.0000 0.38850  0.29860  0.36580  Biso   1.000  F
  F3       1.0000 0.81520  0.81220  0.68910  Biso   1.000  F
  F4       1.0000 0.18480  0.18780  0.31090  Biso   1.000  F
  F5       1.0000 0.69720  0.82990  0.76250  Biso   1.000  F
  F6       1.0000 0.30280  0.17010  0.23750  Biso   1.000  F
  C3       1.0000 0.67610  0.89510  0.59200  Biso   1.000  C
  C4       1.0000 0.32390  0.10490  0.40800  Biso   1.000  C
  C5       1.0000 0.77860  0.97330  0.55800  Biso   1.000  C
  C6       1.0000 0.22140  0.02670  0.44200  Biso   1.000  C
  H1       1.0000 0.87000  0.98900  0.58000  Biso   1.000  H
  H2       1.0000 0.13000  0.01100  0.42000  Biso   1.000  H
  C7       1.0000 0.76500  0.05510  0.48760  Biso   1.000  C
  C8       1.0000 0.23500  0.94490  0.51240  Biso   1.000  C
  C9       1.0000 0.88680  0.13590  0.45290  Biso   1.000  C
  C10      1.0000 0.11320  0.86410  0.54710  Biso   1.000  C
  F7       1.0000 0.87330  0.21990  0.39920  Biso   1.000  F
  F8       1.0000 0.12670  0.78010  0.60080  Biso   1.000  F
  F9       1.0000 0.00180  0.18690  0.53580  Biso   1.000  F
  F10      1.0000 0.99820  0.81310  0.46420  Biso   1.000  F
  F11      1.0000 0.90770  0.07190  0.38340  Biso   1.000  F
  F12      1.0000 0.09230  0.92810  0.61660  Biso   1.000  F
  O3       1.0000 0.65950  0.07060  0.44870  Biso   1.000  O
  O4       1.0000 0.34050  0.92940  0.55130  Biso   1.000  O
  Cu2      1.0000 0.50000  0.50000  0.00000  Biso   1.000  Cu
  O5       1.0000 0.33660  0.34920  0.98640  Biso   1.000  O
  O6       1.0000 0.66340  0.65080  0.01360  Biso   1.000  O
  C11      1.0000 0.11360  0.18360  0.91480  Biso   1.000  C
  C12      1.0000 0.88640  0.81640  0.08520  Biso   1.000  C
  F13      1.0000 0.06400  0.09930  0.82400  Biso   1.000  F
  F14      1.0000 0.93600  0.90070  0.17600  Biso   1.000  F
  F15      1.0000 0.17000  0.13100  0.98700  Biso   1.000  F
  F16      1.0000 0.83000  0.86900  0.01300  Biso   1.000  F
  F17      1.0000 0.02700  0.20200  0.93700  Biso   1.000  F
  F18      1.0000 0.97300  0.79800  0.06300  Biso   1.000  F
  C13      1.0000 0.22690  0.30390  0.90370  Biso   1.000  C
  C14      1.0000 0.77310  0.69610  0.09630  Biso   1.000  C
  C15      1.0000 0.19820  0.35500  0.80890  Biso   1.000  C
  C16      1.0000 0.80180  0.64500  0.19110  Biso   1.000  C
  H3       1.0000 0.11500  0.31300  0.75200  Biso   1.000  H
  H4       1.0000 0.88500  0.68700  0.24800  Biso   1.000  H
  C17      1.0000 0.29260  0.46630  0.79520  Biso   1.000  C
  C18      1.0000 0.70740  0.53370  0.20480  Biso   1.000  C
  C19      1.0000 0.24910  0.51540  0.68850  Biso   1.000  C
  C20      1.0000 0.75090  0.48460  0.31150  Biso   1.000  C
  F19      1.0000 0.13100  0.50400  0.66500  Biso   1.000  F
  F20      1.0000 0.86900  0.49600  0.33500  Biso   1.000  F
  F21      1.0000 0.24400  0.45400  0.60200  Biso   1.000  F
  F22      1.0000 0.75600  0.54600  0.39800  Biso   1.000  F
  F23      1.0000 0.33400  0.62800  0.68700  Biso   1.000  F
  F24      1.0000 0.66600  0.37200  0.31300  Biso   1.000  F
  O7       1.0000 0.41160  0.53680  0.86110  Biso   1.000  O
  O8       1.0000 0.58840  0.46320  0.13890  Biso   1.000  O
  O9       1.0000 0.66490  0.13790  0.67250  Biso   1.000  O
  O10      1.0000 0.33510  0.86210  0.32750  Biso   1.000  O
  N1       1.0000 0.65420  0.22460  0.72140  Biso   1.000  N
  N2       1.0000 0.34580  0.77540  0.27860  Biso   1.000  N
  C21      1.0000 0.74680  0.35620  0.72120  Biso   1.000  C
  C22      1.0000 0.25320  0.64380  0.27880  Biso   1.000  C
  C23      1.0000 0.88670  0.38790  0.81430  Biso   1.000  C
  C24      1.0000 0.11330  0.61210  0.18570  Biso   1.000  C
  H5       1.0000 0.94000  0.33600  0.78600  Biso   1.000  H
  H6       1.0000 0.06000  0.66400  0.21400  Biso   1.000  H
  H7       1.0000 0.86700  0.37500  0.89200  Biso   1.000  H
  H8       1.0000 0.13300  0.62500  0.10800  Biso   1.000  H
  H9       1.0000 0.95400  0.46500  0.80600  Biso   1.000  H
  H10      1.0000 0.04600  0.53500  0.19400  Biso   1.000  H
  C25      1.0000 0.76360  0.37300  0.60910  Biso   1.000  C
  C26      1.0000 0.23640  0.62700  0.39090  Biso   1.000  C
  H11      1.0000 0.66300  0.34000  0.53900  Biso   1.000  H
  H12      1.0000 0.33700  0.66000  0.46100  Biso   1.000  H
  H13      1.0000 0.82500  0.33000  0.59500  Biso   1.000  H
  H14      1.0000 0.17500  0.67000  0.40500  Biso   1.000  H
  H15      1.0000 0.80500  0.44900  0.60600  Biso   1.000  H
  H16      1.0000 0.19500  0.55100  0.39400  Biso   1.000  H
  C27      1.0000 0.66780  0.41670  0.75690  Biso   1.000  C
  C28      1.0000 0.33220  0.58330  0.24310  Biso   1.000  C
  C29      1.0000 0.55460  0.41970  0.65490  Biso   1.000  C
  C30      1.0000 0.44540  0.58030  0.34510  Biso   1.000  C
  H17      1.0000 0.51100  0.44900  0.69200  Biso   1.000  H
  H18      1.0000 0.48900  0.55100  0.30800  Biso   1.000  H
  H19      1.0000 0.50300  0.34900  0.60800  Biso   1.000  H
  H20      1.0000 0.49700  0.65100  0.39200  Biso   1.000  H
  H21      1.0000 0.62800  0.50000  0.61400  Biso   1.000  H
  H22      1.0000 0.37200  0.50000  0.38600  Biso   1.000  H
  C31      1.0000 0.75460  0.54000  0.82880  Biso   1.000  C
  C32      1.0000 0.24540  0.46000  0.17120  Biso   1.000  C
  H23      1.0000 0.81300  0.52500  0.90500  Biso   1.000  H
  H24      1.0000 0.18700  0.47500  0.09500  Biso   1.000  H
  H25      1.0000 0.70100  0.57000  0.84700  Biso   1.000  H
  H26      1.0000 0.29900  0.43000  0.15300  Biso   1.000  H
  H27      1.0000 0.83100  0.60300  0.80600  Biso   1.000  H
  H28      1.0000 0.16900  0.39700  0.19400  Biso   1.000  H
  N3       1.0000 0.59130  0.32330  0.81810  Biso   1.000  N
  N4       1.0000 0.40870  0.67670  0.18190  Biso   1.000  N
  O11      1.0000 0.53420  0.34480  0.88170  Biso   1.000  O
  O12      1.0000 0.46580  0.65520  0.11830  Biso   1.000  O
  C33      1.0000 0.57840  0.21200  0.78690  Biso   1.000  C
  C34      1.0000 0.42160  0.78800  0.21310  Biso   1.000  C
  C35      1.0000 0.49970  0.09680  0.81930  Biso   1.000  C
  C36      1.0000 0.50030  0.90320  0.18070  Biso   1.000  C
  C37      1.0000 0.38000  0.07660  0.84180  Biso   1.000  C
  C38      1.0000 0.62000  0.92340  0.15820  Biso   1.000  C
  H29      1.0000 0.35900  0.14300  0.84200  Biso   1.000  H
  H30      1.0000 0.64100  0.85700  0.15800  Biso   1.000  H
  C39      1.0000 0.30380  0.96390  0.87080  Biso   1.000  C
  C40      1.0000 0.69620  0.03610  0.12920  Biso   1.000  C
  H31      1.0000 0.23700  0.96300  0.88400  Biso   1.000  H
  H32      1.0000 0.76300  0.03700  0.11600  Biso   1.000  H
  C41      1.0000 0.34400  0.87590  0.87810  Biso   1.000  C
  C42      1.0000 0.65600  0.12410  0.12190  Biso   1.000  C
  C43      1.0000 0.26000  0.76030  0.90750  Biso   1.000  C
  C44      1.0000 0.74000  0.23970  0.09250  Biso   1.000  C
  N5       1.0000 0.19630  0.67020  0.93110  Biso   1.000  N
  N6       1.0000 0.80370  0.32980  0.06890  Biso   1.000  N
  C45      1.0000 0.46090  0.89540  0.85610  Biso   1.000  C
  C46      1.0000 0.53910  0.10460  0.14390  Biso   1.000  C
  H33      1.0000 0.48900  0.81800  0.88400  Biso   1.000  H
  H34      1.0000 0.51100  0.18200  0.11600  Biso   1.000  H
  C47      1.0000 0.53450  0.00350  0.82730  Biso   1.000  C
  C48      1.0000 0.46550  0.99650  0.17270  Biso   1.000  C
  H35      1.0000 0.60300  0.02400  0.82200  Biso   1.000  H
  H36      1.0000 0.39700  0.97600  0.17800  Biso   1.000  H
  F25      1.0000 0.00000  0.13900  0.82600  Biso   1.000  F
  F26      1.0000 0.00000  0.86100  0.17400  Biso   1.000  F
  F27      1.0000 0.06900  0.19480  0.99650  Biso   1.000  F
  F28      1.0000 0.93100  0.80520  0.00350  Biso   1.000  F
  F29      1.0000 0.14200  0.09900  0.93900  Biso   1.000  F
  F30      1.0000 0.85800  0.90100  0.06100  Biso   1.000  F
  F31      1.0000 0.29400  0.62700  0.70500  Biso   1.000  F
  F32      1.0000 0.70600  0.37300  0.29500  Biso   1.000  F
  F33      1.0000 0.11300  0.47200  0.64100  Biso   1.000  F
  F34      1.0000 0.88700  0.52800  0.35900  Biso   1.000  F
  F35      1.0000 0.28700  0.47800  0.61200  Biso   1.000  F
  F36      1.0000 0.71300  0.52200  0.38800  Biso   1.000  F
