data_image0
_cell_length_a       9.08
_cell_length_b       9.031
_cell_length_c       17.168
_cell_angle_alpha    90
_cell_angle_beta     99.25
_cell_angle_gamma    90

_symmetry_space_group_name_H-M    "P 1"
_symmetry_int_tables_number       1

loop_
  _symmetry_equiv_pos_as_xyz
  'x, y, z'

loop_
  _atom_site_label
  _atom_site_occupancy
  _atom_site_fract_x
  _atom_site_fract_y
  _atom_site_fract_z
  _atom_site_thermal_displace_type
  _atom_site_B_iso_or_equiv
  _atom_site_type_symbol
  Cu1      1.0000 0.86195  0.61846  0.45718  Biso   1.000  Cu
  Cu2      1.0000 0.36195  0.88154  0.95718  Biso   1.000  Cu
  Cu3      1.0000 0.13805  0.38154  0.54282  Biso   1.000  Cu
  Cu4      1.0000 0.63805  0.11846  0.04282  Biso   1.000  Cu
  O1       1.0000 0.65800  0.68910  0.46940  Biso   1.000  O
  O2       1.0000 0.15800  0.81090  0.96940  Biso   1.000  O
  O3       1.0000 0.34200  0.31090  0.53060  Biso   1.000  O
  O4       1.0000 0.84200  0.18910  0.03060  Biso   1.000  O
  O5       1.0000 0.69030  0.83560  0.36979  Biso   1.000  O
  O6       1.0000 0.19030  0.66440  0.86979  Biso   1.000  O
  O7       1.0000 0.30970  0.16440  0.63021  Biso   1.000  O
  O8       1.0000 0.80970  0.33560  0.13021  Biso   1.000  O
  C1       1.0000 0.61460  0.78820  0.41863  Biso   1.000  C
  C2       1.0000 0.11460  0.71180  0.91863  Biso   1.000  C
  C3       1.0000 0.38540  0.21180  0.58137  Biso   1.000  C
  C4       1.0000 0.88540  0.28820  0.08137  Biso   1.000  C
  C5       1.0000 0.45790  0.84930  0.41660  Biso   1.000  C
  C6       1.0000 0.95790  0.65070  0.91660  Biso   1.000  C
  C7       1.0000 0.54210  0.15070  0.58340  Biso   1.000  C
  C8       1.0000 0.04210  0.34930  0.08340  Biso   1.000  C
  C9       1.0000 0.35990  0.82570  0.33690  Biso   1.000  C
  C10      1.0000 0.85990  0.67430  0.83690  Biso   1.000  C
  C11      1.0000 0.64010  0.17430  0.66310  Biso   1.000  C
  C12      1.0000 0.14010  0.32570  0.16310  Biso   1.000  C
  C13      1.0000 0.33910  0.66490  0.31247  Biso   1.000  C
  C14      1.0000 0.83910  0.83510  0.81247  Biso   1.000  C
  C15      1.0000 0.66090  0.33510  0.68753  Biso   1.000  C
  C16      1.0000 0.16090  0.16490  0.18753  Biso   1.000  C
  C17      1.0000 0.26730  0.56820  0.36780  Biso   1.000  C
  C18      1.0000 0.76730  0.93180  0.86780  Biso   1.000  C
  C19      1.0000 0.73270  0.43180  0.63220  Biso   1.000  C
  C20      1.0000 0.23270  0.06820  0.13220  Biso   1.000  C
  C21      1.0000 0.11040  0.61130  0.37878  Biso   1.000  C
  C22      1.0000 0.61040  0.88870  0.87878  Biso   1.000  C
  C23      1.0000 0.88960  0.38870  0.62122  Biso   1.000  C
  C24      1.0000 0.38960  0.11130  0.12122  Biso   1.000  C
  O9       1.0000 0.03250  0.68780  0.32919  Biso   1.000  O
  O10      1.0000 0.53250  0.81220  0.82919  Biso   1.000  O
  O11      1.0000 0.96750  0.31220  0.67081  Biso   1.000  O
  O12      1.0000 0.46750  0.18780  0.17081  Biso   1.000  O
  O13      1.0000 0.06600  0.56100  0.44081  Biso   1.000  O
  O14      1.0000 0.56600  0.93900  0.94081  Biso   1.000  O
  O15      1.0000 0.93400  0.43900  0.55919  Biso   1.000  O
  O16      1.0000 0.43400  0.06100  0.05919  Biso   1.000  O
  N1       1.0000 0.76160  0.46810  0.38281  Biso   1.000  N
  N2       1.0000 0.26160  0.03190  0.88281  Biso   1.000  N
  N3       1.0000 0.23840  0.53190  0.61719  Biso   1.000  N
  N4       1.0000 0.73840  0.96810  0.11719  Biso   1.000  N
  C25      1.0000 0.63310  0.39140  0.39150  Biso   1.000  C
  C26      1.0000 0.13310  0.10860  0.89150  Biso   1.000  C
  C27      1.0000 0.36690  0.60860  0.60850  Biso   1.000  C
  C28      1.0000 0.86690  0.89140  0.10850  Biso   1.000  C
  C29      1.0000 0.59090  0.30350  0.32890  Biso   1.000  C
  C30      1.0000 0.09090  0.19650  0.82890  Biso   1.000  C
  C31      1.0000 0.40910  0.69650  0.67110  Biso   1.000  C
  C32      1.0000 0.90910  0.80350  0.17110  Biso   1.000  C
  N5       1.0000 0.69500  0.32440  0.28042  Biso   1.000  N
  N6       1.0000 0.19500  0.17560  0.78042  Biso   1.000  N
  N7       1.0000 0.30500  0.67560  0.71958  Biso   1.000  N
  N8       1.0000 0.80500  0.82440  0.21958  Biso   1.000  N
  C33      1.0000 0.79470  0.42230  0.31420  Biso   1.000  C
  C34      1.0000 0.29470  0.07770  0.81420  Biso   1.000  C
  C35      1.0000 0.20530  0.57770  0.68580  Biso   1.000  C
  C36      1.0000 0.70530  0.92230  0.18580  Biso   1.000  C
  N9       1.0000 0.94800  0.77440  0.53197  Biso   1.000  N
  N10      1.0000 0.44800  0.72560  0.03197  Biso   1.000  N
  N11      1.0000 0.05200  0.22560  0.46803  Biso   1.000  N
  N12      1.0000 0.55200  0.27440  0.96803  Biso   1.000  N
  C37      1.0000 0.07770  0.84060  0.53706  Biso   1.000  C
  C38      1.0000 0.57770  0.65940  0.03706  Biso   1.000  C
  C39      1.0000 0.92230  0.15940  0.46294  Biso   1.000  C
  C40      1.0000 0.42230  0.34060  0.96294  Biso   1.000  C
  N13      1.0000 0.09920  0.93760  0.59552  Biso   1.000  N
  N14      1.0000 0.59920  0.56240  0.09552  Biso   1.000  N
  N15      1.0000 0.90080  0.06240  0.40448  Biso   1.000  N
  N16      1.0000 0.40080  0.43760  0.90448  Biso   1.000  N
  C41      1.0000 0.97660  0.93490  0.63150  Biso   1.000  C
  C42      1.0000 0.47660  0.56510  0.13150  Biso   1.000  C
  C43      1.0000 0.02340  0.06510  0.36850  Biso   1.000  C
  C44      1.0000 0.52340  0.43490  0.86850  Biso   1.000  C
  C45      1.0000 0.88440  0.83460  0.59200  Biso   1.000  C
  C46      1.0000 0.38440  0.66540  0.09200  Biso   1.000  C
  C47      1.0000 0.11560  0.16540  0.40800  Biso   1.000  C
  C48      1.0000 0.61560  0.33460  0.90800  Biso   1.000  C
  H1       1.0000 0.41400  0.80400  0.45830  Biso   1.000  H
  H2       1.0000 0.91400  0.69600  0.95830  Biso   1.000  H
  H3       1.0000 0.58600  0.19600  0.54170  Biso   1.000  H
  H4       1.0000 0.08600  0.30400  0.04170  Biso   1.000  H
  H5       1.0000 0.46600  0.94800  0.42710  Biso   1.000  H
  H6       1.0000 0.96600  0.55200  0.92710  Biso   1.000  H
  H7       1.0000 0.53400  0.05200  0.57290  Biso   1.000  H
  H8       1.0000 0.03400  0.44800  0.07290  Biso   1.000  H
  H9       1.0000 0.40900  0.87900  0.29700  Biso   1.000  H
  H10      1.0000 0.90900  0.62100  0.79700  Biso   1.000  H
  H11      1.0000 0.59100  0.12100  0.70300  Biso   1.000  H
  H12      1.0000 0.09100  0.37900  0.20300  Biso   1.000  H
  H13      1.0000 0.27100  0.87100  0.34000  Biso   1.000  H
  H14      1.0000 0.77100  0.62900  0.84000  Biso   1.000  H
  H15      1.0000 0.72900  0.12900  0.66000  Biso   1.000  H
  H16      1.0000 0.22900  0.37100  0.16000  Biso   1.000  H
  H17      1.0000 0.28400  0.65900  0.26500  Biso   1.000  H
  H18      1.0000 0.78400  0.84100  0.76500  Biso   1.000  H
  H19      1.0000 0.71600  0.34100  0.73500  Biso   1.000  H
  H20      1.0000 0.21600  0.15900  0.23500  Biso   1.000  H
  H21      1.0000 0.43000  0.62100  0.30430  Biso   1.000  H
  H22      1.0000 0.93000  0.87900  0.80430  Biso   1.000  H
  H23      1.0000 0.57000  0.37900  0.69570  Biso   1.000  H
  H24      1.0000 0.07000  0.12100  0.19570  Biso   1.000  H
  H25      1.0000 0.26300  0.46200  0.35240  Biso   1.000  H
  H26      1.0000 0.76300  0.03800  0.85240  Biso   1.000  H
  H27      1.0000 0.73700  0.53800  0.64760  Biso   1.000  H
  H28      1.0000 0.23700  0.96200  0.14760  Biso   1.000  H
  H29      1.0000 0.32300  0.56600  0.42000  Biso   1.000  H
  H30      1.0000 0.82300  0.93400  0.92000  Biso   1.000  H
  H31      1.0000 0.67700  0.43400  0.58000  Biso   1.000  H
  H32      1.0000 0.17700  0.06600  0.08000  Biso   1.000  H
  H33      1.0000 0.58900  0.40300  0.43420  Biso   1.000  H
  H34      1.0000 0.08900  0.09700  0.93420  Biso   1.000  H
  H35      1.0000 0.41100  0.59700  0.56580  Biso   1.000  H
  H36      1.0000 0.91100  0.90300  0.06580  Biso   1.000  H
  H37      1.0000 0.50500  0.22600  0.31400  Biso   1.000  H
  H38      1.0000 0.00500  0.27400  0.81400  Biso   1.000  H
  H39      1.0000 0.49500  0.77400  0.68600  Biso   1.000  H
  H40      1.0000 0.99500  0.72600  0.18600  Biso   1.000  H
  H41      1.0000 0.69300  0.29300  0.23700  Biso   1.000  H
  H42      1.0000 0.19300  0.20700  0.73700  Biso   1.000  H
  H43      1.0000 0.30700  0.70700  0.76300  Biso   1.000  H
  H44      1.0000 0.80700  0.79300  0.26300  Biso   1.000  H
  H45      1.0000 0.87200  0.44700  0.29000  Biso   1.000  H
  H46      1.0000 0.37200  0.05300  0.79000  Biso   1.000  H
  H47      1.0000 0.12800  0.55300  0.71000  Biso   1.000  H
  H48      1.0000 0.62800  0.94700  0.21000  Biso   1.000  H
  H49      1.0000 0.16700  0.99100  0.60400  Biso   1.000  H
  H50      1.0000 0.66700  0.50900  0.10400  Biso   1.000  H
  H51      1.0000 0.83300  0.00900  0.39600  Biso   1.000  H
  H52      1.0000 0.33300  0.49100  0.89600  Biso   1.000  H
  H53      1.0000 0.12900  0.82100  0.50590  Biso   1.000  H
  H54      1.0000 0.62900  0.67900  0.00590  Biso   1.000  H
  H55      1.0000 0.87100  0.17900  0.49410  Biso   1.000  H
  H56      1.0000 0.37100  0.32100  0.99410  Biso   1.000  H
  H57      1.0000 0.96500  0.99400  0.67000  Biso   1.000  H
  H58      1.0000 0.46500  0.50600  0.17000  Biso   1.000  H
  H59      1.0000 0.03500  0.00600  0.33000  Biso   1.000  H
  H60      1.0000 0.53500  0.49400  0.83000  Biso   1.000  H
  H61      1.0000 0.79200  0.80300  0.59820  Biso   1.000  H
  H62      1.0000 0.29200  0.69700  0.09820  Biso   1.000  H
  H63      1.0000 0.20800  0.19700  0.40180  Biso   1.000  H
  H64      1.0000 0.70800  0.30300  0.90180  Biso   1.000  H
