data_image0
_cell_length_a       21.435
_cell_length_b       5.274
_cell_length_c       14.164
_cell_angle_alpha    90
_cell_angle_beta     116.65
_cell_angle_gamma    90

_symmetry_space_group_name_H-M    "P 1"
_symmetry_int_tables_number       1

loop_
  _symmetry_equiv_pos_as_xyz
  'x, y, z'

loop_
  _atom_site_label
  _atom_site_occupancy
  _atom_site_fract_x
  _atom_site_fract_y
  _atom_site_fract_z
  _atom_site_thermal_displace_type
  _atom_site_B_iso_or_equiv
  _atom_site_type_symbol
  C1       1.0000 0.37485  0.75540  0.82142  Biso   1.000  C
  C2       1.0000 0.62515  0.75540  0.67858  Biso   1.000  C
  C3       1.0000 0.87485  0.25540  0.82142  Biso   1.000  C
  C4       1.0000 0.12515  0.25540  0.67858  Biso   1.000  C
  C5       1.0000 0.62515  0.24460  0.17858  Biso   1.000  C
  C6       1.0000 0.37485  0.24460  0.32142  Biso   1.000  C
  C7       1.0000 0.12515  0.74460  0.17858  Biso   1.000  C
  C8       1.0000 0.87485  0.74460  0.32142  Biso   1.000  C
  H1       1.0000 0.34320  0.87260  0.82400  Biso   1.000  H
  H2       1.0000 0.65680  0.87260  0.67600  Biso   1.000  H
  H3       1.0000 0.84320  0.37260  0.82400  Biso   1.000  H
  H4       1.0000 0.15680  0.37260  0.67600  Biso   1.000  H
  H5       1.0000 0.65680  0.12740  0.17600  Biso   1.000  H
  H6       1.0000 0.34320  0.12740  0.32400  Biso   1.000  H
  H7       1.0000 0.15680  0.62740  0.17600  Biso   1.000  H
  H8       1.0000 0.84320  0.62740  0.32400  Biso   1.000  H
  C9       1.0000 0.35883  0.55940  0.75310  Biso   1.000  C
  C10      1.0000 0.64117  0.55940  0.74690  Biso   1.000  C
  C11      1.0000 0.85883  0.05940  0.75310  Biso   1.000  C
  C12      1.0000 0.14117  0.05940  0.74690  Biso   1.000  C
  C13      1.0000 0.64117  0.44060  0.24690  Biso   1.000  C
  C14      1.0000 0.35883  0.44060  0.25310  Biso   1.000  C
  C15      1.0000 0.14117  0.94060  0.24690  Biso   1.000  C
  C16      1.0000 0.85883  0.94060  0.25310  Biso   1.000  C
  H9       1.0000 0.31480  0.51800  0.70020  Biso   1.000  H
  H10      1.0000 0.68520  0.51800  0.79980  Biso   1.000  H
  H11      1.0000 0.81480  0.01800  0.70020  Biso   1.000  H
  H12      1.0000 0.18520  0.01800  0.79980  Biso   1.000  H
  H13      1.0000 0.68520  0.48200  0.29980  Biso   1.000  H
  H14      1.0000 0.31480  0.48200  0.20020  Biso   1.000  H
  H15      1.0000 0.18520  0.98200  0.29980  Biso   1.000  H
  H16      1.0000 0.81480  0.98200  0.20020  Biso   1.000  H
  C17      1.0000 0.47038  0.55530  0.85630  Biso   1.000  C
  C18      1.0000 0.52962  0.55530  0.64370  Biso   1.000  C
  C19      1.0000 0.97038  0.05530  0.85630  Biso   1.000  C
  C20      1.0000 0.02962  0.05530  0.64370  Biso   1.000  C
  C21      1.0000 0.52962  0.44470  0.14370  Biso   1.000  C
  C22      1.0000 0.47038  0.44470  0.35630  Biso   1.000  C
  C23      1.0000 0.02962  0.94470  0.14370  Biso   1.000  C
  C24      1.0000 0.97038  0.94470  0.35630  Biso   1.000  C
  H17      1.0000 0.51700  0.50670  0.88660  Biso   1.000  H
  H18      1.0000 0.48300  0.50670  0.61340  Biso   1.000  H
  H19      1.0000 0.01700  0.00670  0.88660  Biso   1.000  H
  H20      1.0000 0.98300  0.00670  0.61340  Biso   1.000  H
  H21      1.0000 0.48300  0.49330  0.11340  Biso   1.000  H
  H22      1.0000 0.51700  0.49330  0.38660  Biso   1.000  H
  H23      1.0000 0.98300  0.99330  0.11340  Biso   1.000  H
  H24      1.0000 0.01700  0.99330  0.38660  Biso   1.000  H
  C25      1.0000 0.38692  0.04970  0.04391  Biso   1.000  C
  C26      1.0000 0.61308  0.04970  0.45609  Biso   1.000  C
  C27      1.0000 0.88692  0.54970  0.04391  Biso   1.000  C
  C28      1.0000 0.11308  0.54970  0.45609  Biso   1.000  C
  C29      1.0000 0.61308  0.95030  0.95609  Biso   1.000  C
  C30      1.0000 0.38692  0.95030  0.54391  Biso   1.000  C
  C31      1.0000 0.11308  0.45030  0.95609  Biso   1.000  C
  C32      1.0000 0.88692  0.45030  0.54391  Biso   1.000  C
  C33      1.0000 0.31559  0.15310  0.02048  Biso   1.000  C
  C34      1.0000 0.68441  0.15310  0.47952  Biso   1.000  C
  C35      1.0000 0.81559  0.65310  0.02048  Biso   1.000  C
  C36      1.0000 0.18441  0.65310  0.47952  Biso   1.000  C
  C37      1.0000 0.68441  0.84690  0.97952  Biso   1.000  C
  C38      1.0000 0.31559  0.84690  0.52048  Biso   1.000  C
  C39      1.0000 0.18441  0.34690  0.97952  Biso   1.000  C
  C40      1.0000 0.81559  0.34690  0.52048  Biso   1.000  C
  C41      1.0000 0.29077  0.37310  0.96075  Biso   1.000  C
  C42      1.0000 0.70923  0.37310  0.53925  Biso   1.000  C
  C43      1.0000 0.79077  0.87310  0.96075  Biso   1.000  C
  C44      1.0000 0.20923  0.87310  0.53925  Biso   1.000  C
  C45      1.0000 0.70923  0.62690  0.03925  Biso   1.000  C
  C46      1.0000 0.29077  0.62690  0.46075  Biso   1.000  C
  C47      1.0000 0.20923  0.12690  0.03925  Biso   1.000  C
  C48      1.0000 0.79077  0.12690  0.46075  Biso   1.000  C
  H25      1.0000 0.31790  0.45650  0.93440  Biso   1.000  H
  H26      1.0000 0.68210  0.45650  0.56560  Biso   1.000  H
  H27      1.0000 0.81790  0.95650  0.93440  Biso   1.000  H
  H28      1.0000 0.18210  0.95650  0.56560  Biso   1.000  H
  H29      1.0000 0.68210  0.54350  0.06560  Biso   1.000  H
  H30      1.0000 0.31790  0.54350  0.43440  Biso   1.000  H
  H31      1.0000 0.18210  0.04350  0.06560  Biso   1.000  H
  H32      1.0000 0.81790  0.04350  0.43440  Biso   1.000  H
  C49      1.0000 0.27444  0.03210  0.05946  Biso   1.000  C
  C50      1.0000 0.72556  0.03210  0.44054  Biso   1.000  C
  C51      1.0000 0.77444  0.53210  0.05946  Biso   1.000  C
  C52      1.0000 0.22556  0.53210  0.44054  Biso   1.000  C
  C53      1.0000 0.72556  0.96790  0.94054  Biso   1.000  C
  C54      1.0000 0.27444  0.96790  0.55946  Biso   1.000  C
  C55      1.0000 0.22556  0.46790  0.94054  Biso   1.000  C
  C56      1.0000 0.77444  0.46790  0.55946  Biso   1.000  C
  H33      1.0000 0.29080  0.88560  0.09970  Biso   1.000  H
  H34      1.0000 0.70920  0.88560  0.40030  Biso   1.000  H
  H35      1.0000 0.79080  0.38560  0.09970  Biso   1.000  H
  H36      1.0000 0.20920  0.38560  0.40030  Biso   1.000  H
  H37      1.0000 0.70920  0.11440  0.90030  Biso   1.000  H
  H38      1.0000 0.29080  0.11440  0.59970  Biso   1.000  H
  H39      1.0000 0.20920  0.61440  0.90030  Biso   1.000  H
  H40      1.0000 0.79080  0.61440  0.59970  Biso   1.000  H
  N1       1.0000 0.44579  0.75320  0.88681  Biso   1.000  N
  N2       1.0000 0.55421  0.75320  0.61319  Biso   1.000  N
  N3       1.0000 0.94579  0.25320  0.88681  Biso   1.000  N
  N4       1.0000 0.05421  0.25320  0.61319  Biso   1.000  N
  N5       1.0000 0.55421  0.24680  0.11319  Biso   1.000  N
  N6       1.0000 0.44579  0.24680  0.38681  Biso   1.000  N
  N7       1.0000 0.05421  0.74680  0.11319  Biso   1.000  N
  N8       1.0000 0.94579  0.74680  0.38681  Biso   1.000  N
  N9       1.0000 0.41890  0.43550  0.77617  Biso   1.000  N
  N10      1.0000 0.58110  0.43550  0.72383  Biso   1.000  N
  N11      1.0000 0.91890  0.93550  0.77617  Biso   1.000  N
  N12      1.0000 0.08110  0.93550  0.72383  Biso   1.000  N
  N13      1.0000 0.58110  0.56450  0.22383  Biso   1.000  N
  N14      1.0000 0.41890  0.56450  0.27617  Biso   1.000  N
  N15      1.0000 0.08110  0.06450  0.22383  Biso   1.000  N
  N16      1.0000 0.91890  0.06450  0.27617  Biso   1.000  N
  O1       1.0000 0.41430  0.88300  0.11055  Biso   1.000  O
  O2       1.0000 0.58570  0.88300  0.38945  Biso   1.000  O
  O3       1.0000 0.91430  0.38300  0.11055  Biso   1.000  O
  O4       1.0000 0.08570  0.38300  0.38945  Biso   1.000  O
  O5       1.0000 0.58570  0.11700  0.88945  Biso   1.000  O
  O6       1.0000 0.41430  0.11700  0.61055  Biso   1.000  O
  O7       1.0000 0.08570  0.61700  0.88945  Biso   1.000  O
  O8       1.0000 0.91430  0.61700  0.61055  Biso   1.000  O
  O9       1.0000 0.41356  0.14650  0.98747  Biso   1.000  O
  O10      1.0000 0.58644  0.14650  0.51253  Biso   1.000  O
  O11      1.0000 0.91356  0.64650  0.98747  Biso   1.000  O
  O12      1.0000 0.08644  0.64650  0.51253  Biso   1.000  O
  O13      1.0000 0.58644  0.85350  0.01253  Biso   1.000  O
  O14      1.0000 0.41356  0.85350  0.48747  Biso   1.000  O
  O15      1.0000 0.08644  0.35350  0.01253  Biso   1.000  O
  O16      1.0000 0.91356  0.35350  0.48747  Biso   1.000  O
  Cu1      1.0000 0.50000  0.00000  0.00000  Biso   1.000  Cu
  Cu2      1.0000 0.50000  0.00000  0.50000  Biso   1.000  Cu
  Cu3      1.0000 0.00000  0.50000  0.00000  Biso   1.000  Cu
  Cu4      1.0000 0.00000  0.50000  0.50000  Biso   1.000  Cu
  H41      1.0000 0.42380  0.32200  0.74400  Biso   1.000  H
  H42      1.0000 0.57620  0.32200  0.75600  Biso   1.000  H
  H43      1.0000 0.92380  0.82200  0.74400  Biso   1.000  H
  H44      1.0000 0.07620  0.82200  0.75600  Biso   1.000  H
  H45      1.0000 0.57620  0.67800  0.25600  Biso   1.000  H
  H46      1.0000 0.42380  0.67800  0.24400  Biso   1.000  H
  H47      1.0000 0.07620  0.17800  0.25600  Biso   1.000  H
  H48      1.0000 0.92380  0.17800  0.24400  Biso   1.000  H
