data_image0
_cell_length_a       14.305
_cell_length_b       7.5504
_cell_length_c       7.4799
_cell_angle_alpha    90
_cell_angle_beta     92.3227
_cell_angle_gamma    90

_symmetry_space_group_name_H-M    "P 1"
_symmetry_int_tables_number       1

loop_
  _symmetry_equiv_pos_as_xyz
  'x, y, z'

loop_
  _atom_site_label
  _atom_site_occupancy
  _atom_site_fract_x
  _atom_site_fract_y
  _atom_site_fract_z
  _atom_site_thermal_displace_type
  _atom_site_B_iso_or_equiv
  _atom_site_type_symbol
  Cu1      1.0000 0.47968  0.30932  0.06238  Biso   1.000  Cu
  Cu2      1.0000 0.52032  0.80932  0.43762  Biso   1.000  Cu
  Cu3      1.0000 0.52032  0.69068  0.93762  Biso   1.000  Cu
  Cu4      1.0000 0.47968  0.19068  0.56238  Biso   1.000  Cu
  P1       1.0000 0.61129  0.45402  0.35402  Biso   1.000  P
  P2       1.0000 0.38871  0.95402  0.14598  Biso   1.000  P
  P3       1.0000 0.38871  0.54598  0.64598  Biso   1.000  P
  P4       1.0000 0.61129  0.04598  0.85402  Biso   1.000  P
  C1       1.0000 0.73380  0.45370  0.31630  Biso   1.000  C
  C2       1.0000 0.26620  0.95370  0.18370  Biso   1.000  C
  C3       1.0000 0.26620  0.54630  0.68370  Biso   1.000  C
  C4       1.0000 0.73380  0.04630  0.81630  Biso   1.000  C
  C5       1.0000 0.76970  0.56900  0.18970  Biso   1.000  C
  C6       1.0000 0.23030  0.06900  0.31030  Biso   1.000  C
  C7       1.0000 0.23030  0.43100  0.81030  Biso   1.000  C
  C8       1.0000 0.76970  0.93100  0.68970  Biso   1.000  C
  H1       1.0000 0.72950  0.64400  0.11950  Biso   1.000  H
  H2       1.0000 0.27050  0.14400  0.38050  Biso   1.000  H
  H3       1.0000 0.27050  0.35600  0.88050  Biso   1.000  H
  H4       1.0000 0.72950  0.85600  0.61950  Biso   1.000  H
  C9       1.0000 0.79510  0.34710  0.41860  Biso   1.000  C
  C10      1.0000 0.20490  0.84710  0.08140  Biso   1.000  C
  C11      1.0000 0.20490  0.65290  0.58140  Biso   1.000  C
  C12      1.0000 0.79510  0.15290  0.91860  Biso   1.000  C
  H5       1.0000 0.77110  0.27000  0.50600  Biso   1.000  H
  H6       1.0000 0.22890  0.77000  0.99400  Biso   1.000  H
  H7       1.0000 0.22890  0.73000  0.49400  Biso   1.000  H
  H8       1.0000 0.77110  0.23000  0.00600  Biso   1.000  H
  C13      1.0000 0.92750  0.46570  0.26780  Biso   1.000  C
  C14      1.0000 0.07250  0.96570  0.23220  Biso   1.000  C
  C15      1.0000 0.07250  0.53430  0.73220  Biso   1.000  C
  C16      1.0000 0.92750  0.03430  0.76780  Biso   1.000  C
  H9       1.0000 0.99280  0.47040  0.24950  Biso   1.000  H
  H10      1.0000 0.00720  0.97040  0.25050  Biso   1.000  H
  H11      1.0000 0.00720  0.52960  0.75050  Biso   1.000  H
  H12      1.0000 0.99280  0.02960  0.74950  Biso   1.000  H
  C17      1.0000 0.89130  0.35260  0.39410  Biso   1.000  C
  C18      1.0000 0.10870  0.85260  0.10590  Biso   1.000  C
  C19      1.0000 0.10870  0.64740  0.60590  Biso   1.000  C
  C20      1.0000 0.89130  0.14740  0.89410  Biso   1.000  C
  H13      1.0000 0.93220  0.27870  0.46400  Biso   1.000  H
  H14      1.0000 0.06780  0.77870  0.03600  Biso   1.000  H
  H15      1.0000 0.06780  0.72130  0.53600  Biso   1.000  H
  H16      1.0000 0.93220  0.22130  0.96400  Biso   1.000  H
  C21      1.0000 0.86570  0.57080  0.16980  Biso   1.000  C
  C22      1.0000 0.13430  0.07080  0.33020  Biso   1.000  C
  C23      1.0000 0.13430  0.42920  0.83020  Biso   1.000  C
  C24      1.0000 0.86570  0.92920  0.66980  Biso   1.000  C
  F1       1.0000 0.90030  0.68100  0.04580  Biso   1.000  F
  F2       1.0000 0.09970  0.18100  0.45420  Biso   1.000  F
  F3       1.0000 0.09970  0.31900  0.95420  Biso   1.000  F
  F4       1.0000 0.90030  0.81900  0.54580  Biso   1.000  F
  O1       1.0000 0.55840  0.49350  0.17600  Biso   1.000  O
  O2       1.0000 0.44160  0.99350  0.32400  Biso   1.000  O
  O3       1.0000 0.44160  0.50650  0.82400  Biso   1.000  O
  O4       1.0000 0.55840  0.00650  0.67600  Biso   1.000  O
  O5       1.0000 0.36930  0.42600  0.16450  Biso   1.000  O
  O6       1.0000 0.63070  0.92600  0.33550  Biso   1.000  O
  O7       1.0000 0.63070  0.57400  0.83550  Biso   1.000  O
  O8       1.0000 0.36930  0.07400  0.66450  Biso   1.000  O
  H17      1.0000 0.37490  0.42430  0.27670  Biso   1.000  H
  H18      1.0000 0.62510  0.92430  0.22330  Biso   1.000  H
  H19      1.0000 0.62510  0.57570  0.72330  Biso   1.000  H
  H20      1.0000 0.37490  0.07570  0.77670  Biso   1.000  H
  O9       1.0000 0.59480  0.60200  0.48960  Biso   1.000  O
  O10      1.0000 0.40520  0.10200  0.01040  Biso   1.000  O
  O11      1.0000 0.40520  0.39800  0.51040  Biso   1.000  O
  O12      1.0000 0.59480  0.89800  0.98960  Biso   1.000  O
  O13      1.0000 0.58660  0.27310  0.43020  Biso   1.000  O
  O14      1.0000 0.41340  0.77310  0.06980  Biso   1.000  O
  O15      1.0000 0.41340  0.72690  0.56980  Biso   1.000  O
  O16      1.0000 0.58660  0.22690  0.93020  Biso   1.000  O
  H21      1.0000 0.37400  0.52200  0.14700  Biso   1.000  H
  H22      1.0000 0.62600  0.02200  0.35300  Biso   1.000  H
  H23      1.0000 0.62600  0.47800  0.85300  Biso   1.000  H
  H24      1.0000 0.37400  0.97800  0.64700  Biso   1.000  H
