data_image0
_cell_length_a       7.525
_cell_length_b       18.292
_cell_length_c       7.52
_cell_angle_alpha    90
_cell_angle_beta     90
_cell_angle_gamma    90

_symmetry_space_group_name_H-M    "P 1"
_symmetry_int_tables_number       1

loop_
  _symmetry_equiv_pos_as_xyz
  'x, y, z'

loop_
  _atom_site_label
  _atom_site_occupancy
  _atom_site_fract_x
  _atom_site_fract_y
  _atom_site_fract_z
  _atom_site_thermal_displace_type
  _atom_site_B_iso_or_equiv
  _atom_site_type_symbol
  Cu1      1.0000 0.43556  0.48450  0.19173  Biso   1.000  Cu
  Cu2      1.0000 0.06444  0.51550  0.69173  Biso   1.000  Cu
  Cu3      1.0000 0.56444  0.98450  0.80827  Biso   1.000  Cu
  Cu4      1.0000 0.93556  0.01550  0.30827  Biso   1.000  Cu
  Cu5      1.0000 0.56444  0.51550  0.80827  Biso   1.000  Cu
  Cu6      1.0000 0.93556  0.48450  0.30827  Biso   1.000  Cu
  Cu7      1.0000 0.43556  0.01550  0.19173  Biso   1.000  Cu
  Cu8      1.0000 0.06444  0.98450  0.69173  Biso   1.000  Cu
  P1       1.0000 0.34731  0.41310  0.54643  Biso   1.000  P
  P2       1.0000 0.15269  0.58690  0.04643  Biso   1.000  P
  P3       1.0000 0.65269  0.91310  0.45357  Biso   1.000  P
  P4       1.0000 0.84731  0.08690  0.95357  Biso   1.000  P
  P5       1.0000 0.65269  0.58690  0.45357  Biso   1.000  P
  P6       1.0000 0.84731  0.41310  0.95357  Biso   1.000  P
  P7       1.0000 0.34731  0.08690  0.54643  Biso   1.000  P
  P8       1.0000 0.15269  0.91310  0.04643  Biso   1.000  P
  S1       1.0000 0.41731  0.25000  0.63812  Biso   1.000  S
  S2       1.0000 0.08269  0.75000  0.13812  Biso   1.000  S
  S3       1.0000 0.58269  0.75000  0.36188  Biso   1.000  S
  S4       1.0000 0.91731  0.25000  0.86188  Biso   1.000  S
  O1       1.0000 0.42605  0.43017  0.72849  Biso   1.000  O
  O2       1.0000 0.07395  0.56983  0.22849  Biso   1.000  O
  O3       1.0000 0.57395  0.93017  0.27151  Biso   1.000  O
  O4       1.0000 0.92605  0.06983  0.77151  Biso   1.000  O
  O5       1.0000 0.57395  0.56983  0.27151  Biso   1.000  O
  O6       1.0000 0.92605  0.43017  0.77151  Biso   1.000  O
  O7       1.0000 0.42605  0.06983  0.72849  Biso   1.000  O
  O8       1.0000 0.07395  0.93017  0.22849  Biso   1.000  O
  O9       1.0000 0.48430  0.42712  0.39952  Biso   1.000  O
  O10      1.0000 0.01570  0.57288  0.89952  Biso   1.000  O
  O11      1.0000 0.51570  0.92712  0.60048  Biso   1.000  O
  O12      1.0000 0.98430  0.07288  0.10048  Biso   1.000  O
  O13      1.0000 0.51570  0.57288  0.60048  Biso   1.000  O
  O14      1.0000 0.98430  0.42712  0.10048  Biso   1.000  O
  O15      1.0000 0.48430  0.07288  0.39952  Biso   1.000  O
  O16      1.0000 0.01570  0.92712  0.89952  Biso   1.000  O
  O17      1.0000 0.32620  0.39750  0.07687  Biso   1.000  O
  O18      1.0000 0.17380  0.60250  0.57687  Biso   1.000  O
  O19      1.0000 0.67380  0.89750  0.92313  Biso   1.000  O
  O20      1.0000 0.82620  0.10250  0.42313  Biso   1.000  O
  O21      1.0000 0.67380  0.60250  0.92313  Biso   1.000  O
  O22      1.0000 0.82620  0.39750  0.42313  Biso   1.000  O
  O23      1.0000 0.32620  0.10250  0.07687  Biso   1.000  O
  O24      1.0000 0.17380  0.89750  0.57687  Biso   1.000  O
  O25      1.0000 0.17530  0.45503  0.50737  Biso   1.000  O
  O26      1.0000 0.32470  0.54497  0.00737  Biso   1.000  O
  O27      1.0000 0.82470  0.95503  0.49263  Biso   1.000  O
  O28      1.0000 0.67530  0.04497  0.99263  Biso   1.000  O
  O29      1.0000 0.82470  0.54497  0.49263  Biso   1.000  O
  O30      1.0000 0.67530  0.45503  0.99263  Biso   1.000  O
  O31      1.0000 0.17530  0.04497  0.50737  Biso   1.000  O
  O32      1.0000 0.32470  0.95503  0.00737  Biso   1.000  O
  C1       1.0000 0.29428  0.31806  0.53825  Biso   1.000  C
  C2       1.0000 0.20572  0.68194  0.03825  Biso   1.000  C
  C3       1.0000 0.70572  0.81806  0.46175  Biso   1.000  C
  C4       1.0000 0.79428  0.18194  0.96175  Biso   1.000  C
  C5       1.0000 0.70572  0.68194  0.46175  Biso   1.000  C
  C6       1.0000 0.79428  0.31806  0.96175  Biso   1.000  C
  C7       1.0000 0.29428  0.18194  0.53825  Biso   1.000  C
  C8       1.0000 0.20572  0.81806  0.03825  Biso   1.000  C
  C9       1.0000 0.16450  0.28861  0.43130  Biso   1.000  C
  C10      1.0000 0.33550  0.71139  0.93130  Biso   1.000  C
  C11      1.0000 0.83550  0.78861  0.56870  Biso   1.000  C
  C12      1.0000 0.66450  0.21139  0.06870  Biso   1.000  C
  C13      1.0000 0.83550  0.71139  0.56870  Biso   1.000  C
  C14      1.0000 0.66450  0.28861  0.06870  Biso   1.000  C
  C15      1.0000 0.16450  0.21139  0.43130  Biso   1.000  C
  C16      1.0000 0.33550  0.78861  0.93130  Biso   1.000  C
  H1       1.0000 0.08800  0.31550  0.36400  Biso   1.000  H
  H2       1.0000 0.41200  0.68450  0.86400  Biso   1.000  H
  H3       1.0000 0.91200  0.81550  0.63600  Biso   1.000  H
  H4       1.0000 0.58800  0.18450  0.13600  Biso   1.000  H
  H5       1.0000 0.91200  0.68450  0.63600  Biso   1.000  H
  H6       1.0000 0.58800  0.31550  0.13600  Biso   1.000  H
  H7       1.0000 0.08800  0.18450  0.36400  Biso   1.000  H
  H8       1.0000 0.41200  0.81550  0.86400  Biso   1.000  H
  H9       1.0000 0.21600  0.40690  0.07400  Biso   1.000  H
  H10      1.0000 0.28400  0.59310  0.57400  Biso   1.000  H
  H11      1.0000 0.78400  0.90690  0.92600  Biso   1.000  H
  H12      1.0000 0.71600  0.09310  0.42600  Biso   1.000  H
  H13      1.0000 0.78400  0.59310  0.92600  Biso   1.000  H
  H14      1.0000 0.71600  0.40690  0.42600  Biso   1.000  H
  H15      1.0000 0.21600  0.09310  0.07400  Biso   1.000  H
  H16      1.0000 0.28400  0.90690  0.57400  Biso   1.000  H
  H17      1.0000 0.35900  0.40410  0.97900  Biso   1.000  H
  H18      1.0000 0.14100  0.59590  0.47900  Biso   1.000  H
  H19      1.0000 0.64100  0.90410  0.02100  Biso   1.000  H
  H20      1.0000 0.85900  0.09590  0.52100  Biso   1.000  H
  H21      1.0000 0.64100  0.59590  0.02100  Biso   1.000  H
  H22      1.0000 0.85900  0.40410  0.52100  Biso   1.000  H
  H23      1.0000 0.35900  0.09590  0.97900  Biso   1.000  H
  H24      1.0000 0.14100  0.90410  0.47900  Biso   1.000  H
