data_image0
_cell_length_a       9.5464
_cell_length_b       12.4501
_cell_length_c       14.3627
_cell_angle_alpha    90
_cell_angle_beta     95.2
_cell_angle_gamma    90

_symmetry_space_group_name_H-M    "P 1"
_symmetry_int_tables_number       1

loop_
  _symmetry_equiv_pos_as_xyz
  'x, y, z'

loop_
  _atom_site_label
  _atom_site_occupancy
  _atom_site_fract_x
  _atom_site_fract_y
  _atom_site_fract_z
  _atom_site_thermal_displace_type
  _atom_site_B_iso_or_equiv
  _atom_site_type_symbol
  Cu1      1.0000 0.88177  0.90083  0.98082  Biso   1.000  Cu
  Cu2      1.0000 0.11823  0.40083  0.51918  Biso   1.000  Cu
  Cu3      1.0000 0.11823  0.09917  0.01918  Biso   1.000  Cu
  Cu4      1.0000 0.88177  0.59917  0.48082  Biso   1.000  Cu
  Cl1      1.0000 0.99273  0.01723  0.89281  Biso   1.000  Cl
  Cl2      1.0000 0.00727  0.51723  0.60719  Biso   1.000  Cl
  Cl3      1.0000 0.00727  0.98277  0.10719  Biso   1.000  Cl
  Cl4      1.0000 0.99273  0.48277  0.39281  Biso   1.000  Cl
  Cl5      1.0000 0.71280  0.84680  0.06852  Biso   1.000  Cl
  Cl6      1.0000 0.28720  0.34680  0.43148  Biso   1.000  Cl
  Cl7      1.0000 0.28720  0.15320  0.93148  Biso   1.000  Cl
  Cl8      1.0000 0.71280  0.65320  0.56852  Biso   1.000  Cl
  O1       1.0000 0.79640  0.83900  0.86412  Biso   1.000  O
  O2       1.0000 0.20360  0.33900  0.63588  Biso   1.000  O
  O3       1.0000 0.20360  0.16100  0.13588  Biso   1.000  O
  O4       1.0000 0.79640  0.66100  0.36412  Biso   1.000  O
  N1       1.0000 0.66930  0.80220  0.85349  Biso   1.000  N
  N2       1.0000 0.33070  0.30220  0.64651  Biso   1.000  N
  N3       1.0000 0.33070  0.19780  0.14651  Biso   1.000  N
  N4       1.0000 0.66930  0.69780  0.35349  Biso   1.000  N
  C1       1.0000 0.54890  0.86780  0.81000  Biso   1.000  C
  C2       1.0000 0.45110  0.36780  0.69000  Biso   1.000  C
  C3       1.0000 0.45110  0.13220  0.19000  Biso   1.000  C
  C4       1.0000 0.54890  0.63220  0.31000  Biso   1.000  C
  C5       1.0000 0.42160  0.80150  0.84130  Biso   1.000  C
  C6       1.0000 0.57840  0.30150  0.65870  Biso   1.000  C
  C7       1.0000 0.57840  0.19850  0.15870  Biso   1.000  C
  C8       1.0000 0.42160  0.69850  0.34130  Biso   1.000  C
  N5       1.0000 0.49090  0.69410  0.86260  Biso   1.000  N
  N6       1.0000 0.50910  0.19410  0.63740  Biso   1.000  N
  N7       1.0000 0.50910  0.30590  0.13740  Biso   1.000  N
  N8       1.0000 0.49090  0.80590  0.36260  Biso   1.000  N
  O5       1.0000 0.42030  0.61000  0.87207  Biso   1.000  O
  O6       1.0000 0.57970  0.11000  0.62793  Biso   1.000  O
  O7       1.0000 0.57970  0.39000  0.12793  Biso   1.000  O
  O8       1.0000 0.42030  0.89000  0.37207  Biso   1.000  O
  C9       1.0000 0.63230  0.70140  0.87320  Biso   1.000  C
  C10      1.0000 0.36770  0.20140  0.62680  Biso   1.000  C
  C11      1.0000 0.36770  0.29860  0.12680  Biso   1.000  C
  C12      1.0000 0.63230  0.79860  0.37320  Biso   1.000  C
  C13      1.0000 0.72740  0.61120  0.89250  Biso   1.000  C
  C14      1.0000 0.27260  0.11120  0.60750  Biso   1.000  C
  C15      1.0000 0.27260  0.38880  0.10750  Biso   1.000  C
  C16      1.0000 0.72740  0.88880  0.39250  Biso   1.000  C
  C17      1.0000 0.70420  0.53680  0.96100  Biso   1.000  C
  C18      1.0000 0.29580  0.03680  0.53900  Biso   1.000  C
  C19      1.0000 0.29580  0.46320  0.03900  Biso   1.000  C
  C20      1.0000 0.70420  0.96320  0.46100  Biso   1.000  C
  C21      1.0000 0.79180  0.44740  0.97380  Biso   1.000  C
  C22      1.0000 0.20820  0.94740  0.52620  Biso   1.000  C
  C23      1.0000 0.20820  0.55260  0.02620  Biso   1.000  C
  C24      1.0000 0.79180  0.05260  0.47380  Biso   1.000  C
  C25      1.0000 0.89840  0.43170  0.91700  Biso   1.000  C
  C26      1.0000 0.10160  0.93170  0.58300  Biso   1.000  C
  C27      1.0000 0.10160  0.56830  0.08300  Biso   1.000  C
  C28      1.0000 0.89840  0.06830  0.41700  Biso   1.000  C
  C29      1.0000 0.92210  0.50590  0.84880  Biso   1.000  C
  C30      1.0000 0.07790  0.00590  0.65120  Biso   1.000  C
  C31      1.0000 0.07790  0.49410  0.15120  Biso   1.000  C
  C32      1.0000 0.92210  0.99410  0.34880  Biso   1.000  C
  C33      1.0000 0.83780  0.59600  0.83750  Biso   1.000  C
  C34      1.0000 0.16220  0.09600  0.66250  Biso   1.000  C
  C35      1.0000 0.16220  0.40400  0.16250  Biso   1.000  C
  C36      1.0000 0.83780  0.90400  0.33750  Biso   1.000  C
  C37      1.0000 0.98620  0.33260  0.93000  Biso   1.000  C
  C38      1.0000 0.01380  0.83260  0.57000  Biso   1.000  C
  C39      1.0000 0.01380  0.66740  0.07000  Biso   1.000  C
  C40      1.0000 0.98620  0.16740  0.43000  Biso   1.000  C
  O9       1.0000 0.97630  0.26709  0.99095  Biso   1.000  O
  O10      1.0000 0.02370  0.76709  0.50905  Biso   1.000  O
  O11      1.0000 0.02370  0.73291  0.00905  Biso   1.000  O
  O12      1.0000 0.97630  0.23291  0.49095  Biso   1.000  O
  O13      1.0000 0.07820  0.32580  0.86670  Biso   1.000  O
  O14      1.0000 0.92180  0.82580  0.63330  Biso   1.000  O
  O15      1.0000 0.92180  0.67420  0.13330  Biso   1.000  O
  O16      1.0000 0.07820  0.17420  0.36670  Biso   1.000  O
  C41      1.0000 0.56370  0.86450  0.70610  Biso   1.000  C
  C42      1.0000 0.43630  0.36450  0.79390  Biso   1.000  C
  C43      1.0000 0.43630  0.13550  0.29390  Biso   1.000  C
  C44      1.0000 0.56370  0.63550  0.20610  Biso   1.000  C
  C45      1.0000 0.55930  0.98200  0.84640  Biso   1.000  C
  C46      1.0000 0.44070  0.48200  0.65360  Biso   1.000  C
  C47      1.0000 0.44070  0.01800  0.15360  Biso   1.000  C
  C48      1.0000 0.55930  0.51800  0.34640  Biso   1.000  C
  C49      1.0000 0.36570  0.83980  0.93160  Biso   1.000  C
  C50      1.0000 0.63430  0.33980  0.56840  Biso   1.000  C
  C51      1.0000 0.63430  0.16020  0.06840  Biso   1.000  C
  C52      1.0000 0.36570  0.66020  0.43160  Biso   1.000  C
  C53      1.0000 0.30110  0.78540  0.76630  Biso   1.000  C
  C54      1.0000 0.69890  0.28540  0.73370  Biso   1.000  C
  C55      1.0000 0.69890  0.21460  0.23370  Biso   1.000  C
  C56      1.0000 0.30110  0.71460  0.26630  Biso   1.000  C
  H1       1.0000 0.12700  0.27800  0.87500  Biso   1.000  H
  H2       1.0000 0.87300  0.77800  0.62500  Biso   1.000  H
  H3       1.0000 0.87300  0.72200  0.12500  Biso   1.000  H
  H4       1.0000 0.12700  0.22200  0.37500  Biso   1.000  H
  H5       1.0000 0.77600  0.40000  0.02000  Biso   1.000  H
  H6       1.0000 0.22400  0.90000  0.48000  Biso   1.000  H
  H7       1.0000 0.22400  0.60000  0.98000  Biso   1.000  H
  H8       1.0000 0.77600  0.10000  0.52000  Biso   1.000  H
  H9       1.0000 0.63300  0.54400  0.99800  Biso   1.000  H
  H10      1.0000 0.36700  0.04400  0.50200  Biso   1.000  H
  H11      1.0000 0.36700  0.45600  0.00200  Biso   1.000  H
  H12      1.0000 0.63300  0.95600  0.49800  Biso   1.000  H
  H13      1.0000 0.99300  0.49500  0.80900  Biso   1.000  H
  H14      1.0000 0.00700  0.99500  0.69100  Biso   1.000  H
  H15      1.0000 0.00700  0.50500  0.19100  Biso   1.000  H
  H16      1.0000 0.99300  0.00500  0.30900  Biso   1.000  H
  H17      1.0000 0.85600  0.64200  0.79900  Biso   1.000  H
  H18      1.0000 0.14400  0.14200  0.70100  Biso   1.000  H
  H19      1.0000 0.14400  0.35800  0.20100  Biso   1.000  H
  H20      1.0000 0.85600  0.85800  0.29900  Biso   1.000  H
  H21      1.0000 0.49500  0.90300  0.68000  Biso   1.000  H
  H22      1.0000 0.50500  0.40300  0.82000  Biso   1.000  H
  H23      1.0000 0.50500  0.09700  0.32000  Biso   1.000  H
  H24      1.0000 0.49500  0.59700  0.18000  Biso   1.000  H
  H25      1.0000 0.65000  0.89700  0.69300  Biso   1.000  H
  H26      1.0000 0.35000  0.39700  0.80700  Biso   1.000  H
  H27      1.0000 0.35000  0.10300  0.30700  Biso   1.000  H
  H28      1.0000 0.65000  0.60300  0.19300  Biso   1.000  H
  H29      1.0000 0.55500  0.78700  0.68200  Biso   1.000  H
  H30      1.0000 0.44500  0.28700  0.81800  Biso   1.000  H
  H31      1.0000 0.44500  0.21300  0.31800  Biso   1.000  H
  H32      1.0000 0.55500  0.71300  0.18200  Biso   1.000  H
  H33      1.0000 0.64800  0.01000  0.82600  Biso   1.000  H
  H34      1.0000 0.35200  0.51000  0.67400  Biso   1.000  H
  H35      1.0000 0.35200  0.99000  0.17400  Biso   1.000  H
  H36      1.0000 0.64800  0.49000  0.32600  Biso   1.000  H
  H37      1.0000 0.56400  0.98800  0.91200  Biso   1.000  H
  H38      1.0000 0.43600  0.48800  0.58800  Biso   1.000  H
  H39      1.0000 0.43600  0.01200  0.08800  Biso   1.000  H
  H40      1.0000 0.56400  0.51200  0.41200  Biso   1.000  H
  H41      1.0000 0.48100  0.02000  0.82000  Biso   1.000  H
  H42      1.0000 0.51900  0.52000  0.68000  Biso   1.000  H
  H43      1.0000 0.51900  0.98000  0.18000  Biso   1.000  H
  H44      1.0000 0.48100  0.48000  0.32000  Biso   1.000  H
  H45      1.0000 0.43300  0.84400  0.98400  Biso   1.000  H
  H46      1.0000 0.56700  0.34400  0.51600  Biso   1.000  H
  H47      1.0000 0.56700  0.15600  0.01600  Biso   1.000  H
  H48      1.0000 0.43300  0.65600  0.48400  Biso   1.000  H
  H49      1.0000 0.29100  0.80000  0.95300  Biso   1.000  H
  H50      1.0000 0.70900  0.30000  0.54700  Biso   1.000  H
  H51      1.0000 0.70900  0.20000  0.04700  Biso   1.000  H
  H52      1.0000 0.29100  0.70000  0.45300  Biso   1.000  H
  H53      1.0000 0.31400  0.90600  0.92000  Biso   1.000  H
  H54      1.0000 0.68600  0.40600  0.58000  Biso   1.000  H
  H55      1.0000 0.68600  0.09400  0.08000  Biso   1.000  H
  H56      1.0000 0.31400  0.59400  0.42000  Biso   1.000  H
  H57      1.0000 0.33300  0.75100  0.71100  Biso   1.000  H
  H58      1.0000 0.66700  0.25100  0.78900  Biso   1.000  H
  H59      1.0000 0.66700  0.24900  0.28900  Biso   1.000  H
  H60      1.0000 0.33300  0.74900  0.21100  Biso   1.000  H
  H61      1.0000 0.25800  0.84400  0.75700  Biso   1.000  H
  H62      1.0000 0.74200  0.34400  0.74300  Biso   1.000  H
  H63      1.0000 0.74200  0.15600  0.24300  Biso   1.000  H
  H64      1.0000 0.25800  0.65600  0.25700  Biso   1.000  H
  H65      1.0000 0.23300  0.74600  0.79100  Biso   1.000  H
  H66      1.0000 0.76700  0.24600  0.70900  Biso   1.000  H
  H67      1.0000 0.76700  0.25400  0.20900  Biso   1.000  H
  H68      1.0000 0.23300  0.75400  0.29100  Biso   1.000  H
