data_image0
_cell_length_a       8.5514
_cell_length_b       9.9091
_cell_length_c       12.7475
_cell_angle_alpha    86.25
_cell_angle_beta     83.849
_cell_angle_gamma    68.283

_symmetry_space_group_name_H-M    "P 1"
_symmetry_int_tables_number       1

loop_
  _symmetry_equiv_pos_as_xyz
  'x, y, z'

loop_
  _atom_site_label
  _atom_site_occupancy
  _atom_site_fract_x
  _atom_site_fract_y
  _atom_site_fract_z
  _atom_site_thermal_displace_type
  _atom_site_B_iso_or_equiv
  _atom_site_type_symbol
  Mo1      1.0000 0.76426  0.81138  0.61141  Biso   1.000  Mo
  Mo2      1.0000 0.23574  0.18862  0.38859  Biso   1.000  Mo
  O1       1.0000 0.74810  0.58970  0.54060  Biso   1.000  O
  O2       1.0000 0.25190  0.41030  0.45940  Biso   1.000  O
  O3       1.0000 0.75720  0.84440  0.46260  Biso   1.000  O
  O4       1.0000 0.24280  0.15560  0.53740  Biso   1.000  O
  O5       1.0000 0.83250  0.67010  0.72290  Biso   1.000  O
  O6       1.0000 0.16750  0.32990  0.27710  Biso   1.000  O
  O7       1.0000 0.04000  0.66700  0.55710  Biso   1.000  O
  O8       1.0000 0.96000  0.33300  0.44290  Biso   1.000  O
  O9       1.0000 0.83690  0.94070  0.64180  Biso   1.000  O
  O10      1.0000 0.16310  0.05930  0.35820  Biso   1.000  O
  O11      1.0000 0.55320  0.87550  0.65180  Biso   1.000  O
  O12      1.0000 0.44680  0.12450  0.34820  Biso   1.000  O
  Mo3      1.0000 0.67971  0.72905  0.38134  Biso   1.000  Mo
  Mo4      1.0000 0.32029  0.27095  0.61866  Biso   1.000  Mo
  Mo5      1.0000 0.06428  0.56765  0.73813  Biso   1.000  Mo
  Mo6      1.0000 0.93572  0.43235  0.26187  Biso   1.000  Mo
  As1      1.0000 0.12203  0.58691  0.44098  Biso   1.000  As
  As2      1.0000 0.87797  0.41309  0.55902  Biso   1.000  As
  Cu1      1.0000 0.31380  0.81570  0.73597  Biso   1.000  Cu
  Cu2      1.0000 0.68620  0.18430  0.26403  Biso   1.000  Cu
  O13      1.0000 0.97200  0.60050  0.35900  Biso   1.000  O
  O14      1.0000 0.02800  0.39950  0.64100  Biso   1.000  O
  O15      1.0000 0.67400  0.82270  0.26520  Biso   1.000  O
  O16      1.0000 0.32600  0.17730  0.73480  Biso   1.000  O
  O17      1.0000 0.47380  0.77260  0.42990  Biso   1.000  O
  O18      1.0000 0.52620  0.22740  0.57010  Biso   1.000  O
  O19      1.0000 0.71540  0.54270  0.32760  Biso   1.000  O
  O20      1.0000 0.28460  0.45730  0.67240  Biso   1.000  O
  O21      1.0000 0.23400  0.67850  0.37000  Biso   1.000  O
  O22      1.0000 0.76600  0.32150  0.63000  Biso   1.000  O
  N1       1.0000 0.43830  0.75230  0.86540  Biso   1.000  N
  N2       1.0000 0.56170  0.24770  0.13460  Biso   1.000  N
  O23      1.0000 0.45240  0.63160  0.66740  Biso   1.000  O
  O24      1.0000 0.54760  0.36840  0.33260  Biso   1.000  O
  N3       1.0000 0.17050  0.98190  0.82490  Biso   1.000  N
  N4       1.0000 0.82950  0.01810  0.17510  Biso   1.000  N
  O25      1.0000 0.19890  0.90060  0.60630  Biso   1.000  O
  O26      1.0000 0.80110  0.09940  0.39370  Biso   1.000  O
  O27      1.0000 0.11920  0.70760  0.77260  Biso   1.000  O
  O28      1.0000 0.88080  0.29240  0.22740  Biso   1.000  O
  C1       1.0000 0.37500  0.85030  0.94280  Biso   1.000  C
  C2       1.0000 0.62500  0.14970  0.05720  Biso   1.000  C
  C3       1.0000 0.57310  0.63440  0.88250  Biso   1.000  C
  C4       1.0000 0.42690  0.36560  0.11750  Biso   1.000  C
  C5       1.0000 0.03270  0.09540  0.80330  Biso   1.000  C
  C6       1.0000 0.96730  0.90460  0.19670  Biso   1.000  C
  C7       1.0000 0.22970  0.97630  0.92020  Biso   1.000  C
  C8       1.0000 0.77030  0.02370  0.07980  Biso   1.000  C
  O29      1.0000 0.94730  0.52500  0.14640  Biso   1.000  O
  O30      1.0000 0.05270  0.47500  0.85360  Biso   1.000  O
  C9       1.0000 0.44210  0.83500  0.03980  Biso   1.000  C
  C10      1.0000 0.55790  0.16500  0.96020  Biso   1.000  C
  C11      1.0000 0.65050  0.60880  0.97590  Biso   1.000  C
  C12      1.0000 0.34950  0.39120  0.02410  Biso   1.000  C
  C13      1.0000 0.95210  0.20750  0.87420  Biso   1.000  C
  C14      1.0000 0.04790  0.79250  0.12580  Biso   1.000  C
  C15      1.0000 0.15710  0.08230  0.99540  Biso   1.000  C
  C16      1.0000 0.84290  0.91770  0.00460  Biso   1.000  C
  C17      1.0000 0.36570  0.94570  0.11520  Biso   1.000  C
  C18      1.0000 0.63430  0.05430  0.88480  Biso   1.000  C
  C19      1.0000 0.58550  0.70830  0.05520  Biso   1.000  C
  C20      1.0000 0.41450  0.29170  0.94480  Biso   1.000  C
  C21      1.0000 0.01260  0.20290  0.96900  Biso   1.000  C
  C22      1.0000 0.98740  0.79710  0.03100  Biso   1.000  C
  C23      1.0000 0.22890  0.06400  0.09470  Biso   1.000  C
  C24      1.0000 0.77110  0.93600  0.90530  Biso   1.000  C
