data_image0
_cell_length_a       10.2706
_cell_length_b       5.2969
_cell_length_c       20.1325
_cell_angle_alpha    90
_cell_angle_beta     102.307
_cell_angle_gamma    90

_symmetry_space_group_name_H-M    "P 1"
_symmetry_int_tables_number       1

loop_
  _symmetry_equiv_pos_as_xyz
  'x, y, z'

loop_
  _atom_site_label
  _atom_site_occupancy
  _atom_site_fract_x
  _atom_site_fract_y
  _atom_site_fract_z
  _atom_site_thermal_displace_type
  _atom_site_B_iso_or_equiv
  _atom_site_type_symbol
  C1       1.0000 0.65560  0.57830  0.66905  Biso   1.000  C
  C2       1.0000 0.34440  0.07830  0.33095  Biso   1.000  C
  C3       1.0000 0.54900  0.70290  0.69039  Biso   1.000  C
  C4       1.0000 0.45100  0.20290  0.30961  Biso   1.000  C
  C5       1.0000 0.48160  0.90330  0.64900  Biso   1.000  C
  C6       1.0000 0.51840  0.40330  0.35100  Biso   1.000  C
  H1       1.0000 0.40780  0.97820  0.66080  Biso   1.000  H
  H2       1.0000 0.59220  0.47820  0.33920  Biso   1.000  H
  C7       1.0000 0.52230  0.98600  0.59347  Biso   1.000  C
  C8       1.0000 0.47770  0.48600  0.40653  Biso   1.000  C
  H3       1.0000 0.47600  0.11650  0.56790  Biso   1.000  H
  H4       1.0000 0.52400  0.61650  0.43210  Biso   1.000  H
  C9       1.0000 0.63460  0.87840  0.57301  Biso   1.000  C
  C10      1.0000 0.36540  0.37840  0.42699  Biso   1.000  C
  C11      1.0000 0.68170  0.97790  0.51751  Biso   1.000  C
  C12      1.0000 0.31830  0.47790  0.48249  Biso   1.000  C
  H5       1.0000 0.63840  0.11530  0.49380  Biso   1.000  H
  H6       1.0000 0.36160  0.61530  0.50620  Biso   1.000  H
  C13      1.0000 0.78970  0.87570  0.49796  Biso   1.000  C
  C14      1.0000 0.21030  0.37570  0.50204  Biso   1.000  C
  H7       1.0000 0.82040  0.94490  0.46170  Biso   1.000  H
  H8       1.0000 0.17960  0.44490  0.53830  Biso   1.000  H
  C15      1.0000 0.85330  0.66930  0.53224  Biso   1.000  C
  C16      1.0000 0.14670  0.16930  0.46776  Biso   1.000  C
  H9       1.0000 0.92570  0.59810  0.51820  Biso   1.000  H
  H10      1.0000 0.07430  0.09810  0.48180  Biso   1.000  H
  C17      1.0000 0.81090  0.56650  0.58730  Biso   1.000  C
  C18      1.0000 0.18910  0.06650  0.41270  Biso   1.000  C
  H11      1.0000 0.85560  0.42830  0.60990  Biso   1.000  H
  H12      1.0000 0.14440  0.92830  0.39010  Biso   1.000  H
  C19      1.0000 0.69920  0.67060  0.60966  Biso   1.000  C
  C20      1.0000 0.30080  0.17060  0.39034  Biso   1.000  C
  C21      1.0000 0.71900  0.36560  0.70569  Biso   1.000  C
  C22      1.0000 0.28100  0.86560  0.29431  Biso   1.000  C
  H13      1.0000 0.77410  0.26910  0.68450  Biso   1.000  H
  H14      1.0000 0.22590  0.76910  0.31550  Biso   1.000  H
  C23      1.0000 0.77720  0.06710  0.79526  Biso   1.000  C
  C24      1.0000 0.22280  0.56710  0.20474  Biso   1.000  C
  H15      1.0000 0.76840  0.93540  0.76040  Biso   1.000  H
  H16      1.0000 0.23160  0.43540  0.23960  Biso   1.000  H
  C25      1.0000 0.71240  0.97690  0.85270  Biso   1.000  C
  C26      1.0000 0.28760  0.47690  0.14730  Biso   1.000  C
  C27      1.0000 0.92690  0.11590  0.82547  Biso   1.000  C
  C28      1.0000 0.07310  0.61590  0.17453  Biso   1.000  C
  H17      1.0000 0.93470  0.26080  0.85550  Biso   1.000  H
  H18      1.0000 0.06530  0.76080  0.14450  Biso   1.000  H
  H19      1.0000 0.96320  0.97110  0.85270  Biso   1.000  H
  H20      1.0000 0.03680  0.47110  0.14730  Biso   1.000  H
  C29      1.0000 0.00980  0.16310  0.77353  Biso   1.000  C
  C30      1.0000 0.99020  0.66310  0.22647  Biso   1.000  C
  C31      1.0000 0.00970  0.99660  0.72022  Biso   1.000  C
  C32      1.0000 0.99030  0.49660  0.27978  Biso   1.000  C
  H21      1.0000 0.95510  0.85480  0.71560  Biso   1.000  H
  H22      1.0000 0.04490  0.35480  0.28440  Biso   1.000  H
  C33      1.0000 0.08970  0.03830  0.67380  Biso   1.000  C
  C34      1.0000 0.91030  0.53830  0.32620  Biso   1.000  C
  H23      1.0000 0.08750  0.92660  0.63790  Biso   1.000  H
  H24      1.0000 0.91250  0.42660  0.36210  Biso   1.000  H
  C35      1.0000 0.17200  0.24460  0.68100  Biso   1.000  C
  C36      1.0000 0.82800  0.74460  0.31900  Biso   1.000  C
  H25      1.0000 0.22600  0.27280  0.65010  Biso   1.000  H
  H26      1.0000 0.77400  0.77280  0.34990  Biso   1.000  H
  C37      1.0000 0.17470  0.40770  0.73310  Biso   1.000  C
  C38      1.0000 0.82530  0.90770  0.26690  Biso   1.000  C
  H27      1.0000 0.23170  0.54600  0.73830  Biso   1.000  H
  H28      1.0000 0.76830  0.04600  0.26170  Biso   1.000  H
  C39      1.0000 0.09290  0.36930  0.77876  Biso   1.000  C
  C40      1.0000 0.90710  0.86930  0.22124  Biso   1.000  C
  H29      1.0000 0.09420  0.48510  0.81360  Biso   1.000  H
  H30      1.0000 0.90580  0.98510  0.18640  Biso   1.000  H
  C41      1.0000 0.43450  0.40300  0.92536  Biso   1.000  C
  C42      1.0000 0.56550  0.90300  0.07464  Biso   1.000  C
  H31      1.0000 0.48370  0.25550  0.93580  Biso   1.000  H
  H32      1.0000 0.51630  0.75550  0.06420  Biso   1.000  H
  C43      1.0000 0.34560  0.46900  0.96542  Biso   1.000  C
  C44      1.0000 0.65440  0.96900  0.03458  Biso   1.000  C
  H33      1.0000 0.33530  0.36800  0.00170  Biso   1.000  H
  H34      1.0000 0.66470  0.86800  0.99830  Biso   1.000  H
  C45      1.0000 0.27320  0.68680  0.95018  Biso   1.000  C
  C46      1.0000 0.72680  0.18680  0.04982  Biso   1.000  C
  H35      1.0000 0.21330  0.73690  0.97640  Biso   1.000  H
  H36      1.0000 0.78670  0.23690  0.02360  Biso   1.000  H
  C47      1.0000 0.29020  0.83000  0.89580  Biso   1.000  C
  C48      1.0000 0.70980  0.33000  0.10420  Biso   1.000  C
  H37      1.0000 0.24110  0.97720  0.88430  Biso   1.000  H
  H38      1.0000 0.75890  0.47720  0.11570  Biso   1.000  H
  C49      1.0000 0.38120  0.75240  0.85837  Biso   1.000  C
  C50      1.0000 0.61880  0.25240  0.14163  Biso   1.000  C
  H39      1.0000 0.39300  0.85120  0.82190  Biso   1.000  H
  H40      1.0000 0.60700  0.35120  0.17810  Biso   1.000  H
  Cu1      1.0000 0.58548  0.43117  0.81732  Biso   1.000  Cu
  Cu2      1.0000 0.41452  0.93117  0.18268  Biso   1.000  Cu
  N1       1.0000 0.70730  0.29420  0.76558  Biso   1.000  N
  N2       1.0000 0.29270  0.79420  0.23442  Biso   1.000  N
  N3       1.0000 0.45330  0.54050  0.87245  Biso   1.000  N
  N4       1.0000 0.54670  0.04050  0.12755  Biso   1.000  N
  O1       1.0000 0.50615  0.65000  0.74523  Biso   1.000  O
  O2       1.0000 0.49385  0.15000  0.25477  Biso   1.000  O
  O3       1.0000 0.63790  0.13460  0.87450  Biso   1.000  O
  O4       1.0000 0.36210  0.63460  0.12550  Biso   1.000  O
  O5       1.0000 0.73725  0.76060  0.87591  Biso   1.000  O
  O6       1.0000 0.26275  0.26060  0.12409  Biso   1.000  O
  O7       1.0000 0.94480  0.60860  0.98385  Biso   1.000  O
  O8       1.0000 0.05520  0.10860  0.01615  Biso   1.000  O
  H41      1.0000 0.87750  0.57550  0.95250  Biso   1.000  H
  H42      1.0000 0.12250  0.07550  0.04750  Biso   1.000  H
  H43      1.0000 0.94160  0.52070  0.01880  Biso   1.000  H
  H44      1.0000 0.05840  0.02070  0.98120  Biso   1.000  H
