data_image0
_cell_length_a       10.0945
_cell_length_b       5.2955
_cell_length_c       20.322
_cell_angle_alpha    90
_cell_angle_beta     100.883
_cell_angle_gamma    90

_symmetry_space_group_name_H-M    "P 1"
_symmetry_int_tables_number       1

loop_
  _symmetry_equiv_pos_as_xyz
  'x, y, z'

loop_
  _atom_site_label
  _atom_site_occupancy
  _atom_site_fract_x
  _atom_site_fract_y
  _atom_site_fract_z
  _atom_site_thermal_displace_type
  _atom_site_B_iso_or_equiv
  _atom_site_type_symbol
  C1       1.0000 0.14802  0.70720  0.17012  Biso   1.000  C
  C2       1.0000 0.85198  0.20720  0.82988  Biso   1.000  C
  C3       1.0000 0.03979  0.83240  0.19136  Biso   1.000  C
  C4       1.0000 0.96021  0.33240  0.80864  Biso   1.000  C
  C5       1.0000 0.97127  0.03110  0.15078  Biso   1.000  C
  C6       1.0000 0.02873  0.53110  0.84922  Biso   1.000  C
  H1       1.0000 0.89570  0.10500  0.16290  Biso   1.000  H
  H2       1.0000 0.10430  0.60500  0.83710  Biso   1.000  H
  C7       1.0000 0.01370  0.11410  0.09529  Biso   1.000  C
  C8       1.0000 0.98630  0.61410  0.90471  Biso   1.000  C
  H3       1.0000 0.96690  0.24360  0.07000  Biso   1.000  H
  H4       1.0000 0.03310  0.74360  0.93000  Biso   1.000  H
  C9       1.0000 0.12890  0.00680  0.07487  Biso   1.000  C
  C10      1.0000 0.87110  0.50680  0.92513  Biso   1.000  C
  C11      1.0000 0.17830  0.10910  0.01987  Biso   1.000  C
  C12      1.0000 0.82170  0.60910  0.98013  Biso   1.000  C
  H5       1.0000 0.13510  0.24720  0.99700  Biso   1.000  H
  H6       1.0000 0.86490  0.74720  0.00300  Biso   1.000  H
  C13      1.0000 0.28810  0.00740  0.00014  Biso   1.000  C
  C14      1.0000 0.71190  0.50740  0.99986  Biso   1.000  C
  H7       1.0000 0.32010  0.07670  0.96410  Biso   1.000  H
  H8       1.0000 0.67990  0.57670  0.03590  Biso   1.000  H
  C15      1.0000 0.35270  0.80020  0.03382  Biso   1.000  C
  C16      1.0000 0.64730  0.30020  0.96618  Biso   1.000  C
  H9       1.0000 0.42670  0.72970  0.01950  Biso   1.000  H
  H10      1.0000 0.57330  0.22970  0.98050  Biso   1.000  H
  C17      1.0000 0.30840  0.69700  0.08846  Biso   1.000  C
  C18      1.0000 0.69160  0.19700  0.91154  Biso   1.000  C
  H11      1.0000 0.35370  0.55970  0.11070  Biso   1.000  H
  H12      1.0000 0.64630  0.05970  0.88930  Biso   1.000  H
  C19      1.0000 0.19452  0.79880  0.11075  Biso   1.000  C
  C20      1.0000 0.80548  0.29880  0.88925  Biso   1.000  C
  C21      1.0000 0.21143  0.49220  0.20525  Biso   1.000  C
  C22      1.0000 0.78857  0.99220  0.79475  Biso   1.000  C
  H13      1.0000 0.26690  0.39500  0.18360  Biso   1.000  H
  H14      1.0000 0.73310  0.89500  0.81640  Biso   1.000  H
  C23      1.0000 0.26830  0.19230  0.29389  Biso   1.000  C
  C24      1.0000 0.73170  0.69230  0.70611  Biso   1.000  C
  H15      1.0000 0.26080  0.06060  0.25950  Biso   1.000  H
  H16      1.0000 0.73920  0.56060  0.74050  Biso   1.000  H
  C25      1.0000 0.20170  0.10100  0.35132  Biso   1.000  C
  C26      1.0000 0.79830  0.60100  0.64868  Biso   1.000  C
  C27      1.0000 0.41861  0.24350  0.32269  Biso   1.000  C
  C28      1.0000 0.58139  0.74350  0.67731  Biso   1.000  C
  H17      1.0000 0.42480  0.38680  0.35280  Biso   1.000  H
  H18      1.0000 0.57520  0.88680  0.64720  Biso   1.000  H
  H19      1.0000 0.45570  0.09820  0.34890  Biso   1.000  H
  H20      1.0000 0.54430  0.59820  0.65110  Biso   1.000  H
  C29      1.0000 0.50416  0.29640  0.27078  Biso   1.000  C
  C30      1.0000 0.49584  0.79640  0.72922  Biso   1.000  C
  C31      1.0000 0.50450  0.13410  0.21699  Biso   1.000  C
  C32      1.0000 0.49550  0.63410  0.78301  Biso   1.000  C
  H21      1.0000 0.44950  0.99190  0.21190  Biso   1.000  H
  H22      1.0000 0.55050  0.49190  0.78810  Biso   1.000  H
  C33      1.0000 0.58720  0.18330  0.17058  Biso   1.000  C
  C34      1.0000 0.41280  0.68330  0.82942  Biso   1.000  C
  H23      1.0000 0.58650  0.07490  0.13450  Biso   1.000  H
  H24      1.0000 0.41350  0.57490  0.86550  Biso   1.000  H
  C35      1.0000 0.67000  0.39330  0.17825  Biso   1.000  C
  C36      1.0000 0.33000  0.89330  0.82175  Biso   1.000  C
  H25      1.0000 0.72530  0.42600  0.14750  Biso   1.000  H
  H26      1.0000 0.27470  0.92600  0.85250  Biso   1.000  H
  C37      1.0000 0.67042  0.55230  0.23104  Biso   1.000  C
  C38      1.0000 0.32958  0.05230  0.76896  Biso   1.000  C
  H27      1.0000 0.72700  0.69240  0.23640  Biso   1.000  H
  H28      1.0000 0.27300  0.19240  0.76360  Biso   1.000  H
  C39      1.0000 0.58719  0.50700  0.27685  Biso   1.000  C
  C40      1.0000 0.41281  0.00700  0.72315  Biso   1.000  C
  H29      1.0000 0.58710  0.61920  0.31200  Biso   1.000  H
  H30      1.0000 0.41290  0.11920  0.68800  Biso   1.000  H
  C41      1.0000 0.92251  0.54360  0.42798  Biso   1.000  C
  C42      1.0000 0.07749  0.04360  0.57202  Biso   1.000  C
  H31      1.0000 0.97350  0.39860  0.43960  Biso   1.000  H
  H32      1.0000 0.02650  0.89860  0.56040  Biso   1.000  H
  C43      1.0000 0.83111  0.61440  0.46741  Biso   1.000  C
  C44      1.0000 0.16889  0.11440  0.53259  Biso   1.000  C
  H33      1.0000 0.82130  0.51760  0.50440  Biso   1.000  H
  H34      1.0000 0.17870  0.01760  0.49560  Biso   1.000  H
  C45      1.0000 0.75415  0.83090  0.45150  Biso   1.000  C
  C46      1.0000 0.24585  0.33090  0.54850  Biso   1.000  C
  C47      1.0000 0.77513  0.96840  0.39585  Biso   1.000  C
  C48      1.0000 0.22487  0.46840  0.60415  Biso   1.000  C
  H35      1.0000 0.72630  0.11550  0.38360  Biso   1.000  H
  H36      1.0000 0.27370  0.61550  0.61640  Biso   1.000  H
  C49      1.0000 0.86834  0.88620  0.35889  Biso   1.000  C
  C50      1.0000 0.13166  0.38620  0.64111  Biso   1.000  C
  H37      1.0000 0.88130  0.98140  0.32220  Biso   1.000  H
  H38      1.0000 0.11870  0.48140  0.67780  Biso   1.000  H
  C51      1.0000 0.65260  0.91630  0.49234  Biso   1.000  C
  C52      1.0000 0.34740  0.41630  0.50766  Biso   1.000  C
  H39      1.0000 0.62110  0.77310  0.51390  Biso   1.000  H
  H40      1.0000 0.37890  0.27310  0.48610  Biso   1.000  H
  H41      1.0000 0.57790  0.99540  0.46350  Biso   1.000  H
  H42      1.0000 0.42210  0.49540  0.53650  Biso   1.000  H
  H43      1.0000 0.69420  0.03500  0.52570  Biso   1.000  H
  H44      1.0000 0.30580  0.53500  0.47430  Biso   1.000  H
  Cu1      1.0000 0.07402  0.55890  0.31733  Biso   1.000  Cu
  Cu2      1.0000 0.92598  0.05890  0.68267  Biso   1.000  Cu
  N1       1.0000 0.19813  0.42130  0.26476  Biso   1.000  N
  N2       1.0000 0.80187  0.92130  0.73524  Biso   1.000  N
  N3       1.0000 0.94126  0.67410  0.37374  Biso   1.000  N
  N4       1.0000 0.05874  0.17410  0.62626  Biso   1.000  N
  O1       1.0000 0.99616  0.78140  0.24647  Biso   1.000  O
  O2       1.0000 0.00384  0.28140  0.75353  Biso   1.000  O
  O3       1.0000 0.12045  0.25600  0.37161  Biso   1.000  O
  O4       1.0000 0.87955  0.75600  0.62839  Biso   1.000  O
  O5       1.0000 0.23055  0.89000  0.37521  Biso   1.000  O
  O6       1.0000 0.76945  0.39000  0.62479  Biso   1.000  O
