data_image0
_cell_length_a       14.789
_cell_length_b       9.3378
_cell_length_c       14.398
_cell_angle_alpha    90
_cell_angle_beta     90
_cell_angle_gamma    90

_symmetry_space_group_name_H-M    "P 1"
_symmetry_int_tables_number       1

loop_
  _symmetry_equiv_pos_as_xyz
  'x, y, z'

loop_
  _atom_site_label
  _atom_site_occupancy
  _atom_site_fract_x
  _atom_site_fract_y
  _atom_site_fract_z
  _atom_site_thermal_displace_type
  _atom_site_B_iso_or_equiv
  _atom_site_type_symbol
  C1       1.0000 0.48431  0.78730  0.83465  Biso   1.000  C
  C2       1.0000 0.51569  0.21270  0.83465  Biso   1.000  C
  C3       1.0000 0.01569  0.28730  0.16535  Biso   1.000  C
  C4       1.0000 0.98431  0.71270  0.16535  Biso   1.000  C
  C5       1.0000 0.51498  0.71765  0.91628  Biso   1.000  C
  C6       1.0000 0.48502  0.28235  0.91628  Biso   1.000  C
  C7       1.0000 0.98502  0.21765  0.08372  Biso   1.000  C
  C8       1.0000 0.01498  0.78235  0.08372  Biso   1.000  C
  C9       1.0000 0.58319  0.61090  0.90497  Biso   1.000  C
  C10      1.0000 0.41681  0.38910  0.90497  Biso   1.000  C
  C11      1.0000 0.91681  0.11090  0.09503  Biso   1.000  C
  C12      1.0000 0.08319  0.88910  0.09503  Biso   1.000  C
  H1       1.0000 0.60520  0.56390  0.95720  Biso   1.000  H
  H2       1.0000 0.39480  0.43610  0.95720  Biso   1.000  H
  H3       1.0000 0.89480  0.06390  0.04280  Biso   1.000  H
  H4       1.0000 0.10520  0.93610  0.04280  Biso   1.000  H
  C13      1.0000 0.61726  0.57564  0.81956  Biso   1.000  C
  C14      1.0000 0.38274  0.42436  0.81956  Biso   1.000  C
  C15      1.0000 0.88274  0.07564  0.18044  Biso   1.000  C
  C16      1.0000 0.11726  0.92436  0.18044  Biso   1.000  C
  H5       1.0000 0.66140  0.50520  0.81420  Biso   1.000  H
  H6       1.0000 0.33860  0.49480  0.81420  Biso   1.000  H
  H7       1.0000 0.83860  0.00520  0.18580  Biso   1.000  H
  H8       1.0000 0.16140  0.99480  0.18580  Biso   1.000  H
  C17      1.0000 0.58549  0.64580  0.74114  Biso   1.000  C
  C18      1.0000 0.41451  0.35420  0.74114  Biso   1.000  C
  C19      1.0000 0.91451  0.14580  0.25886  Biso   1.000  C
  C20      1.0000 0.08549  0.85420  0.25886  Biso   1.000  C
  C21      1.0000 0.52042  0.75017  0.74771  Biso   1.000  C
  C22      1.0000 0.47958  0.24983  0.74771  Biso   1.000  C
  C23      1.0000 0.97958  0.25017  0.25229  Biso   1.000  C
  C24      1.0000 0.02042  0.74983  0.25229  Biso   1.000  C
  H9       1.0000 0.50020  0.79640  0.69440  Biso   1.000  H
  H10      1.0000 0.49980  0.20360  0.69440  Biso   1.000  H
  H11      1.0000 0.99980  0.29640  0.30560  Biso   1.000  H
  H12      1.0000 0.00020  0.70360  0.30560  Biso   1.000  H
  C25      1.0000 0.41578  0.89790  0.83599  Biso   1.000  C
  C26      1.0000 0.58422  0.10210  0.83599  Biso   1.000  C
  C27      1.0000 0.08422  0.39790  0.16401  Biso   1.000  C
  C28      1.0000 0.91578  0.60210  0.16401  Biso   1.000  C
  H13      1.0000 0.40200  0.94240  0.78000  Biso   1.000  H
  H14      1.0000 0.59800  0.05760  0.78000  Biso   1.000  H
  H15      1.0000 0.09800  0.44240  0.22000  Biso   1.000  H
  H16      1.0000 0.90200  0.55760  0.22000  Biso   1.000  H
  C29      1.0000 0.30041  0.04638  0.90087  Biso   1.000  C
  C30      1.0000 0.69959  0.95362  0.90087  Biso   1.000  C
  C31      1.0000 0.19959  0.54638  0.09913  Biso   1.000  C
  C32      1.0000 0.80041  0.45362  0.09913  Biso   1.000  C
  H17      1.0000 0.32030  0.12600  0.86150  Biso   1.000  H
  H18      1.0000 0.67970  0.87400  0.86150  Biso   1.000  H
  H19      1.0000 0.17970  0.62600  0.13850  Biso   1.000  H
  H20      1.0000 0.82030  0.37400  0.13850  Biso   1.000  H
  C33      1.0000 0.27828  0.10118  0.99799  Biso   1.000  C
  C34      1.0000 0.72172  0.89882  0.99799  Biso   1.000  C
  C35      1.0000 0.22172  0.60118  0.00201  Biso   1.000  C
  C36      1.0000 0.77828  0.39882  0.00201  Biso   1.000  C
  C37      1.0000 0.21297  0.97924  0.86048  Biso   1.000  C
  C38      1.0000 0.78703  0.02076  0.86048  Biso   1.000  C
  C39      1.0000 0.28703  0.47924  0.13952  Biso   1.000  C
  C40      1.0000 0.71297  0.52076  0.13952  Biso   1.000  C
  H21      1.0000 0.19630  0.89660  0.89750  Biso   1.000  H
  H22      1.0000 0.80370  0.10340  0.89750  Biso   1.000  H
  H23      1.0000 0.30370  0.39660  0.10250  Biso   1.000  H
  H24      1.0000 0.69630  0.60340  0.10250  Biso   1.000  H
  H25      1.0000 0.16420  0.04840  0.86480  Biso   1.000  H
  H26      1.0000 0.83580  0.95160  0.86480  Biso   1.000  H
  H27      1.0000 0.33580  0.54840  0.13520  Biso   1.000  H
  H28      1.0000 0.66420  0.45160  0.13520  Biso   1.000  H
  C41      1.0000 0.22377  0.93374  0.76056  Biso   1.000  C
  C42      1.0000 0.77623  0.06626  0.76056  Biso   1.000  C
  C43      1.0000 0.27623  0.43374  0.23944  Biso   1.000  C
  C44      1.0000 0.72377  0.56626  0.23944  Biso   1.000  C
  C45      1.0000 0.23613  0.79080  0.73839  Biso   1.000  C
  C46      1.0000 0.76387  0.20920  0.73839  Biso   1.000  C
  C47      1.0000 0.26387  0.29080  0.26161  Biso   1.000  C
  C48      1.0000 0.73613  0.70920  0.26161  Biso   1.000  C
  H29      1.0000 0.23540  0.72210  0.78520  Biso   1.000  H
  H30      1.0000 0.76460  0.27790  0.78520  Biso   1.000  H
  H31      1.0000 0.26460  0.22210  0.21480  Biso   1.000  H
  H32      1.0000 0.73540  0.77790  0.21480  Biso   1.000  H
  C49      1.0000 0.24967  0.74920  0.64697  Biso   1.000  C
  C50      1.0000 0.75033  0.25080  0.64697  Biso   1.000  C
  C51      1.0000 0.25033  0.24920  0.35303  Biso   1.000  C
  C52      1.0000 0.74967  0.75080  0.35303  Biso   1.000  C
  H33      1.0000 0.25800  0.65290  0.63280  Biso   1.000  H
  H34      1.0000 0.74200  0.34710  0.63280  Biso   1.000  H
  H35      1.0000 0.24200  0.15290  0.36720  Biso   1.000  H
  H36      1.0000 0.75800  0.84710  0.36720  Biso   1.000  H
  C53      1.0000 0.25081  0.84920  0.57751  Biso   1.000  C
  C54      1.0000 0.74919  0.15080  0.57751  Biso   1.000  C
  C55      1.0000 0.24919  0.34920  0.42249  Biso   1.000  C
  C56      1.0000 0.75081  0.65080  0.42249  Biso   1.000  C
  H37      1.0000 0.25980  0.82110  0.51630  Biso   1.000  H
  H38      1.0000 0.74020  0.17890  0.51630  Biso   1.000  H
  H39      1.0000 0.24020  0.32110  0.48370  Biso   1.000  H
  H40      1.0000 0.75980  0.67890  0.48370  Biso   1.000  H
  C57      1.0000 0.23840  0.99320  0.59894  Biso   1.000  C
  C58      1.0000 0.76160  0.00680  0.59894  Biso   1.000  C
  C59      1.0000 0.26160  0.49320  0.40106  Biso   1.000  C
  C60      1.0000 0.73840  0.50680  0.40106  Biso   1.000  C
  H41      1.0000 0.23900  0.06150  0.55190  Biso   1.000  H
  H42      1.0000 0.76100  0.93850  0.55190  Biso   1.000  H
  H43      1.0000 0.26100  0.56150  0.44810  Biso   1.000  H
  H44      1.0000 0.73900  0.43850  0.44810  Biso   1.000  H
  C61      1.0000 0.22532  0.03440  0.68936  Biso   1.000  C
  C62      1.0000 0.77468  0.96560  0.68936  Biso   1.000  C
  C63      1.0000 0.27468  0.53440  0.31064  Biso   1.000  C
  C64      1.0000 0.72532  0.46560  0.31064  Biso   1.000  C
  H45      1.0000 0.21740  0.13080  0.70320  Biso   1.000  H
  H46      1.0000 0.78260  0.86920  0.70320  Biso   1.000  H
  H47      1.0000 0.28260  0.63080  0.29680  Biso   1.000  H
  H48      1.0000 0.71740  0.36920  0.29680  Biso   1.000  H
  C65      1.0000 0.38038  0.91337  0.23815  Biso   1.000  C
  C66      1.0000 0.61962  0.08663  0.23815  Biso   1.000  C
  C67      1.0000 0.11962  0.41337  0.76185  Biso   1.000  C
  C68      1.0000 0.88038  0.58663  0.76185  Biso   1.000  C
  H49      1.0000 0.33840  0.98280  0.22130  Biso   1.000  H
  H50      1.0000 0.66160  0.01720  0.22130  Biso   1.000  H
  H51      1.0000 0.16160  0.48280  0.77870  Biso   1.000  H
  H52      1.0000 0.83840  0.51720  0.77870  Biso   1.000  H
  C69      1.0000 0.39844  0.89340  0.33104  Biso   1.000  C
  C70      1.0000 0.60156  0.10660  0.33104  Biso   1.000  C
  C71      1.0000 0.10156  0.39340  0.66896  Biso   1.000  C
  C72      1.0000 0.89844  0.60660  0.66896  Biso   1.000  C
  H53      1.0000 0.36940  0.94960  0.37520  Biso   1.000  H
  H54      1.0000 0.63060  0.05040  0.37520  Biso   1.000  H
  H55      1.0000 0.13060  0.44960  0.62480  Biso   1.000  H
  H56      1.0000 0.86940  0.55040  0.62480  Biso   1.000  H
  C73      1.0000 0.45988  0.78980  0.35897  Biso   1.000  C
  C74      1.0000 0.54012  0.21020  0.35897  Biso   1.000  C
  C75      1.0000 0.04012  0.28980  0.64103  Biso   1.000  C
  C76      1.0000 0.95988  0.71020  0.64103  Biso   1.000  C
  C77      1.0000 0.50087  0.71150  0.28962  Biso   1.000  C
  C78      1.0000 0.49913  0.28850  0.28962  Biso   1.000  C
  C79      1.0000 0.99913  0.21150  0.71038  Biso   1.000  C
  C80      1.0000 0.00087  0.78850  0.71038  Biso   1.000  C
  H57      1.0000 0.54240  0.64050  0.30500  Biso   1.000  H
  H58      1.0000 0.45760  0.35950  0.30500  Biso   1.000  H
  H59      1.0000 0.95760  0.14050  0.69500  Biso   1.000  H
  H60      1.0000 0.04240  0.85950  0.69500  Biso   1.000  H
  C81      1.0000 0.48084  0.73760  0.19754  Biso   1.000  C
  C82      1.0000 0.51916  0.26240  0.19754  Biso   1.000  C
  C83      1.0000 0.01916  0.23760  0.80246  Biso   1.000  C
  C84      1.0000 0.98084  0.76240  0.80246  Biso   1.000  C
  H61      1.0000 0.51020  0.68400  0.15220  Biso   1.000  H
  H62      1.0000 0.48980  0.31600  0.15220  Biso   1.000  H
  H63      1.0000 0.98980  0.18400  0.84780  Biso   1.000  H
  H64      1.0000 0.01020  0.81600  0.84780  Biso   1.000  H
  C85      1.0000 0.48178  0.76580  0.45997  Biso   1.000  C
  C86      1.0000 0.51822  0.23420  0.45997  Biso   1.000  C
  C87      1.0000 0.01822  0.26580  0.54003  Biso   1.000  C
  C88      1.0000 0.98178  0.73420  0.54003  Biso   1.000  C
  H65      1.0000 0.44300  0.82410  0.49770  Biso   1.000  H
  H66      1.0000 0.55700  0.17590  0.49770  Biso   1.000  H
  H67      1.0000 0.05700  0.32410  0.50230  Biso   1.000  H
  H68      1.0000 0.94300  0.67590  0.50230  Biso   1.000  H
  H69      1.0000 0.54370  0.79110  0.47140  Biso   1.000  H
  H70      1.0000 0.45630  0.20890  0.47140  Biso   1.000  H
  H71      1.0000 0.95630  0.29110  0.52860  Biso   1.000  H
  H72      1.0000 0.04370  0.70890  0.52860  Biso   1.000  H
  H73      1.0000 0.47260  0.66670  0.47520  Biso   1.000  H
  H74      1.0000 0.52740  0.33330  0.47520  Biso   1.000  H
  H75      1.0000 0.02740  0.16670  0.52480  Biso   1.000  H
  H76      1.0000 0.97260  0.83330  0.52480  Biso   1.000  H
  Cl1      1.0000 0.62945  0.60162  0.63204  Biso   1.000  Cl
  Cl2      1.0000 0.37055  0.39838  0.63204  Biso   1.000  Cl
  Cl3      1.0000 0.87055  0.10162  0.36796  Biso   1.000  Cl
  Cl4      1.0000 0.12945  0.89838  0.36796  Biso   1.000  Cl
  Cu1      1.0000 0.39317  0.87462  0.03451  Biso   1.000  Cu
  Cu2      1.0000 0.60683  0.12538  0.03451  Biso   1.000  Cu
  Cu3      1.0000 0.10683  0.37462  0.96549  Biso   1.000  Cu
  Cu4      1.0000 0.89317  0.62538  0.96549  Biso   1.000  Cu
  N1       1.0000 0.37264  0.93920  0.90818  Biso   1.000  N
  N2       1.0000 0.62736  0.06080  0.90818  Biso   1.000  N
  N3       1.0000 0.12736  0.43920  0.09182  Biso   1.000  N
  N4       1.0000 0.87264  0.56080  0.09182  Biso   1.000  N
  N5       1.0000 0.42067  0.83706  0.17062  Biso   1.000  N
  N6       1.0000 0.57933  0.16294  0.17062  Biso   1.000  N
  N7       1.0000 0.07933  0.33706  0.82938  Biso   1.000  N
  N8       1.0000 0.92067  0.66294  0.82938  Biso   1.000  N
  O1       1.0000 0.48671  0.74512  0.99975  Biso   1.000  O
  O2       1.0000 0.51329  0.25488  0.99975  Biso   1.000  O
  O3       1.0000 0.01329  0.24512  0.00025  Biso   1.000  O
  O4       1.0000 0.98671  0.75488  0.00025  Biso   1.000  O
  O5       1.0000 0.31390  0.03409  0.06656  Biso   1.000  O
  O6       1.0000 0.68610  0.96591  0.06656  Biso   1.000  O
  O7       1.0000 0.18610  0.53409  0.93344  Biso   1.000  O
  O8       1.0000 0.81390  0.46591  0.93344  Biso   1.000  O
  O9       1.0000 0.22591  0.20347  0.00618  Biso   1.000  O
  O10      1.0000 0.77409  0.79653  0.00618  Biso   1.000  O
  O11      1.0000 0.27409  0.70347  0.99382  Biso   1.000  O
  O12      1.0000 0.72591  0.29653  0.99382  Biso   1.000  O
