data_image0
_cell_length_a       6.4582
_cell_length_b       14.0054
_cell_length_c       19.6232
_cell_angle_alpha    90
_cell_angle_beta     90
_cell_angle_gamma    90

_symmetry_space_group_name_H-M    "P 1"
_symmetry_int_tables_number       1

loop_
  _symmetry_equiv_pos_as_xyz
  'x, y, z'

loop_
  _atom_site_label
  _atom_site_occupancy
  _atom_site_fract_x
  _atom_site_fract_y
  _atom_site_fract_z
  _atom_site_thermal_displace_type
  _atom_site_B_iso_or_equiv
  _atom_site_type_symbol
  Cu1      1.0000 0.98377  0.30762  0.94861  Biso   1.000  Cu
  Cu2      1.0000 0.51623  0.69238  0.44861  Biso   1.000  Cu
  Cu3      1.0000 0.01623  0.80762  0.55139  Biso   1.000  Cu
  Cu4      1.0000 0.48377  0.19238  0.05139  Biso   1.000  Cu
  Cl1      1.0000 0.06155  0.22214  0.04438  Biso   1.000  Cl
  Cl2      1.0000 0.43845  0.77786  0.54438  Biso   1.000  Cl
  Cl3      1.0000 0.93845  0.72214  0.45562  Biso   1.000  Cl
  Cl4      1.0000 0.56155  0.27786  0.95562  Biso   1.000  Cl
  N1       1.0000 0.97850  0.43520  0.99501  Biso   1.000  N
  N2       1.0000 0.52150  0.56480  0.49501  Biso   1.000  N
  N3       1.0000 0.02150  0.93520  0.50499  Biso   1.000  N
  N4       1.0000 0.47850  0.06480  0.00499  Biso   1.000  N
  H1       1.0000 0.94730  0.42060  0.04170  Biso   1.000  H
  H2       1.0000 0.55270  0.57940  0.54170  Biso   1.000  H
  H3       1.0000 0.05270  0.92060  0.45830  Biso   1.000  H
  H4       1.0000 0.44730  0.07940  0.95830  Biso   1.000  H
  N5       1.0000 0.97200  0.39800  0.86810  Biso   1.000  N
  N6       1.0000 0.52800  0.60200  0.36810  Biso   1.000  N
  N7       1.0000 0.02800  0.89800  0.63190  Biso   1.000  N
  N8       1.0000 0.47200  0.10200  0.13190  Biso   1.000  N
  N9       1.0000 0.00690  0.20320  0.87832  Biso   1.000  N
  N10      1.0000 0.49310  0.79680  0.37832  Biso   1.000  N
  N11      1.0000 0.99310  0.70320  0.62168  Biso   1.000  N
  N12      1.0000 0.50690  0.29680  0.12168  Biso   1.000  N
  H5       1.0000 0.88810  0.16880  0.87740  Biso   1.000  H
  H6       1.0000 0.61190  0.83120  0.37740  Biso   1.000  H
  H7       1.0000 0.11190  0.66880  0.62260  Biso   1.000  H
  H8       1.0000 0.38810  0.33120  0.12260  Biso   1.000  H
  H9       1.0000 0.08780  0.14810  0.88110  Biso   1.000  H
  H10      1.0000 0.41220  0.85190  0.38110  Biso   1.000  H
  H11      1.0000 0.91220  0.64810  0.61890  Biso   1.000  H
  H12      1.0000 0.58780  0.35190  0.11890  Biso   1.000  H
  C1       1.0000 0.18950  0.47910  0.98730  Biso   1.000  C
  C2       1.0000 0.31050  0.52090  0.48730  Biso   1.000  C
  C3       1.0000 0.81050  0.97910  0.51270  Biso   1.000  C
  C4       1.0000 0.68950  0.02090  0.01270  Biso   1.000  C
  H13      1.0000 0.29400  0.43200  0.99890  Biso   1.000  H
  H14      1.0000 0.20600  0.56800  0.49890  Biso   1.000  H
  H15      1.0000 0.70600  0.93200  0.50110  Biso   1.000  H
  H16      1.0000 0.79400  0.06800  0.00110  Biso   1.000  H
  H17      1.0000 0.20300  0.53210  0.01880  Biso   1.000  H
  H18      1.0000 0.29700  0.46790  0.51880  Biso   1.000  H
  H19      1.0000 0.79700  0.03210  0.48120  Biso   1.000  H
  H20      1.0000 0.70300  0.96790  0.98120  Biso   1.000  H
  C5       1.0000 0.22660  0.51420  0.91600  Biso   1.000  C
  C6       1.0000 0.27340  0.48580  0.41600  Biso   1.000  C
  C7       1.0000 0.77340  0.01420  0.58400  Biso   1.000  C
  C8       1.0000 0.72660  0.98580  0.08400  Biso   1.000  C
  H21      1.0000 0.37050  0.53330  0.91200  Biso   1.000  H
  H22      1.0000 0.12950  0.46670  0.41200  Biso   1.000  H
  H23      1.0000 0.62950  0.03330  0.58800  Biso   1.000  H
  H24      1.0000 0.87050  0.96670  0.08800  Biso   1.000  H
  H25      1.0000 0.14220  0.57040  0.90840  Biso   1.000  H
  H26      1.0000 0.35780  0.42960  0.40840  Biso   1.000  H
  H27      1.0000 0.85780  0.07040  0.59160  Biso   1.000  H
  H28      1.0000 0.64220  0.92960  0.09160  Biso   1.000  H
  C9       1.0000 0.17990  0.44260  0.86090  Biso   1.000  C
  C10      1.0000 0.32010  0.55740  0.36090  Biso   1.000  C
  C11      1.0000 0.82010  0.94260  0.63910  Biso   1.000  C
  C12      1.0000 0.67990  0.05740  0.13910  Biso   1.000  C
  H29      1.0000 0.18810  0.47410  0.81700  Biso   1.000  H
  H30      1.0000 0.31190  0.52590  0.31700  Biso   1.000  H
  H31      1.0000 0.81190  0.97410  0.68300  Biso   1.000  H
  H32      1.0000 0.68810  0.02590  0.18300  Biso   1.000  H
  H33      1.0000 0.28440  0.39290  0.86190  Biso   1.000  H
  H34      1.0000 0.21560  0.60710  0.36190  Biso   1.000  H
  H35      1.0000 0.71560  0.89290  0.63810  Biso   1.000  H
  H36      1.0000 0.78440  0.10710  0.13810  Biso   1.000  H
  C13      1.0000 0.81770  0.49360  0.96150  Biso   1.000  C
  C14      1.0000 0.68230  0.50640  0.46150  Biso   1.000  C
  C15      1.0000 0.18230  0.99360  0.53850  Biso   1.000  C
  C16      1.0000 0.31770  0.00640  0.03850  Biso   1.000  C
  H37      1.0000 0.84900  0.56080  0.96750  Biso   1.000  H
  H38      1.0000 0.65100  0.43920  0.46750  Biso   1.000  H
  H39      1.0000 0.15100  0.06080  0.53250  Biso   1.000  H
  H40      1.0000 0.34900  0.93920  0.03250  Biso   1.000  H
  H41      1.0000 0.68420  0.48090  0.98220  Biso   1.000  H
  H42      1.0000 0.81580  0.51910  0.48220  Biso   1.000  H
  H43      1.0000 0.31580  0.98090  0.51780  Biso   1.000  H
  H44      1.0000 0.18420  0.01910  0.01780  Biso   1.000  H
  C17      1.0000 0.80860  0.46970  0.88440  Biso   1.000  C
  C18      1.0000 0.69140  0.53030  0.38440  Biso   1.000  C
  C19      1.0000 0.19140  0.96970  0.61560  Biso   1.000  C
  C20      1.0000 0.30860  0.03030  0.11560  Biso   1.000  C
  H45      1.0000 0.67330  0.44420  0.87290  Biso   1.000  H
  H46      1.0000 0.82670  0.55580  0.37290  Biso   1.000  H
  H47      1.0000 0.32670  0.94420  0.62710  Biso   1.000  H
  H48      1.0000 0.17330  0.05580  0.12710  Biso   1.000  H
  H49      1.0000 0.83070  0.52720  0.85780  Biso   1.000  H
  H50      1.0000 0.66930  0.47280  0.35780  Biso   1.000  H
  H51      1.0000 0.16930  0.02720  0.64220  Biso   1.000  H
  H52      1.0000 0.33070  0.97280  0.14220  Biso   1.000  H
  C21      1.0000 0.92020  0.33900  0.80720  Biso   1.000  C
  C22      1.0000 0.57980  0.66100  0.30720  Biso   1.000  C
  C23      1.0000 0.07980  0.83900  0.69280  Biso   1.000  C
  C24      1.0000 0.42020  0.16100  0.19280  Biso   1.000  C
  H53      1.0000 0.95450  0.37390  0.76600  Biso   1.000  H
  H54      1.0000 0.54550  0.62610  0.26600  Biso   1.000  H
  H55      1.0000 0.04550  0.87390  0.73400  Biso   1.000  H
  H56      1.0000 0.45450  0.12610  0.23400  Biso   1.000  H
  H57      1.0000 0.77290  0.32560  0.80660  Biso   1.000  H
  H58      1.0000 0.72710  0.67440  0.30660  Biso   1.000  H
  H59      1.0000 0.22710  0.82560  0.69340  Biso   1.000  H
  H60      1.0000 0.27290  0.17440  0.19340  Biso   1.000  H
  C25      1.0000 0.04040  0.24620  0.80910  Biso   1.000  C
  C26      1.0000 0.45960  0.75380  0.30910  Biso   1.000  C
  C27      1.0000 0.95960  0.74620  0.69090  Biso   1.000  C
  C28      1.0000 0.54040  0.25380  0.19090  Biso   1.000  C
  H61      1.0000 0.18810  0.26030  0.80350  Biso   1.000  H
  H62      1.0000 0.31190  0.73970  0.30350  Biso   1.000  H
  H63      1.0000 0.81190  0.76030  0.69650  Biso   1.000  H
  H64      1.0000 0.68810  0.23970  0.19650  Biso   1.000  H
  C29      1.0000 0.97260  0.17810  0.75290  Biso   1.000  C
  C30      1.0000 0.52740  0.82190  0.25290  Biso   1.000  C
  C31      1.0000 0.02740  0.67810  0.74710  Biso   1.000  C
  C32      1.0000 0.47260  0.32190  0.24710  Biso   1.000  C
  H65      1.0000 0.05360  0.11990  0.75570  Biso   1.000  H
  H66      1.0000 0.44640  0.88010  0.25570  Biso   1.000  H
  H67      1.0000 0.94640  0.61990  0.74430  Biso   1.000  H
  H68      1.0000 0.55360  0.38010  0.24430  Biso   1.000  H
  H69      1.0000 0.82830  0.16140  0.75950  Biso   1.000  H
  H70      1.0000 0.67170  0.83860  0.25950  Biso   1.000  H
  H71      1.0000 0.17170  0.66140  0.74050  Biso   1.000  H
  H72      1.0000 0.32830  0.33860  0.24050  Biso   1.000  H
  C33      1.0000 0.99960  0.22200  0.68250  Biso   1.000  C
  C34      1.0000 0.50040  0.77800  0.18250  Biso   1.000  C
  C35      1.0000 0.00040  0.72200  0.81750  Biso   1.000  C
  C36      1.0000 0.49960  0.27800  0.31750  Biso   1.000  C
  C37      1.0000 0.19180  0.22700  0.65200  Biso   1.000  C
  C38      1.0000 0.30820  0.77300  0.15200  Biso   1.000  C
  C39      1.0000 0.80820  0.72700  0.84800  Biso   1.000  C
  C40      1.0000 0.69180  0.27300  0.34800  Biso   1.000  C
  H73      1.0000 0.30810  0.20200  0.67350  Biso   1.000  H
  H74      1.0000 0.19190  0.79800  0.17350  Biso   1.000  H
  H75      1.0000 0.69190  0.70200  0.82650  Biso   1.000  H
  H76      1.0000 0.80810  0.29800  0.32650  Biso   1.000  H
  C41      1.0000 0.20770  0.27090  0.58750  Biso   1.000  C
  C42      1.0000 0.29230  0.72910  0.08750  Biso   1.000  C
  C43      1.0000 0.79230  0.77090  0.91250  Biso   1.000  C
  C44      1.0000 0.70770  0.22910  0.41250  Biso   1.000  C
  H77      1.0000 0.33620  0.27530  0.56640  Biso   1.000  H
  H78      1.0000 0.16380  0.72470  0.06640  Biso   1.000  H
  H79      1.0000 0.66380  0.77530  0.93360  Biso   1.000  H
  H80      1.0000 0.83620  0.22470  0.43360  Biso   1.000  H
  C45      1.0000 0.03590  0.30720  0.55580  Biso   1.000  C
  C46      1.0000 0.46410  0.69280  0.05580  Biso   1.000  C
  C47      1.0000 0.96410  0.80720  0.94420  Biso   1.000  C
  C48      1.0000 0.53590  0.19280  0.44420  Biso   1.000  C
  H81      1.0000 0.04830  0.33560  0.51320  Biso   1.000  H
  H82      1.0000 0.45170  0.66440  0.01320  Biso   1.000  H
  H83      1.0000 0.95170  0.83560  0.98680  Biso   1.000  H
  H84      1.0000 0.54830  0.16440  0.48680  Biso   1.000  H
  C49      1.0000 0.84650  0.30170  0.58660  Biso   1.000  C
  C50      1.0000 0.65350  0.69830  0.08660  Biso   1.000  C
  C51      1.0000 0.15350  0.80170  0.91340  Biso   1.000  C
  C52      1.0000 0.34650  0.19830  0.41340  Biso   1.000  C
  H85      1.0000 0.73030  0.32610  0.56460  Biso   1.000  H
  H86      1.0000 0.76970  0.67390  0.06460  Biso   1.000  H
  H87      1.0000 0.26970  0.82610  0.93540  Biso   1.000  H
  H88      1.0000 0.23030  0.17390  0.43540  Biso   1.000  H
  C53      1.0000 0.82660  0.26070  0.64930  Biso   1.000  C
  C54      1.0000 0.67340  0.73930  0.14930  Biso   1.000  C
  C55      1.0000 0.17340  0.76070  0.85070  Biso   1.000  C
  C56      1.0000 0.32660  0.23930  0.35070  Biso   1.000  C
  H89      1.0000 0.69740  0.25830  0.67010  Biso   1.000  H
  H90      1.0000 0.80260  0.74170  0.17010  Biso   1.000  H
  H91      1.0000 0.30260  0.75830  0.82990  Biso   1.000  H
  H92      1.0000 0.19740  0.24170  0.32990  Biso   1.000  H
  Cl5      1.0000 0.98530  0.47196  0.18484  Biso   1.000  Cl
  Cl6      1.0000 0.51470  0.52804  0.68484  Biso   1.000  Cl
  Cl7      1.0000 0.01470  0.97196  0.31516  Biso   1.000  Cl
  Cl8      1.0000 0.48530  0.02804  0.81516  Biso   1.000  Cl
  O1       1.0000 0.81200  0.46470  0.13720  Biso   1.000  O
  O2       1.0000 0.68800  0.53530  0.63720  Biso   1.000  O
  O3       1.0000 0.18800  0.96470  0.36280  Biso   1.000  O
  O4       1.0000 0.31200  0.03530  0.86280  Biso   1.000  O
  O5       1.0000 0.17340  0.46210  0.14830  Biso   1.000  O
  O6       1.0000 0.32660  0.53790  0.64830  Biso   1.000  O
  O7       1.0000 0.82660  0.96210  0.35170  Biso   1.000  O
  O8       1.0000 0.67340  0.03790  0.85170  Biso   1.000  O
  O9       1.0000 0.97690  0.55960  0.21900  Biso   1.000  O
  O10      1.0000 0.52310  0.44040  0.71900  Biso   1.000  O
  O11      1.0000 0.02310  0.05960  0.28100  Biso   1.000  O
  O12      1.0000 0.47690  0.94040  0.78100  Biso   1.000  O
  O13      1.0000 0.97100  0.39860  0.23510  Biso   1.000  O
  O14      1.0000 0.52900  0.60140  0.73510  Biso   1.000  O
  O15      1.0000 0.02900  0.89860  0.26490  Biso   1.000  O
  O16      1.0000 0.47100  0.10140  0.76490  Biso   1.000  O
