data_image0
_cell_length_a       8.785
_cell_length_b       11.075
_cell_length_c       12.09
_cell_angle_alpha    97.1
_cell_angle_beta     102.87
_cell_angle_gamma    112.28

_symmetry_space_group_name_H-M    "P 1"
_symmetry_int_tables_number       1

loop_
  _symmetry_equiv_pos_as_xyz
  'x, y, z'

loop_
  _atom_site_label
  _atom_site_occupancy
  _atom_site_fract_x
  _atom_site_fract_y
  _atom_site_fract_z
  _atom_site_thermal_displace_type
  _atom_site_B_iso_or_equiv
  _atom_site_type_symbol
  Cu1      1.0000 0.50000  0.00000  0.50000  Biso   1.000  Cu
  Cu2      1.0000 0.50000  0.50000  0.00000  Biso   1.000  Cu
  Cl1      1.0000 0.45110  0.13367  0.62640  Biso   1.000  Cl
  Cl2      1.0000 0.54890  0.86633  0.37360  Biso   1.000  Cl
  Cl3      1.0000 0.71530  0.70270  0.02880  Biso   1.000  Cl
  Cl4      1.0000 0.28470  0.29730  0.97120  Biso   1.000  Cl
  C1       1.0000 0.81640  0.64400  0.46050  Biso   1.000  C
  C2       1.0000 0.18360  0.35600  0.53950  Biso   1.000  C
  C3       1.0000 0.80190  0.51470  0.43430  Biso   1.000  C
  C4       1.0000 0.19810  0.48530  0.56570  Biso   1.000  C
  C5       1.0000 0.73790  0.42700  0.50020  Biso   1.000  C
  C6       1.0000 0.26210  0.57300  0.49980  Biso   1.000  C
  H1       1.0000 0.72430  0.33700  0.48040  Biso   1.000  H
  H2       1.0000 0.27570  0.66300  0.51960  Biso   1.000  H
  C7       1.0000 0.69270  0.46950  0.59610  Biso   1.000  C
  C8       1.0000 0.30730  0.53050  0.40390  Biso   1.000  C
  H3       1.0000 0.64590  0.40780  0.64070  Biso   1.000  H
  H4       1.0000 0.35410  0.59220  0.35930  Biso   1.000  H
  C9       1.0000 0.71490  0.59810  0.62630  Biso   1.000  C
  C10      1.0000 0.28510  0.40190  0.37370  Biso   1.000  C
  H5       1.0000 0.68870  0.62810  0.69370  Biso   1.000  H
  H6       1.0000 0.31130  0.37190  0.30630  Biso   1.000  H
  C11      1.0000 0.77510  0.68350  0.55920  Biso   1.000  C
  C12      1.0000 0.22490  0.31650  0.44080  Biso   1.000  C
  H7       1.0000 0.78970  0.77360  0.58030  Biso   1.000  H
  H8       1.0000 0.21030  0.22640  0.41970  Biso   1.000  H
  C13      1.0000 0.87820  0.74500  0.38940  Biso   1.000  C
  C14      1.0000 0.12180  0.25500  0.61060  Biso   1.000  C
  H9       1.0000 0.81650  0.80350  0.38860  Biso   1.000  H
  H10      1.0000 0.18350  0.19650  0.61140  Biso   1.000  H
  H11      1.0000 0.85330  0.69790  0.30790  Biso   1.000  H
  H12      1.0000 0.14670  0.30210  0.69210  Biso   1.000  H
  S1       1.0000 0.10380  0.84430  0.44990  Biso   1.000  S
  S2       1.0000 0.89620  0.15570  0.55010  Biso   1.000  S
  N1       1.0000 0.32540  0.01050  0.36880  Biso   1.000  N
  N2       1.0000 0.67460  0.98950  0.63120  Biso   1.000  N
  C15      1.0000 0.15510  0.94170  0.35010  Biso   1.000  C
  C16      1.0000 0.84490  0.05830  0.64990  Biso   1.000  C
  C17      1.0000 0.03750  0.95280  0.25800  Biso   1.000  C
  C18      1.0000 0.96250  0.04720  0.74200  Biso   1.000  C
  H13      1.0000 0.91760  0.90600  0.24710  Biso   1.000  H
  H14      1.0000 0.08240  0.09400  0.75290  Biso   1.000  H
  C19      1.0000 0.09280  0.03000  0.18360  Biso   1.000  C
  C20      1.0000 0.90720  0.97000  0.81640  Biso   1.000  C
  H15      1.0000 0.01310  0.03710  0.12020  Biso   1.000  H
  H16      1.0000 0.98690  0.96290  0.87980  Biso   1.000  H
  C21      1.0000 0.26590  0.09700  0.20260  Biso   1.000  C
  C22      1.0000 0.73410  0.90300  0.79740  Biso   1.000  C
  H17      1.0000 0.30940  0.15100  0.15190  Biso   1.000  H
  H18      1.0000 0.69060  0.84900  0.84810  Biso   1.000  H
  C23      1.0000 0.37670  0.08500  0.29690  Biso   1.000  C
  C24      1.0000 0.62330  0.91500  0.70310  Biso   1.000  C
  H19      1.0000 0.49690  0.13360  0.31020  Biso   1.000  H
  H20      1.0000 0.50310  0.86640  0.68980  Biso   1.000  H
  C25      1.0000 0.84220  0.46300  0.32840  Biso   1.000  C
  C26      1.0000 0.15780  0.53700  0.67160  Biso   1.000  C
  H21      1.0000 0.87110  0.38630  0.33910  Biso   1.000  H
  H22      1.0000 0.12890  0.61370  0.66090  Biso   1.000  H
  H23      1.0000 0.94160  0.53440  0.31540  Biso   1.000  H
  H24      1.0000 0.05840  0.46560  0.68460  Biso   1.000  H
  S3       1.0000 0.65430  0.41110  0.20579  Biso   1.000  S
  S4       1.0000 0.34570  0.58890  0.79421  Biso   1.000  S
  N3       1.0000 0.65940  0.41350  0.99200  Biso   1.000  N
  N4       1.0000 0.34060  0.58650  0.00800  Biso   1.000  N
  C27      1.0000 0.72920  0.38190  0.08590  Biso   1.000  C
  C28      1.0000 0.27080  0.61810  0.91410  Biso   1.000  C
  C29      1.0000 0.84740  0.32960  0.08620  Biso   1.000  C
  C30      1.0000 0.15260  0.67040  0.91380  Biso   1.000  C
  H25      1.0000 0.89850  0.30940  0.15520  Biso   1.000  H
  H26      1.0000 0.10150  0.69060  0.84480  Biso   1.000  H
  C31      1.0000 0.89190  0.30640  0.98690  Biso   1.000  C
  C32      1.0000 0.10810  0.69360  0.01310  Biso   1.000  C
  H27      1.0000 0.97630  0.27250  0.98630  Biso   1.000  H
  H28      1.0000 0.02370  0.72750  0.01370  Biso   1.000  H
  C33      1.0000 0.81230  0.33300  0.88870  Biso   1.000  C
  C34      1.0000 0.18770  0.66700  0.11130  Biso   1.000  C
  H29      1.0000 0.83460  0.31310  0.81680  Biso   1.000  H
  H30      1.0000 0.16540  0.68690  0.18320  Biso   1.000  H
  C35      1.0000 0.69940  0.38910  0.89640  Biso   1.000  C
  C36      1.0000 0.30060  0.61090  0.10360  Biso   1.000  C
  H31      1.0000 0.64760  0.41140  0.82900  Biso   1.000  H
  H32      1.0000 0.35240  0.58860  0.17100  Biso   1.000  H
  O1       1.0000 0.25160  0.90090  0.75440  Biso   1.000  O
  O2       1.0000 0.74840  0.09910  0.24560  Biso   1.000  O
  H33      1.0000 0.26590  0.94450  0.70250  Biso   1.000  H
  H34      1.0000 0.73410  0.05550  0.29750  Biso   1.000  H
  C37      1.0000 0.36690  0.98430  0.86510  Biso   1.000  C
  C38      1.0000 0.63310  0.01570  0.13490  Biso   1.000  C
  H35      1.0000 0.35380  0.93230  0.92510  Biso   1.000  H
  H36      1.0000 0.64620  0.06770  0.07490  Biso   1.000  H
  H37      1.0000 0.34010  0.06100  0.88470  Biso   1.000  H
  H38      1.0000 0.65990  0.93900  0.11530  Biso   1.000  H
  H39      1.0000 0.48560  0.01650  0.86140  Biso   1.000  H
  H40      1.0000 0.51440  0.98350  0.13860  Biso   1.000  H
