data_image0
_cell_length_a       9.494
_cell_length_b       7.175
_cell_length_c       17.299
_cell_angle_alpha    90
_cell_angle_beta     94.66
_cell_angle_gamma    90

_symmetry_space_group_name_H-M    "P 1"
_symmetry_int_tables_number       1

loop_
  _symmetry_equiv_pos_as_xyz
  'x, y, z'

loop_
  _atom_site_label
  _atom_site_occupancy
  _atom_site_fract_x
  _atom_site_fract_y
  _atom_site_fract_z
  _atom_site_thermal_displace_type
  _atom_site_B_iso_or_equiv
  _atom_site_type_symbol
  Cu1      1.0000 0.18126  0.09834  0.77971  Biso   1.000  Cu
  Cu2      1.0000 0.18126  0.40166  0.27971  Biso   1.000  Cu
  Cu3      1.0000 0.81874  0.90166  0.22029  Biso   1.000  Cu
  Cu4      1.0000 0.81874  0.59834  0.72029  Biso   1.000  Cu
  N1       1.0000 0.25960  0.25280  0.87214  Biso   1.000  N
  N2       1.0000 0.25960  0.24720  0.37214  Biso   1.000  N
  N3       1.0000 0.74040  0.74720  0.12786  Biso   1.000  N
  N4       1.0000 0.74040  0.75280  0.62786  Biso   1.000  N
  C1       1.0000 0.15310  0.24320  0.92888  Biso   1.000  C
  C2       1.0000 0.15310  0.25680  0.42888  Biso   1.000  C
  C3       1.0000 0.84690  0.75680  0.07112  Biso   1.000  C
  C4       1.0000 0.84690  0.74320  0.57112  Biso   1.000  C
  C5       1.0000 0.19050  0.19400  0.00638  Biso   1.000  C
  C6       1.0000 0.19050  0.30600  0.50638  Biso   1.000  C
  C7       1.0000 0.80950  0.80600  0.99362  Biso   1.000  C
  C8       1.0000 0.80950  0.69400  0.49362  Biso   1.000  C
  C9       1.0000 0.08740  0.18980  0.05790  Biso   1.000  C
  C10      1.0000 0.08740  0.31020  0.55790  Biso   1.000  C
  C11      1.0000 0.91260  0.81020  0.94210  Biso   1.000  C
  C12      1.0000 0.91260  0.68980  0.44210  Biso   1.000  C
  C13      1.0000 0.95030  0.23490  0.03510  Biso   1.000  C
  C14      1.0000 0.95030  0.26510  0.53510  Biso   1.000  C
  C15      1.0000 0.04970  0.76510  0.96490  Biso   1.000  C
  C16      1.0000 0.04970  0.73490  0.46490  Biso   1.000  C
  C17      1.0000 0.91310  0.28560  0.95830  Biso   1.000  C
  C18      1.0000 0.91310  0.21440  0.45830  Biso   1.000  C
  C19      1.0000 0.08690  0.71440  0.04170  Biso   1.000  C
  C20      1.0000 0.08690  0.78560  0.54170  Biso   1.000  C
  C21      1.0000 0.01390  0.28820  0.90490  Biso   1.000  C
  C22      1.0000 0.01390  0.21180  0.40490  Biso   1.000  C
  C23      1.0000 0.98610  0.71180  0.09510  Biso   1.000  C
  C24      1.0000 0.98610  0.78820  0.59510  Biso   1.000  C
  C25      1.0000 0.96690  0.34340  0.82274  Biso   1.000  C
  C26      1.0000 0.96690  0.15660  0.32274  Biso   1.000  C
  C27      1.0000 0.03310  0.65660  0.17726  Biso   1.000  C
  C28      1.0000 0.03310  0.84340  0.67726  Biso   1.000  C
  O1       1.0000 0.30110  0.90170  0.82326  Biso   1.000  O
  O2       1.0000 0.30110  0.59830  0.32326  Biso   1.000  O
  O3       1.0000 0.69890  0.09830  0.17674  Biso   1.000  O
  O4       1.0000 0.69890  0.40170  0.67674  Biso   1.000  O
  O5       1.0000 0.87260  0.46610  0.81507  Biso   1.000  O
  O6       1.0000 0.87260  0.03390  0.31507  Biso   1.000  O
  O7       1.0000 0.12740  0.53390  0.18493  Biso   1.000  O
  O8       1.0000 0.12740  0.96610  0.68493  Biso   1.000  O
  O9       1.0000 0.02100  0.27100  0.76577  Biso   1.000  O
  O10      1.0000 0.02100  0.22900  0.26577  Biso   1.000  O
  O11      1.0000 0.97900  0.72900  0.23423  Biso   1.000  O
  O12      1.0000 0.97900  0.77100  0.73423  Biso   1.000  O
  C29      1.0000 0.28180  0.44920  0.84727  Biso   1.000  C
  C30      1.0000 0.28180  0.05080  0.34727  Biso   1.000  C
  C31      1.0000 0.71820  0.55080  0.15273  Biso   1.000  C
  C32      1.0000 0.71820  0.94920  0.65273  Biso   1.000  C
  C33      1.0000 0.32200  0.45360  0.76400  Biso   1.000  C
  C34      1.0000 0.32200  0.04640  0.26400  Biso   1.000  C
  C35      1.0000 0.67800  0.54640  0.23600  Biso   1.000  C
  C36      1.0000 0.67800  0.95360  0.73600  Biso   1.000  C
  O13      1.0000 0.35050  0.61790  0.73609  Biso   1.000  O
  O14      1.0000 0.35050  0.88210  0.23609  Biso   1.000  O
  O15      1.0000 0.64950  0.38210  0.26391  Biso   1.000  O
  O16      1.0000 0.64950  0.11790  0.76391  Biso   1.000  O
  H1       1.0000 0.34190  0.69760  0.76930  Biso   1.000  H
  H2       1.0000 0.34190  0.80240  0.26930  Biso   1.000  H
  H3       1.0000 0.65810  0.30240  0.23070  Biso   1.000  H
  H4       1.0000 0.65810  0.19760  0.73070  Biso   1.000  H
  O17      1.0000 0.32340  0.31330  0.72465  Biso   1.000  O
  O18      1.0000 0.32340  0.18670  0.22465  Biso   1.000  O
  O19      1.0000 0.67660  0.68670  0.27535  Biso   1.000  O
  O20      1.0000 0.67660  0.81330  0.77535  Biso   1.000  O
  C37      1.0000 0.39720  0.16080  0.89560  Biso   1.000  C
  C38      1.0000 0.39720  0.33920  0.39560  Biso   1.000  C
  C39      1.0000 0.60280  0.83920  0.10440  Biso   1.000  C
  C40      1.0000 0.60280  0.66080  0.60440  Biso   1.000  C
  C41      1.0000 0.38940  0.95180  0.88168  Biso   1.000  C
  C42      1.0000 0.38940  0.54820  0.38168  Biso   1.000  C
  C43      1.0000 0.61060  0.04820  0.11832  Biso   1.000  C
  C44      1.0000 0.61060  0.45180  0.61832  Biso   1.000  C
  O21      1.0000 0.46350  0.84310  0.92000  Biso   1.000  O
  O22      1.0000 0.46350  0.65690  0.42000  Biso   1.000  O
  O23      1.0000 0.53650  0.15690  0.08000  Biso   1.000  O
  O24      1.0000 0.53650  0.34310  0.58000  Biso   1.000  O
  O25      1.0000 0.60610  0.50320  0.88870  Biso   1.000  O
  O26      1.0000 0.60610  0.99680  0.38870  Biso   1.000  O
  O27      1.0000 0.39390  0.49680  0.11130  Biso   1.000  O
  O28      1.0000 0.39390  0.00320  0.61130  Biso   1.000  O
  H5       1.0000 0.27200  0.16700  0.02000  Biso   1.000  H
  H6       1.0000 0.27200  0.33300  0.52000  Biso   1.000  H
  H7       1.0000 0.72800  0.83300  0.98000  Biso   1.000  H
  H8       1.0000 0.72800  0.66700  0.48000  Biso   1.000  H
  H9       1.0000 0.11800  0.16300  0.11000  Biso   1.000  H
  H10      1.0000 0.11800  0.33700  0.61000  Biso   1.000  H
  H11      1.0000 0.88200  0.83700  0.89000  Biso   1.000  H
  H12      1.0000 0.88200  0.66300  0.39000  Biso   1.000  H
  H13      1.0000 0.88800  0.22800  0.07700  Biso   1.000  H
  H14      1.0000 0.88800  0.27200  0.57700  Biso   1.000  H
  H15      1.0000 0.11200  0.77200  0.92300  Biso   1.000  H
  H16      1.0000 0.11200  0.72800  0.42300  Biso   1.000  H
  H17      1.0000 0.81400  0.32100  0.94100  Biso   1.000  H
  H18      1.0000 0.81400  0.17900  0.44100  Biso   1.000  H
  H19      1.0000 0.18600  0.67900  0.05900  Biso   1.000  H
  H20      1.0000 0.18600  0.82100  0.55900  Biso   1.000  H
  H21      1.0000 0.34500  0.51000  0.88600  Biso   1.000  H
  H22      1.0000 0.34500  0.99000  0.38600  Biso   1.000  H
  H23      1.0000 0.65500  0.49000  0.11400  Biso   1.000  H
  H24      1.0000 0.65500  0.01000  0.61400  Biso   1.000  H
  H25      1.0000 0.18500  0.52600  0.85100  Biso   1.000  H
  H26      1.0000 0.18500  0.97400  0.35100  Biso   1.000  H
  H27      1.0000 0.81500  0.47400  0.14900  Biso   1.000  H
  H28      1.0000 0.81500  0.02600  0.64900  Biso   1.000  H
  H29      1.0000 0.42700  0.18800  0.94400  Biso   1.000  H
  H30      1.0000 0.42700  0.31200  0.44400  Biso   1.000  H
  H31      1.0000 0.57300  0.81200  0.05600  Biso   1.000  H
  H32      1.0000 0.57300  0.68800  0.55600  Biso   1.000  H
  H33      1.0000 0.46200  0.20700  0.85900  Biso   1.000  H
  H34      1.0000 0.46200  0.29300  0.35900  Biso   1.000  H
  H35      1.0000 0.53800  0.79300  0.14100  Biso   1.000  H
  H36      1.0000 0.53800  0.70700  0.64100  Biso   1.000  H
