data_image0
_cell_length_a       12.055
_cell_length_b       8.5441
_cell_length_c       12.143
_cell_angle_alpha    90
_cell_angle_beta     112.51
_cell_angle_gamma    90

_symmetry_space_group_name_H-M    "P 1"
_symmetry_int_tables_number       1

loop_
  _symmetry_equiv_pos_as_xyz
  'x, y, z'

loop_
  _atom_site_label
  _atom_site_occupancy
  _atom_site_fract_x
  _atom_site_fract_y
  _atom_site_fract_z
  _atom_site_thermal_displace_type
  _atom_site_B_iso_or_equiv
  _atom_site_type_symbol
  Cu1      1.0000 0.50000  0.00000  0.00000  Biso   1.000  Cu
  Cu2      1.0000 0.50000  0.50000  0.50000  Biso   1.000  Cu
  O1       1.0000 0.55653  0.21960  0.01306  Biso   1.000  O
  O2       1.0000 0.44347  0.71960  0.48694  Biso   1.000  O
  O3       1.0000 0.44347  0.78040  0.98694  Biso   1.000  O
  O4       1.0000 0.55653  0.28040  0.51306  Biso   1.000  O
  O5       1.0000 0.41370  0.03140  0.15030  Biso   1.000  O
  O6       1.0000 0.58630  0.53140  0.34970  Biso   1.000  O
  O7       1.0000 0.58630  0.96860  0.84970  Biso   1.000  O
  O8       1.0000 0.41370  0.46860  0.65030  Biso   1.000  O
  N1       1.0000 0.66284  0.93460  0.12000  Biso   1.000  N
  N2       1.0000 0.33716  0.43460  0.38000  Biso   1.000  N
  N3       1.0000 0.33716  0.06540  0.88000  Biso   1.000  N
  N4       1.0000 0.66284  0.56540  0.62000  Biso   1.000  N
  H1       1.0000 0.42280  0.95030  0.18900  Biso   1.000  H
  H2       1.0000 0.57720  0.45030  0.31100  Biso   1.000  H
  H3       1.0000 0.57720  0.04970  0.81100  Biso   1.000  H
  H4       1.0000 0.42280  0.54970  0.68900  Biso   1.000  H
  H5       1.0000 0.46500  0.10200  0.18100  Biso   1.000  H
  H6       1.0000 0.53500  0.60200  0.31900  Biso   1.000  H
  H7       1.0000 0.53500  0.89800  0.81900  Biso   1.000  H
  H8       1.0000 0.46500  0.39800  0.68100  Biso   1.000  H
  C1       1.0000 0.67750  0.84100  0.21250  Biso   1.000  C
  C2       1.0000 0.32250  0.34100  0.28750  Biso   1.000  C
  C3       1.0000 0.32250  0.15900  0.78750  Biso   1.000  C
  C4       1.0000 0.67750  0.65900  0.71250  Biso   1.000  C
  C5       1.0000 0.76320  0.99470  0.11280  Biso   1.000  C
  C6       1.0000 0.23680  0.49470  0.38720  Biso   1.000  C
  C7       1.0000 0.23680  0.00530  0.88720  Biso   1.000  C
  C8       1.0000 0.76320  0.50530  0.61280  Biso   1.000  C
  H9       1.0000 0.60970  0.79590  0.21830  Biso   1.000  H
  H10      1.0000 0.39030  0.29590  0.28170  Biso   1.000  H
  H11      1.0000 0.39030  0.20410  0.78170  Biso   1.000  H
  H12      1.0000 0.60970  0.70410  0.71830  Biso   1.000  H
  C9       1.0000 0.78890  0.80740  0.30060  Biso   1.000  C
  C10      1.0000 0.21110  0.30740  0.19940  Biso   1.000  C
  C11      1.0000 0.21110  0.19260  0.69940  Biso   1.000  C
  C12      1.0000 0.78890  0.69260  0.80060  Biso   1.000  C
  C13      1.0000 0.87540  0.96940  0.19670  Biso   1.000  C
  C14      1.0000 0.12460  0.46940  0.30330  Biso   1.000  C
  C15      1.0000 0.12460  0.03060  0.80330  Biso   1.000  C
  C16      1.0000 0.87540  0.53060  0.69670  Biso   1.000  C
  H13      1.0000 0.75560  0.05660  0.04730  Biso   1.000  H
  H14      1.0000 0.24440  0.55660  0.45270  Biso   1.000  H
  H15      1.0000 0.24440  0.94340  0.95270  Biso   1.000  H
  H16      1.0000 0.75560  0.44340  0.54730  Biso   1.000  H
  C17      1.0000 0.89080  0.87440  0.29520  Biso   1.000  C
  C18      1.0000 0.10920  0.37440  0.20480  Biso   1.000  C
  C19      1.0000 0.10920  0.12560  0.70480  Biso   1.000  C
  C20      1.0000 0.89080  0.62560  0.79520  Biso   1.000  C
  H17      1.0000 0.79480  0.74020  0.36280  Biso   1.000  H
  H18      1.0000 0.20520  0.24020  0.13720  Biso   1.000  H
  H19      1.0000 0.20520  0.25980  0.63720  Biso   1.000  H
  H20      1.0000 0.79480  0.75980  0.86280  Biso   1.000  H
  H21      1.0000 0.94170  0.01530  0.18840  Biso   1.000  H
  H22      1.0000 0.05830  0.51530  0.31160  Biso   1.000  H
  H23      1.0000 0.05830  0.98470  0.81160  Biso   1.000  H
  H24      1.0000 0.94170  0.48470  0.68840  Biso   1.000  H
  C21      1.0000 0.01070  0.85620  0.39010  Biso   1.000  C
  C22      1.0000 0.98930  0.35620  0.10990  Biso   1.000  C
  C23      1.0000 0.98930  0.14380  0.60990  Biso   1.000  C
  C24      1.0000 0.01070  0.64380  0.89010  Biso   1.000  C
  N5       1.0000 0.10220  0.93460  0.38090  Biso   1.000  N
  N6       1.0000 0.89780  0.43460  0.11910  Biso   1.000  N
  N7       1.0000 0.89780  0.06540  0.61910  Biso   1.000  N
  N8       1.0000 0.10220  0.56540  0.88090  Biso   1.000  N
  C25      1.0000 0.04660  0.77200  0.49710  Biso   1.000  C
  C26      1.0000 0.95340  0.27200  0.00290  Biso   1.000  C
  C27      1.0000 0.95340  0.22800  0.50290  Biso   1.000  C
  C28      1.0000 0.04660  0.72800  0.99710  Biso   1.000  C
  N9       1.0000 0.19680  0.90040  0.48130  Biso   1.000  N
  N10      1.0000 0.80320  0.40040  0.01870  Biso   1.000  N
  N11      1.0000 0.80320  0.09960  0.51870  Biso   1.000  N
  N12      1.0000 0.19680  0.59960  0.98130  Biso   1.000  N
  C29      1.0000 0.16730  0.80420  0.55320  Biso   1.000  C
  C30      1.0000 0.83270  0.30420  0.94680  Biso   1.000  C
  C31      1.0000 0.83270  0.19580  0.44680  Biso   1.000  C
  C32      1.0000 0.16730  0.69580  0.05320  Biso   1.000  C
  H25      1.0000 0.99960  0.70870  0.52410  Biso   1.000  H
  H26      1.0000 0.00040  0.20870  0.97590  Biso   1.000  H
  H27      1.0000 0.00040  0.29130  0.47590  Biso   1.000  H
  H28      1.0000 0.99960  0.79130  0.02410  Biso   1.000  H
  C33      1.0000 0.31110  0.97890  0.50340  Biso   1.000  C
  C34      1.0000 0.68890  0.47890  0.99660  Biso   1.000  C
  C35      1.0000 0.68890  0.02110  0.49660  Biso   1.000  C
  C36      1.0000 0.31110  0.52110  0.00340  Biso   1.000  C
  H29      1.0000 0.21870  0.76640  0.62700  Biso   1.000  H
  H30      1.0000 0.78130  0.26640  0.87300  Biso   1.000  H
  H31      1.0000 0.78130  0.23360  0.37300  Biso   1.000  H
  H32      1.0000 0.21870  0.73360  0.12700  Biso   1.000  H
  C37      1.0000 0.35210  0.95930  0.40080  Biso   1.000  C
  C38      1.0000 0.64790  0.45930  0.09920  Biso   1.000  C
  C39      1.0000 0.64790  0.04070  0.59920  Biso   1.000  C
  C40      1.0000 0.35210  0.54070  0.90080  Biso   1.000  C
  H33      1.0000 0.37180  0.93660  0.57540  Biso   1.000  H
  H34      1.0000 0.62820  0.43660  0.92460  Biso   1.000  H
  H35      1.0000 0.62820  0.06340  0.42460  Biso   1.000  H
  H36      1.0000 0.37180  0.56340  0.07540  Biso   1.000  H
  H37      1.0000 0.30270  0.08960  0.51640  Biso   1.000  H
  H38      1.0000 0.69730  0.58960  0.98360  Biso   1.000  H
  H39      1.0000 0.69730  0.91040  0.48360  Biso   1.000  H
  H40      1.0000 0.30270  0.41040  0.01640  Biso   1.000  H
  H41      1.0000 0.40830  0.04270  0.40530  Biso   1.000  H
  H42      1.0000 0.59170  0.54270  0.09470  Biso   1.000  H
  H43      1.0000 0.59170  0.95730  0.59470  Biso   1.000  H
  H44      1.0000 0.40830  0.45730  0.90530  Biso   1.000  H
  C41      1.0000 0.41100  0.80490  0.39480  Biso   1.000  C
  C42      1.0000 0.58900  0.30490  0.10520  Biso   1.000  C
  C43      1.0000 0.58900  0.19510  0.60520  Biso   1.000  C
  C44      1.0000 0.41100  0.69510  0.89480  Biso   1.000  C
  H45      1.0000 0.28300  0.97290  0.32680  Biso   1.000  H
  H46      1.0000 0.71700  0.47290  0.17320  Biso   1.000  H
  H47      1.0000 0.71700  0.02710  0.67320  Biso   1.000  H
  H48      1.0000 0.28300  0.52710  0.82680  Biso   1.000  H
  O9       1.0000 0.42660  0.77380  0.30129  Biso   1.000  O
  O10      1.0000 0.57340  0.27380  0.19871  Biso   1.000  O
  O11      1.0000 0.57340  0.22620  0.69871  Biso   1.000  O
  O12      1.0000 0.42660  0.72620  0.80129  Biso   1.000  O
