data_image0
_cell_length_a       7.0667
_cell_length_b       9.232
_cell_length_c       11.548
_cell_angle_alpha    95.15
_cell_angle_beta     95.809
_cell_angle_gamma    105.873

_symmetry_space_group_name_H-M    "P 1"
_symmetry_int_tables_number       1

loop_
  _symmetry_equiv_pos_as_xyz
  'x, y, z'

loop_
  _atom_site_label
  _atom_site_occupancy
  _atom_site_fract_x
  _atom_site_fract_y
  _atom_site_fract_z
  _atom_site_thermal_displace_type
  _atom_site_B_iso_or_equiv
  _atom_site_type_symbol
  C1       1.0000 0.52570  0.67570  0.78070  Biso   1.000  C
  C2       1.0000 0.47430  0.32430  0.21930  Biso   1.000  C
  H1       1.0000 0.56180  0.66330  0.70320  Biso   1.000  H
  H2       1.0000 0.43820  0.33670  0.29680  Biso   1.000  H
  H3       1.0000 0.38390  0.64980  0.77630  Biso   1.000  H
  H4       1.0000 0.61610  0.35020  0.22370  Biso   1.000  H
  H5       1.0000 0.57480  0.61040  0.82830  Biso   1.000  H
  H6       1.0000 0.42520  0.38960  0.17170  Biso   1.000  H
  C3       1.0000 0.61470  0.83810  0.83420  Biso   1.000  C
  C4       1.0000 0.38530  0.16190  0.16580  Biso   1.000  C
  C5       1.0000 0.52630  0.95720  0.82650  Biso   1.000  C
  C6       1.0000 0.47370  0.04280  0.17350  Biso   1.000  C
  H7       1.0000 0.40390  0.95330  0.78620  Biso   1.000  H
  H8       1.0000 0.59610  0.04670  0.21380  Biso   1.000  H
  C7       1.0000 0.66390  0.08140  0.89270  Biso   1.000  C
  C8       1.0000 0.33610  0.91860  0.10730  Biso   1.000  C
  C9       1.0000 0.65980  0.23970  0.92620  Biso   1.000  C
  C10      1.0000 0.34020  0.76030  0.07380  Biso   1.000  C
  C11      1.0000 0.99590  0.24160  0.30950  Biso   1.000  C
  C12      1.0000 0.00410  0.75840  0.69050  Biso   1.000  C
  H9       1.0000 0.98270  0.13810  0.29820  Biso   1.000  H
  H10      1.0000 0.01730  0.86190  0.70180  Biso   1.000  H
  C13      1.0000 0.98560  0.30800  0.42070  Biso   1.000  C
  C14      1.0000 0.01440  0.69200  0.57930  Biso   1.000  C
  H11      1.0000 0.96530  0.24870  0.48190  Biso   1.000  H
  H12      1.0000 0.03470  0.75130  0.51810  Biso   1.000  H
  C15      1.0000 0.00570  0.46290  0.44110  Biso   1.000  C
  C16      1.0000 0.99430  0.53710  0.55890  Biso   1.000  C
  C17      1.0000 0.03590  0.54370  0.34530  Biso   1.000  C
  C18      1.0000 0.96410  0.45630  0.65470  Biso   1.000  C
  H13      1.0000 0.05150  0.64760  0.35440  Biso   1.000  H
  H14      1.0000 0.94850  0.35240  0.64560  Biso   1.000  H
  C19      1.0000 0.04280  0.47090  0.23690  Biso   1.000  C
  C20      1.0000 0.95720  0.52910  0.76310  Biso   1.000  C
  H15      1.0000 0.06120  0.52760  0.17420  Biso   1.000  H
  H16      1.0000 0.93880  0.47240  0.82580  Biso   1.000  H
  Cu1      1.0000 0.00449  0.20953  0.05322  Biso   1.000  Cu
  Cu2      1.0000 0.99551  0.79047  0.94678  Biso   1.000  Cu
  N1       1.0000 0.82270  0.04400  0.93780  Biso   1.000  N
  N2       1.0000 0.17730  0.95600  0.06220  Biso   1.000  N
  N3       1.0000 0.79370  0.89410  0.90090  Biso   1.000  N
  N4       1.0000 0.20630  0.10590  0.09910  Biso   1.000  N
  N5       1.0000 0.02400  0.32110  0.21780  Biso   1.000  N
  N6       1.0000 0.97600  0.67890  0.78220  Biso   1.000  N
  O1       1.0000 0.80540  0.31900  0.00150  Biso   1.000  O
  O2       1.0000 0.19460  0.68100  0.99850  Biso   1.000  O
  O3       1.0000 0.52490  0.28940  0.88140  Biso   1.000  O
  O4       1.0000 0.47510  0.71060  0.11860  Biso   1.000  O
  O5       1.0000 0.20780  0.37170  0.95920  Biso   1.000  O
  O6       1.0000 0.79220  0.62830  0.04080  Biso   1.000  O
  H17      1.0000 0.31640  0.36200  0.96350  Biso   1.000  H
  H18      1.0000 0.68360  0.63800  0.03650  Biso   1.000  H
  H19      1.0000 0.25250  0.48020  0.98400  Biso   1.000  H
  H20      1.0000 0.74750  0.51980  0.01600  Biso   1.000  H
  O7       1.0000 0.72400  0.80500  0.32850  Biso   1.000  O
  O8       1.0000 0.27600  0.19500  0.67150  Biso   1.000  O
  O9       1.0000 0.98400  0.87900  0.30510  Biso   1.000  O
  O10      1.0000 0.01600  0.12100  0.69490  Biso   1.000  O
  O11      1.0000 0.75400  0.02200  0.57500  Biso   1.000  O
  O12      1.0000 0.24600  0.97800  0.42500  Biso   1.000  O
  O13      1.0000 0.50000  0.50000  0.50000  Biso   1.000  O
