data_image0
_cell_length_a       16.635
_cell_length_b       11.1667
_cell_length_c       13.1371
_cell_angle_alpha    90
_cell_angle_beta     125.144
_cell_angle_gamma    90

_symmetry_space_group_name_H-M    "P 1"
_symmetry_int_tables_number       1

loop_
  _symmetry_equiv_pos_as_xyz
  'x, y, z'

loop_
  _atom_site_label
  _atom_site_occupancy
  _atom_site_fract_x
  _atom_site_fract_y
  _atom_site_fract_z
  _atom_site_thermal_displace_type
  _atom_site_B_iso_or_equiv
  _atom_site_type_symbol
  Cu1      1.0000 0.50000  0.73026  0.75000  Biso   1.000  Cu
  Cu2      1.0000 0.00000  0.23026  0.75000  Biso   1.000  Cu
  Cu3      1.0000 0.50000  0.26974  0.25000  Biso   1.000  Cu
  Cu4      1.0000 0.00000  0.76974  0.25000  Biso   1.000  Cu
  O1       1.0000 0.58155  0.73111  0.97270  Biso   1.000  O
  O2       1.0000 0.08155  0.23111  0.97270  Biso   1.000  O
  O3       1.0000 0.41845  0.73111  0.52730  Biso   1.000  O
  O4       1.0000 0.91845  0.23111  0.52730  Biso   1.000  O
  O5       1.0000 0.41845  0.26889  0.02730  Biso   1.000  O
  O6       1.0000 0.91845  0.76889  0.02730  Biso   1.000  O
  O7       1.0000 0.58155  0.26889  0.47270  Biso   1.000  O
  O8       1.0000 0.08155  0.76889  0.47270  Biso   1.000  O
  H1       1.0000 0.61100  0.67000  0.00300  Biso   1.000  H
  H2       1.0000 0.11100  0.17000  0.00300  Biso   1.000  H
  H3       1.0000 0.38900  0.67000  0.49700  Biso   1.000  H
  H4       1.0000 0.88900  0.17000  0.49700  Biso   1.000  H
  H5       1.0000 0.38900  0.33000  0.99700  Biso   1.000  H
  H6       1.0000 0.88900  0.83000  0.99700  Biso   1.000  H
  H7       1.0000 0.61100  0.33000  0.50300  Biso   1.000  H
  H8       1.0000 0.11100  0.83000  0.50300  Biso   1.000  H
  H9       1.0000 0.61700  0.78500  0.98700  Biso   1.000  H
  H10      1.0000 0.11700  0.28500  0.98700  Biso   1.000  H
  H11      1.0000 0.38300  0.78500  0.51300  Biso   1.000  H
  H12      1.0000 0.88300  0.28500  0.51300  Biso   1.000  H
  H13      1.0000 0.38300  0.21500  0.01300  Biso   1.000  H
  H14      1.0000 0.88300  0.71500  0.01300  Biso   1.000  H
  H15      1.0000 0.61700  0.21500  0.48700  Biso   1.000  H
  H16      1.0000 0.11700  0.71500  0.48700  Biso   1.000  H
  O9       1.0000 0.63106  0.73353  0.78078  Biso   1.000  O
  O10      1.0000 0.13106  0.23353  0.78078  Biso   1.000  O
  O11      1.0000 0.36894  0.73353  0.71922  Biso   1.000  O
  O12      1.0000 0.86894  0.23353  0.71922  Biso   1.000  O
  O13      1.0000 0.36894  0.26647  0.21922  Biso   1.000  O
  O14      1.0000 0.86894  0.76647  0.21922  Biso   1.000  O
  O15      1.0000 0.63106  0.26647  0.28078  Biso   1.000  O
  O16      1.0000 0.13106  0.76647  0.28078  Biso   1.000  O
  H17      1.0000 0.62520  0.72330  0.71500  Biso   1.000  H
  H18      1.0000 0.12520  0.22330  0.71500  Biso   1.000  H
  H19      1.0000 0.37480  0.72330  0.78500  Biso   1.000  H
  H20      1.0000 0.87480  0.22330  0.78500  Biso   1.000  H
  H21      1.0000 0.37480  0.27670  0.28500  Biso   1.000  H
  H22      1.0000 0.87480  0.77670  0.28500  Biso   1.000  H
  H23      1.0000 0.62520  0.27670  0.21500  Biso   1.000  H
  H24      1.0000 0.12520  0.77670  0.21500  Biso   1.000  H
  H25      1.0000 0.67100  0.69100  0.83500  Biso   1.000  H
  H26      1.0000 0.17100  0.19100  0.83500  Biso   1.000  H
  H27      1.0000 0.32900  0.69100  0.66500  Biso   1.000  H
  H28      1.0000 0.82900  0.19100  0.66500  Biso   1.000  H
  H29      1.0000 0.32900  0.30900  0.16500  Biso   1.000  H
  H30      1.0000 0.82900  0.80900  0.16500  Biso   1.000  H
  H31      1.0000 0.67100  0.30900  0.33500  Biso   1.000  H
  H32      1.0000 0.17100  0.80900  0.33500  Biso   1.000  H
  N1       1.0000 0.50000  0.91190  0.75000  Biso   1.000  N
  N2       1.0000 0.00000  0.41190  0.75000  Biso   1.000  N
  N3       1.0000 0.50000  0.08810  0.25000  Biso   1.000  N
  N4       1.0000 0.00000  0.58810  0.25000  Biso   1.000  N
  N5       1.0000 0.50000  0.54860  0.75000  Biso   1.000  N
  N6       1.0000 0.00000  0.04860  0.75000  Biso   1.000  N
  N7       1.0000 0.50000  0.45140  0.25000  Biso   1.000  N
  N8       1.0000 0.00000  0.95140  0.25000  Biso   1.000  N
  C1       1.0000 0.47000  0.97480  0.80950  Biso   1.000  C
  C2       1.0000 0.97000  0.47480  0.80950  Biso   1.000  C
  C3       1.0000 0.53000  0.97480  0.69050  Biso   1.000  C
  C4       1.0000 0.03000  0.47480  0.69050  Biso   1.000  C
  C5       1.0000 0.53000  0.02520  0.19050  Biso   1.000  C
  C6       1.0000 0.03000  0.52520  0.19050  Biso   1.000  C
  C7       1.0000 0.47000  0.02520  0.30950  Biso   1.000  C
  C8       1.0000 0.97000  0.52520  0.30950  Biso   1.000  C
  H33      1.0000 0.44860  0.93320  0.85100  Biso   1.000  H
  H34      1.0000 0.94860  0.43320  0.85100  Biso   1.000  H
  H35      1.0000 0.55140  0.93320  0.64900  Biso   1.000  H
  H36      1.0000 0.05140  0.43320  0.64900  Biso   1.000  H
  H37      1.0000 0.55140  0.06680  0.14900  Biso   1.000  H
  H38      1.0000 0.05140  0.56680  0.14900  Biso   1.000  H
  H39      1.0000 0.44860  0.06680  0.35100  Biso   1.000  H
  H40      1.0000 0.94860  0.56680  0.35100  Biso   1.000  H
  C9       1.0000 0.46950  0.09770  0.81200  Biso   1.000  C
  C10      1.0000 0.96950  0.59770  0.81200  Biso   1.000  C
  C11      1.0000 0.53050  0.09770  0.68800  Biso   1.000  C
  C12      1.0000 0.03050  0.59770  0.68800  Biso   1.000  C
  C13      1.0000 0.53050  0.90230  0.18800  Biso   1.000  C
  C14      1.0000 0.03050  0.40230  0.18800  Biso   1.000  C
  C15      1.0000 0.46950  0.90230  0.31200  Biso   1.000  C
  C16      1.0000 0.96950  0.40230  0.31200  Biso   1.000  C
  H41      1.0000 0.44860  0.13710  0.85530  Biso   1.000  H
  H42      1.0000 0.94860  0.63710  0.85530  Biso   1.000  H
  H43      1.0000 0.55140  0.13710  0.64470  Biso   1.000  H
  H44      1.0000 0.05140  0.63710  0.64470  Biso   1.000  H
  H45      1.0000 0.55140  0.86290  0.14470  Biso   1.000  H
  H46      1.0000 0.05140  0.36290  0.14470  Biso   1.000  H
  H47      1.0000 0.44860  0.86290  0.35530  Biso   1.000  H
  H48      1.0000 0.94860  0.36290  0.35530  Biso   1.000  H
  C17      1.0000 0.50000  0.16340  0.75000  Biso   1.000  C
  C18      1.0000 0.00000  0.66340  0.75000  Biso   1.000  C
  C19      1.0000 0.50000  0.83660  0.25000  Biso   1.000  C
  C20      1.0000 0.00000  0.33660  0.25000  Biso   1.000  C
  C21      1.0000 0.52110  0.48510  0.68100  Biso   1.000  C
  C22      1.0000 0.02110  0.98510  0.68100  Biso   1.000  C
  C23      1.0000 0.47890  0.48510  0.81900  Biso   1.000  C
  C24      1.0000 0.97890  0.98510  0.81900  Biso   1.000  C
  C25      1.0000 0.47890  0.51490  0.31900  Biso   1.000  C
  C26      1.0000 0.97890  0.01490  0.31900  Biso   1.000  C
  C27      1.0000 0.52110  0.51490  0.18100  Biso   1.000  C
  C28      1.0000 0.02110  0.01490  0.18100  Biso   1.000  C
  H49      1.0000 0.53660  0.52660  0.63300  Biso   1.000  H
  H50      1.0000 0.03660  0.02660  0.63300  Biso   1.000  H
  H51      1.0000 0.46340  0.52660  0.86700  Biso   1.000  H
  H52      1.0000 0.96340  0.02660  0.86700  Biso   1.000  H
  H53      1.0000 0.46340  0.47340  0.36700  Biso   1.000  H
  H54      1.0000 0.96340  0.97340  0.36700  Biso   1.000  H
  H55      1.0000 0.53660  0.47340  0.13300  Biso   1.000  H
  H56      1.0000 0.03660  0.97340  0.13300  Biso   1.000  H
  C29      1.0000 0.52100  0.36250  0.67780  Biso   1.000  C
  C30      1.0000 0.02100  0.86250  0.67780  Biso   1.000  C
  C31      1.0000 0.47900  0.36250  0.82220  Biso   1.000  C
  C32      1.0000 0.97900  0.86250  0.82220  Biso   1.000  C
  C33      1.0000 0.47900  0.63750  0.32220  Biso   1.000  C
  C34      1.0000 0.97900  0.13750  0.32220  Biso   1.000  C
  C35      1.0000 0.52100  0.63750  0.17780  Biso   1.000  C
  C36      1.0000 0.02100  0.13750  0.17780  Biso   1.000  C
  H57      1.0000 0.53500  0.32300  0.62730  Biso   1.000  H
  H58      1.0000 0.03500  0.82300  0.62730  Biso   1.000  H
  H59      1.0000 0.46500  0.32300  0.87270  Biso   1.000  H
  H60      1.0000 0.96500  0.82300  0.87270  Biso   1.000  H
  H61      1.0000 0.46500  0.67700  0.37270  Biso   1.000  H
  H62      1.0000 0.96500  0.17700  0.37270  Biso   1.000  H
  H63      1.0000 0.53500  0.67700  0.12730  Biso   1.000  H
  H64      1.0000 0.03500  0.17700  0.12730  Biso   1.000  H
  C37      1.0000 0.50000  0.29670  0.75000  Biso   1.000  C
  C38      1.0000 0.00000  0.79670  0.75000  Biso   1.000  C
  C39      1.0000 0.50000  0.70330  0.25000  Biso   1.000  C
  C40      1.0000 0.00000  0.20330  0.25000  Biso   1.000  C
  O17      1.0000 0.70798  0.46397  0.61298  Biso   1.000  O
  O18      1.0000 0.20798  0.96397  0.61298  Biso   1.000  O
  O19      1.0000 0.29202  0.46397  0.88702  Biso   1.000  O
  O20      1.0000 0.79202  0.96397  0.88702  Biso   1.000  O
  O21      1.0000 0.29202  0.53603  0.38702  Biso   1.000  O
  O22      1.0000 0.79202  0.03603  0.38702  Biso   1.000  O
  O23      1.0000 0.70798  0.53603  0.11298  Biso   1.000  O
  O24      1.0000 0.20798  0.03603  0.11298  Biso   1.000  O
  H65      1.0000 0.74000  0.44700  0.68400  Biso   1.000  H
  H66      1.0000 0.24000  0.94700  0.68400  Biso   1.000  H
  H67      1.0000 0.26000  0.44700  0.81600  Biso   1.000  H
  H68      1.0000 0.76000  0.94700  0.81600  Biso   1.000  H
  H69      1.0000 0.26000  0.55300  0.31600  Biso   1.000  H
  H70      1.0000 0.76000  0.05300  0.31600  Biso   1.000  H
  H71      1.0000 0.74000  0.55300  0.18400  Biso   1.000  H
  H72      1.0000 0.24000  0.05300  0.18400  Biso   1.000  H
  O25      1.0000 0.72377  0.90239  0.03560  Biso   1.000  O
  O26      1.0000 0.22377  0.40239  0.03560  Biso   1.000  O
  O27      1.0000 0.27623  0.90239  0.46440  Biso   1.000  O
  O28      1.0000 0.77623  0.40239  0.46440  Biso   1.000  O
  O29      1.0000 0.27623  0.09761  0.96440  Biso   1.000  O
  O30      1.0000 0.77623  0.59761  0.96440  Biso   1.000  O
  O31      1.0000 0.72377  0.09761  0.53560  Biso   1.000  O
  O32      1.0000 0.22377  0.59761  0.53560  Biso   1.000  O
  H73      1.0000 0.73400  0.92500  0.98800  Biso   1.000  H
  H74      1.0000 0.23400  0.42500  0.98800  Biso   1.000  H
  H75      1.0000 0.26600  0.92500  0.51200  Biso   1.000  H
  H76      1.0000 0.76600  0.42500  0.51200  Biso   1.000  H
  H77      1.0000 0.26600  0.07500  0.01200  Biso   1.000  H
  H78      1.0000 0.76600  0.57500  0.01200  Biso   1.000  H
  H79      1.0000 0.73400  0.07500  0.48800  Biso   1.000  H
  H80      1.0000 0.23400  0.57500  0.48800  Biso   1.000  H
  H81      1.0000 0.71800  0.97300  0.05900  Biso   1.000  H
  H82      1.0000 0.21800  0.47300  0.05900  Biso   1.000  H
  H83      1.0000 0.28200  0.97300  0.44100  Biso   1.000  H
  H84      1.0000 0.78200  0.47300  0.44100  Biso   1.000  H
  H85      1.0000 0.28200  0.02700  0.94100  Biso   1.000  H
  H86      1.0000 0.78200  0.52700  0.94100  Biso   1.000  H
  H87      1.0000 0.71800  0.02700  0.55900  Biso   1.000  H
  H88      1.0000 0.21800  0.52700  0.55900  Biso   1.000  H
  O33      1.0000 0.69915  0.90430  0.63570  Biso   1.000  O
  O34      1.0000 0.19915  0.40430  0.63570  Biso   1.000  O
  O35      1.0000 0.30085  0.90430  0.86430  Biso   1.000  O
  O36      1.0000 0.80085  0.40430  0.86430  Biso   1.000  O
  O37      1.0000 0.30085  0.09570  0.36430  Biso   1.000  O
  O38      1.0000 0.80085  0.59570  0.36430  Biso   1.000  O
  O39      1.0000 0.69915  0.09570  0.13570  Biso   1.000  O
  O40      1.0000 0.19915  0.59570  0.13570  Biso   1.000  O
  O41      1.0000 0.67669  0.70701  0.62130  Biso   1.000  O
  O42      1.0000 0.17669  0.20701  0.62130  Biso   1.000  O
  O43      1.0000 0.32331  0.70701  0.87870  Biso   1.000  O
  O44      1.0000 0.82331  0.20701  0.87870  Biso   1.000  O
  O45      1.0000 0.32331  0.29299  0.37870  Biso   1.000  O
  O46      1.0000 0.82331  0.79299  0.37870  Biso   1.000  O
  O47      1.0000 0.67669  0.29299  0.12130  Biso   1.000  O
  O48      1.0000 0.17669  0.79299  0.12130  Biso   1.000  O
  C41      1.0000 0.74800  0.79710  0.52690  Biso   1.000  C
  C42      1.0000 0.24800  0.29710  0.52690  Biso   1.000  C
  C43      1.0000 0.25200  0.79710  0.97310  Biso   1.000  C
  C44      1.0000 0.75200  0.29710  0.97310  Biso   1.000  C
  C45      1.0000 0.25200  0.20290  0.47310  Biso   1.000  C
  C46      1.0000 0.75200  0.70290  0.47310  Biso   1.000  C
  C47      1.0000 0.74800  0.20290  0.02690  Biso   1.000  C
  C48      1.0000 0.24800  0.70290  0.02690  Biso   1.000  C
  H89      1.0000 0.76400  0.88700  0.52800  Biso   1.000  H
  H90      1.0000 0.26400  0.38700  0.52800  Biso   1.000  H
  H91      1.0000 0.23600  0.88700  0.97200  Biso   1.000  H
  H92      1.0000 0.73600  0.38700  0.97200  Biso   1.000  H
  H93      1.0000 0.23600  0.11300  0.47200  Biso   1.000  H
  H94      1.0000 0.73600  0.61300  0.47200  Biso   1.000  H
  H95      1.0000 0.76400  0.11300  0.02800  Biso   1.000  H
  H96      1.0000 0.26400  0.61300  0.02800  Biso   1.000  H
  C49      1.0000 0.70490  0.80200  0.59990  Biso   1.000  C
  C50      1.0000 0.20490  0.30200  0.59990  Biso   1.000  C
  C51      1.0000 0.29510  0.80200  0.90010  Biso   1.000  C
  C52      1.0000 0.79510  0.30200  0.90010  Biso   1.000  C
  C53      1.0000 0.29510  0.19800  0.40010  Biso   1.000  C
  C54      1.0000 0.79510  0.69800  0.40010  Biso   1.000  C
  C55      1.0000 0.70490  0.19800  0.09990  Biso   1.000  C
  C56      1.0000 0.20490  0.69800  0.09990  Biso   1.000  C
