data_image0
_cell_length_a       8.965
_cell_length_b       19.797
_cell_length_c       10.44
_cell_angle_alpha    90
_cell_angle_beta     101.78
_cell_angle_gamma    90

_symmetry_space_group_name_H-M    "P 1"
_symmetry_int_tables_number       1

loop_
  _symmetry_equiv_pos_as_xyz
  'x, y, z'

loop_
  _atom_site_label
  _atom_site_occupancy
  _atom_site_fract_x
  _atom_site_fract_y
  _atom_site_fract_z
  _atom_site_thermal_displace_type
  _atom_site_B_iso_or_equiv
  _atom_site_type_symbol
  Cu1      1.0000 0.34587  0.40503  0.78799  Biso   1.000  Cu
  Cu2      1.0000 0.65413  0.90503  0.71201  Biso   1.000  Cu
  Cu3      1.0000 0.65413  0.59497  0.21201  Biso   1.000  Cu
  Cu4      1.0000 0.34587  0.09497  0.28799  Biso   1.000  Cu
  O1       1.0000 0.13050  0.43991  0.89200  Biso   1.000  O
  O2       1.0000 0.86950  0.93991  0.60800  Biso   1.000  O
  O3       1.0000 0.86950  0.56009  0.10800  Biso   1.000  O
  O4       1.0000 0.13050  0.06009  0.39200  Biso   1.000  O
  O5       1.0000 0.20170  0.34037  0.83620  Biso   1.000  O
  O6       1.0000 0.79830  0.84037  0.66380  Biso   1.000  O
  O7       1.0000 0.79830  0.65963  0.16380  Biso   1.000  O
  O8       1.0000 0.20170  0.15963  0.33620  Biso   1.000  O
  O9       1.0000 0.54360  0.30843  0.78360  Biso   1.000  O
  O10      1.0000 0.45640  0.80843  0.71640  Biso   1.000  O
  O11      1.0000 0.45640  0.69157  0.21640  Biso   1.000  O
  O12      1.0000 0.54360  0.19157  0.28360  Biso   1.000  O
  O13      1.0000 0.50550  0.38028  0.93420  Biso   1.000  O
  O14      1.0000 0.49450  0.88028  0.56580  Biso   1.000  O
  O15      1.0000 0.49450  0.61972  0.06580  Biso   1.000  O
  O16      1.0000 0.50550  0.11972  0.43420  Biso   1.000  O
  N1       1.0000 0.44850  0.49182  0.75530  Biso   1.000  N
  N2       1.0000 0.55150  0.99182  0.74470  Biso   1.000  N
  N3       1.0000 0.55150  0.50818  0.24470  Biso   1.000  N
  N4       1.0000 0.44850  0.00818  0.25530  Biso   1.000  N
  N5       1.0000 0.22580  0.42289  0.60820  Biso   1.000  N
  N6       1.0000 0.77420  0.92289  0.89180  Biso   1.000  N
  N7       1.0000 0.77420  0.57711  0.39180  Biso   1.000  N
  N8       1.0000 0.22580  0.07711  0.10820  Biso   1.000  N
  C1       1.0000 0.55910  0.52590  0.83180  Biso   1.000  C
  C2       1.0000 0.44090  0.02590  0.66820  Biso   1.000  C
  C3       1.0000 0.44090  0.47410  0.16820  Biso   1.000  C
  C4       1.0000 0.55910  0.97410  0.33180  Biso   1.000  C
  H1       1.0000 0.60200  0.50800  0.91340  Biso   1.000  H
  H2       1.0000 0.39800  0.00800  0.58660  Biso   1.000  H
  H3       1.0000 0.39800  0.49200  0.08660  Biso   1.000  H
  H4       1.0000 0.60200  0.99200  0.41340  Biso   1.000  H
  C5       1.0000 0.61340  0.58660  0.79610  Biso   1.000  C
  C6       1.0000 0.38660  0.08660  0.70390  Biso   1.000  C
  C7       1.0000 0.38660  0.41340  0.20390  Biso   1.000  C
  C8       1.0000 0.61340  0.91340  0.29610  Biso   1.000  C
  H5       1.0000 0.69000  0.60930  0.85350  Biso   1.000  H
  H6       1.0000 0.31000  0.10930  0.64650  Biso   1.000  H
  H7       1.0000 0.31000  0.39070  0.14650  Biso   1.000  H
  H8       1.0000 0.69000  0.89070  0.35350  Biso   1.000  H
  C9       1.0000 0.55380  0.61320  0.67520  Biso   1.000  C
  C10      1.0000 0.44620  0.11320  0.82480  Biso   1.000  C
  C11      1.0000 0.44620  0.38680  0.32480  Biso   1.000  C
  C12      1.0000 0.55380  0.88680  0.17520  Biso   1.000  C
  H9       1.0000 0.59080  0.65380  0.64940  Biso   1.000  H
  H10      1.0000 0.40920  0.15380  0.85060  Biso   1.000  H
  H11      1.0000 0.40920  0.34620  0.35060  Biso   1.000  H
  H12      1.0000 0.59080  0.84620  0.14940  Biso   1.000  H
  C13      1.0000 0.43750  0.57910  0.59160  Biso   1.000  C
  C14      1.0000 0.56250  0.07910  0.90840  Biso   1.000  C
  C15      1.0000 0.56250  0.42090  0.40840  Biso   1.000  C
  C16      1.0000 0.43750  0.92090  0.09160  Biso   1.000  C
  C17      1.0000 0.36680  0.60100  0.46180  Biso   1.000  C
  C18      1.0000 0.63320  0.10100  0.03820  Biso   1.000  C
  C19      1.0000 0.63320  0.39900  0.53820  Biso   1.000  C
  C20      1.0000 0.36680  0.89900  0.96180  Biso   1.000  C
  H13      1.0000 0.39980  0.64080  0.42930  Biso   1.000  H
  H14      1.0000 0.60020  0.14080  0.07070  Biso   1.000  H
  H15      1.0000 0.60020  0.35920  0.57070  Biso   1.000  H
  H16      1.0000 0.39980  0.85920  0.92930  Biso   1.000  H
  C21      1.0000 0.25440  0.56550  0.38660  Biso   1.000  C
  C22      1.0000 0.74560  0.06550  0.11340  Biso   1.000  C
  C23      1.0000 0.74560  0.43450  0.61340  Biso   1.000  C
  C24      1.0000 0.25440  0.93450  0.88660  Biso   1.000  C
  H17      1.0000 0.21180  0.58130  0.30330  Biso   1.000  H
  H18      1.0000 0.78820  0.08130  0.19670  Biso   1.000  H
  H19      1.0000 0.78820  0.41870  0.69670  Biso   1.000  H
  H20      1.0000 0.21180  0.91870  0.80330  Biso   1.000  H
  C25      1.0000 0.19850  0.50400  0.43140  Biso   1.000  C
  C26      1.0000 0.80150  0.00400  0.06860  Biso   1.000  C
  C27      1.0000 0.80150  0.49600  0.56860  Biso   1.000  C
  C28      1.0000 0.19850  0.99600  0.93140  Biso   1.000  C
  C29      1.0000 0.07940  0.46560  0.36010  Biso   1.000  C
  C30      1.0000 0.92060  0.96560  0.13990  Biso   1.000  C
  C31      1.0000 0.92060  0.53440  0.63990  Biso   1.000  C
  C32      1.0000 0.07940  0.03440  0.86010  Biso   1.000  C
  H21      1.0000 0.02880  0.47940  0.27750  Biso   1.000  H
  H22      1.0000 0.97120  0.97940  0.22250  Biso   1.000  H
  H23      1.0000 0.97120  0.52060  0.72250  Biso   1.000  H
  H24      1.0000 0.02880  0.02060  0.77750  Biso   1.000  H
  C33      1.0000 0.03860  0.40760  0.41370  Biso   1.000  C
  C34      1.0000 0.96140  0.90760  0.08630  Biso   1.000  C
  C35      1.0000 0.96140  0.59240  0.58630  Biso   1.000  C
  C36      1.0000 0.03860  0.09240  0.91370  Biso   1.000  C
  H25      1.0000 0.95950  0.38150  0.36740  Biso   1.000  H
  H26      1.0000 0.04050  0.88150  0.13260  Biso   1.000  H
  H27      1.0000 0.04050  0.61850  0.63260  Biso   1.000  H
  H28      1.0000 0.95950  0.11850  0.86740  Biso   1.000  H
  C37      1.0000 0.11460  0.38710  0.53770  Biso   1.000  C
  C38      1.0000 0.88540  0.88710  0.96230  Biso   1.000  C
  C39      1.0000 0.88540  0.61290  0.46230  Biso   1.000  C
  C40      1.0000 0.11460  0.11290  0.03770  Biso   1.000  C
  H29      1.0000 0.08590  0.34680  0.57180  Biso   1.000  H
  H30      1.0000 0.91410  0.84680  0.92820  Biso   1.000  H
  H31      1.0000 0.91410  0.65320  0.42820  Biso   1.000  H
  H32      1.0000 0.08590  0.15320  0.07180  Biso   1.000  H
  C41      1.0000 0.26920  0.48150  0.55680  Biso   1.000  C
  C42      1.0000 0.73080  0.98150  0.94320  Biso   1.000  C
  C43      1.0000 0.73080  0.51850  0.44320  Biso   1.000  C
  C44      1.0000 0.26920  0.01850  0.05680  Biso   1.000  C
  C45      1.0000 0.38730  0.51820  0.63620  Biso   1.000  C
  C46      1.0000 0.61270  0.01820  0.86380  Biso   1.000  C
  C47      1.0000 0.61270  0.48180  0.36380  Biso   1.000  C
  C48      1.0000 0.38730  0.98180  0.13620  Biso   1.000  C
  C49      1.0000 0.11820  0.37870  0.89100  Biso   1.000  C
  C50      1.0000 0.88180  0.87870  0.60900  Biso   1.000  C
  C51      1.0000 0.88180  0.62130  0.10900  Biso   1.000  C
  C52      1.0000 0.11820  0.12130  0.39100  Biso   1.000  C
  C53      1.0000 0.00330  0.34240  0.95780  Biso   1.000  C
  C54      1.0000 0.99670  0.84240  0.54220  Biso   1.000  C
  C55      1.0000 0.99670  0.65760  0.04220  Biso   1.000  C
  C56      1.0000 0.00330  0.15760  0.45780  Biso   1.000  C
  C57      1.0000 0.89940  0.39070  0.01030  Biso   1.000  C
  C58      1.0000 0.10060  0.89070  0.48970  Biso   1.000  C
  C59      1.0000 0.10060  0.60930  0.98970  Biso   1.000  C
  C60      1.0000 0.89940  0.10930  0.51030  Biso   1.000  C
  C61      1.0000 0.79590  0.35270  0.08510  Biso   1.000  C
  C62      1.0000 0.20410  0.85270  0.41490  Biso   1.000  C
  C63      1.0000 0.20410  0.64730  0.91490  Biso   1.000  C
  C64      1.0000 0.79590  0.14730  0.58510  Biso   1.000  C
  C65      1.0000 0.70240  0.29960  0.99990  Biso   1.000  C
  C66      1.0000 0.29760  0.79960  0.50010  Biso   1.000  C
  C67      1.0000 0.29760  0.70040  0.00010  Biso   1.000  C
  C68      1.0000 0.70240  0.20040  0.49990  Biso   1.000  C
  C69      1.0000 0.80410  0.25130  0.94230  Biso   1.000  C
  C70      1.0000 0.19590  0.75130  0.55770  Biso   1.000  C
  C71      1.0000 0.19590  0.74870  0.05770  Biso   1.000  C
  C72      1.0000 0.80410  0.24870  0.44230  Biso   1.000  C
  C73      1.0000 0.91360  0.28820  0.87230  Biso   1.000  C
  C74      1.0000 0.08640  0.78820  0.62770  Biso   1.000  C
  C75      1.0000 0.08640  0.71180  0.12770  Biso   1.000  C
  C76      1.0000 0.91360  0.21180  0.37230  Biso   1.000  C
  C77      1.0000 0.57490  0.33050  0.89570  Biso   1.000  C
  C78      1.0000 0.42510  0.83050  0.60430  Biso   1.000  C
  C79      1.0000 0.42510  0.66950  0.10430  Biso   1.000  C
  C80      1.0000 0.57490  0.16950  0.39570  Biso   1.000  C
  H33      1.0000 0.06400  0.32360  0.03600  Biso   1.000  H
  H34      1.0000 0.93600  0.82360  0.46400  Biso   1.000  H
  H35      1.0000 0.93600  0.67640  0.96400  Biso   1.000  H
  H36      1.0000 0.06400  0.17640  0.53600  Biso   1.000  H
  H37      1.0000 0.95900  0.41990  0.07000  Biso   1.000  H
  H38      1.0000 0.04100  0.91990  0.43000  Biso   1.000  H
  H39      1.0000 0.04100  0.58010  0.93000  Biso   1.000  H
  H40      1.0000 0.95900  0.08010  0.57000  Biso   1.000  H
  H41      1.0000 0.84270  0.41260  0.94120  Biso   1.000  H
  H42      1.0000 0.15730  0.91260  0.55880  Biso   1.000  H
  H43      1.0000 0.15730  0.58740  0.05880  Biso   1.000  H
  H44      1.0000 0.84270  0.08740  0.44120  Biso   1.000  H
  H45      1.0000 0.72500  0.38700  0.11000  Biso   1.000  H
  H46      1.0000 0.27500  0.88700  0.39000  Biso   1.000  H
  H47      1.0000 0.27500  0.61300  0.89000  Biso   1.000  H
  H48      1.0000 0.72500  0.11300  0.61000  Biso   1.000  H
  H49      1.0000 0.85900  0.33150  0.16100  Biso   1.000  H
  H50      1.0000 0.14100  0.83150  0.33900  Biso   1.000  H
  H51      1.0000 0.14100  0.66850  0.83900  Biso   1.000  H
  H52      1.0000 0.85900  0.16850  0.66100  Biso   1.000  H
  H53      1.0000 0.65900  0.27690  0.05900  Biso   1.000  H
  H54      1.0000 0.34100  0.77690  0.44100  Biso   1.000  H
  H55      1.0000 0.34100  0.72310  0.94100  Biso   1.000  H
  H56      1.0000 0.65900  0.22310  0.55900  Biso   1.000  H
  H57      1.0000 0.74300  0.21880  0.88100  Biso   1.000  H
  H58      1.0000 0.25700  0.71880  0.61900  Biso   1.000  H
  H59      1.0000 0.25700  0.78120  0.11900  Biso   1.000  H
  H60      1.0000 0.74300  0.28120  0.38100  Biso   1.000  H
  H61      1.0000 0.85500  0.22410  0.01300  Biso   1.000  H
  H62      1.0000 0.14500  0.72410  0.48700  Biso   1.000  H
  H63      1.0000 0.14500  0.77590  0.98700  Biso   1.000  H
  H64      1.0000 0.85500  0.27590  0.51300  Biso   1.000  H
  H65      1.0000 0.84530  0.30710  0.79290  Biso   1.000  H
  H66      1.0000 0.15470  0.80710  0.70710  Biso   1.000  H
  H67      1.0000 0.15470  0.69290  0.20710  Biso   1.000  H
  H68      1.0000 0.84530  0.19290  0.29290  Biso   1.000  H
  H69      1.0000 0.98400  0.25550  0.84200  Biso   1.000  H
  H70      1.0000 0.01600  0.75550  0.65800  Biso   1.000  H
  H71      1.0000 0.01600  0.74450  0.15800  Biso   1.000  H
  H72      1.0000 0.98400  0.24450  0.34200  Biso   1.000  H
  O17      1.0000 0.32990  0.26520  0.53100  Biso   1.000  O
  O18      1.0000 0.67010  0.76520  0.96900  Biso   1.000  O
  O19      1.0000 0.67010  0.73480  0.46900  Biso   1.000  O
  O20      1.0000 0.32990  0.23480  0.03100  Biso   1.000  O
  H73      1.0000 0.26690  0.29620  0.54720  Biso   1.000  H
  H74      1.0000 0.73310  0.79620  0.95280  Biso   1.000  H
  H75      1.0000 0.73310  0.70380  0.45280  Biso   1.000  H
  H76      1.0000 0.26690  0.20380  0.04720  Biso   1.000  H
  H77      1.0000 0.39480  0.26220  0.60910  Biso   1.000  H
  H78      1.0000 0.60520  0.76220  0.89090  Biso   1.000  H
  H79      1.0000 0.60520  0.73780  0.39090  Biso   1.000  H
  H80      1.0000 0.39480  0.23780  0.10910  Biso   1.000  H
