data_image0
_cell_length_a       16.631
_cell_length_b       11.155
_cell_length_c       13.096
_cell_angle_alpha    90
_cell_angle_beta     125.08
_cell_angle_gamma    90

_symmetry_space_group_name_H-M    "P 1"
_symmetry_int_tables_number       1

loop_
  _symmetry_equiv_pos_as_xyz
  'x, y, z'

loop_
  _atom_site_label
  _atom_site_occupancy
  _atom_site_fract_x
  _atom_site_fract_y
  _atom_site_fract_z
  _atom_site_thermal_displace_type
  _atom_site_B_iso_or_equiv
  _atom_site_type_symbol
  Cu1      1.0000 0.50000  0.27075  0.75000  Biso   1.000  Cu
  Cu2      1.0000 0.00000  0.77075  0.75000  Biso   1.000  Cu
  Cu3      1.0000 0.50000  0.72925  0.25000  Biso   1.000  Cu
  Cu4      1.0000 0.00000  0.22925  0.25000  Biso   1.000  Cu
  O1       1.0000 0.58196  0.27010  0.97300  Biso   1.000  O
  O2       1.0000 0.08196  0.77010  0.97300  Biso   1.000  O
  O3       1.0000 0.41804  0.27010  0.52700  Biso   1.000  O
  O4       1.0000 0.91804  0.77010  0.52700  Biso   1.000  O
  O5       1.0000 0.41804  0.72990  0.02700  Biso   1.000  O
  O6       1.0000 0.91804  0.22990  0.02700  Biso   1.000  O
  O7       1.0000 0.58196  0.72990  0.47300  Biso   1.000  O
  O8       1.0000 0.08196  0.22990  0.47300  Biso   1.000  O
  O9       1.0000 0.36957  0.26753  0.72020  Biso   1.000  O
  O10      1.0000 0.86957  0.76753  0.72020  Biso   1.000  O
  O11      1.0000 0.63043  0.26753  0.77980  Biso   1.000  O
  O12      1.0000 0.13043  0.76753  0.77980  Biso   1.000  O
  O13      1.0000 0.63043  0.73247  0.27980  Biso   1.000  O
  O14      1.0000 0.13043  0.23247  0.27980  Biso   1.000  O
  O15      1.0000 0.36957  0.73247  0.22020  Biso   1.000  O
  O16      1.0000 0.86957  0.23247  0.22020  Biso   1.000  O
  N1       1.0000 0.50000  0.45260  0.75000  Biso   1.000  N
  N2       1.0000 0.00000  0.95260  0.75000  Biso   1.000  N
  N3       1.0000 0.50000  0.54740  0.25000  Biso   1.000  N
  N4       1.0000 0.00000  0.04740  0.25000  Biso   1.000  N
  C1       1.0000 0.47880  0.51570  0.81920  Biso   1.000  C
  C2       1.0000 0.97880  0.01570  0.81920  Biso   1.000  C
  C3       1.0000 0.52120  0.51570  0.68080  Biso   1.000  C
  C4       1.0000 0.02120  0.01570  0.68080  Biso   1.000  C
  C5       1.0000 0.52120  0.48430  0.18080  Biso   1.000  C
  C6       1.0000 0.02120  0.98430  0.18080  Biso   1.000  C
  C7       1.0000 0.47880  0.48430  0.31920  Biso   1.000  C
  C8       1.0000 0.97880  0.98430  0.31920  Biso   1.000  C
  H1       1.0000 0.46330  0.47410  0.86720  Biso   1.000  H
  H2       1.0000 0.96330  0.97410  0.86720  Biso   1.000  H
  H3       1.0000 0.53670  0.47410  0.63280  Biso   1.000  H
  H4       1.0000 0.03670  0.97410  0.63280  Biso   1.000  H
  H5       1.0000 0.53670  0.52590  0.13280  Biso   1.000  H
  H6       1.0000 0.03670  0.02590  0.13280  Biso   1.000  H
  H7       1.0000 0.46330  0.52590  0.36720  Biso   1.000  H
  H8       1.0000 0.96330  0.02590  0.36720  Biso   1.000  H
  C9       1.0000 0.47920  0.63890  0.82220  Biso   1.000  C
  C10      1.0000 0.97920  0.13890  0.82220  Biso   1.000  C
  C11      1.0000 0.52080  0.63890  0.67780  Biso   1.000  C
  C12      1.0000 0.02080  0.13890  0.67780  Biso   1.000  C
  C13      1.0000 0.52080  0.36110  0.17780  Biso   1.000  C
  C14      1.0000 0.02080  0.86110  0.17780  Biso   1.000  C
  C15      1.0000 0.47920  0.36110  0.32220  Biso   1.000  C
  C16      1.0000 0.97920  0.86110  0.32220  Biso   1.000  C
  H9       1.0000 0.46530  0.67850  0.87290  Biso   1.000  H
  H10      1.0000 0.96530  0.17850  0.87290  Biso   1.000  H
  H11      1.0000 0.53470  0.67850  0.62710  Biso   1.000  H
  H12      1.0000 0.03470  0.17850  0.62710  Biso   1.000  H
  H13      1.0000 0.53470  0.32150  0.12710  Biso   1.000  H
  H14      1.0000 0.03470  0.82150  0.12710  Biso   1.000  H
  H15      1.0000 0.46530  0.32150  0.37290  Biso   1.000  H
  H16      1.0000 0.96530  0.82150  0.37290  Biso   1.000  H
  C17      1.0000 0.50000  0.70440  0.75000  Biso   1.000  C
  C18      1.0000 0.00000  0.20440  0.75000  Biso   1.000  C
  C19      1.0000 0.50000  0.29560  0.25000  Biso   1.000  C
  C20      1.0000 0.00000  0.79560  0.25000  Biso   1.000  C
  C21      1.0000 0.50000  0.83780  0.75000  Biso   1.000  C
  C22      1.0000 0.00000  0.33780  0.75000  Biso   1.000  C
  C23      1.0000 0.50000  0.16220  0.25000  Biso   1.000  C
  C24      1.0000 0.00000  0.66220  0.25000  Biso   1.000  C
  C25      1.0000 0.46950  0.90310  0.81200  Biso   1.000  C
  C26      1.0000 0.96950  0.40310  0.81200  Biso   1.000  C
  C27      1.0000 0.53050  0.90310  0.68800  Biso   1.000  C
  C28      1.0000 0.03050  0.40310  0.68800  Biso   1.000  C
  C29      1.0000 0.53050  0.09690  0.18800  Biso   1.000  C
  C30      1.0000 0.03050  0.59690  0.18800  Biso   1.000  C
  C31      1.0000 0.46950  0.09690  0.31200  Biso   1.000  C
  C32      1.0000 0.96950  0.59690  0.31200  Biso   1.000  C
  H17      1.0000 0.44850  0.86350  0.85530  Biso   1.000  H
  H18      1.0000 0.94850  0.36350  0.85530  Biso   1.000  H
  H19      1.0000 0.55150  0.86350  0.64470  Biso   1.000  H
  H20      1.0000 0.05150  0.36350  0.64470  Biso   1.000  H
  H21      1.0000 0.55150  0.13650  0.14470  Biso   1.000  H
  H22      1.0000 0.05150  0.63650  0.14470  Biso   1.000  H
  H23      1.0000 0.44850  0.13650  0.35530  Biso   1.000  H
  H24      1.0000 0.94850  0.63650  0.35530  Biso   1.000  H
  C33      1.0000 0.47010  0.02620  0.80950  Biso   1.000  C
  C34      1.0000 0.97010  0.52620  0.80950  Biso   1.000  C
  C35      1.0000 0.52990  0.02620  0.69050  Biso   1.000  C
  C36      1.0000 0.02990  0.52620  0.69050  Biso   1.000  C
  C37      1.0000 0.52990  0.97380  0.19050  Biso   1.000  C
  C38      1.0000 0.02990  0.47380  0.19050  Biso   1.000  C
  C39      1.0000 0.47010  0.97380  0.30950  Biso   1.000  C
  C40      1.0000 0.97010  0.47380  0.30950  Biso   1.000  C
  H25      1.0000 0.44860  0.06800  0.85110  Biso   1.000  H
  H26      1.0000 0.94860  0.56800  0.85110  Biso   1.000  H
  H27      1.0000 0.55140  0.06800  0.64890  Biso   1.000  H
  H28      1.0000 0.05140  0.56800  0.64890  Biso   1.000  H
  H29      1.0000 0.55140  0.93200  0.14890  Biso   1.000  H
  H30      1.0000 0.05140  0.43200  0.14890  Biso   1.000  H
  H31      1.0000 0.44860  0.93200  0.35110  Biso   1.000  H
  H32      1.0000 0.94860  0.43200  0.35110  Biso   1.000  H
  N5       1.0000 0.50000  0.08890  0.75000  Biso   1.000  N
  N6       1.0000 0.00000  0.58890  0.75000  Biso   1.000  N
  N7       1.0000 0.50000  0.91110  0.25000  Biso   1.000  N
  N8       1.0000 0.00000  0.41110  0.25000  Biso   1.000  N
  H33      1.0000 0.61200  0.32600  0.00300  Biso   1.000  H
  H34      1.0000 0.11200  0.82600  0.00300  Biso   1.000  H
  H35      1.0000 0.38800  0.32600  0.49700  Biso   1.000  H
  H36      1.0000 0.88800  0.82600  0.49700  Biso   1.000  H
  H37      1.0000 0.38800  0.67400  0.99700  Biso   1.000  H
  H38      1.0000 0.88800  0.17400  0.99700  Biso   1.000  H
  H39      1.0000 0.61200  0.67400  0.50300  Biso   1.000  H
  H40      1.0000 0.11200  0.17400  0.50300  Biso   1.000  H
  H41      1.0000 0.61800  0.22000  0.98700  Biso   1.000  H
  H42      1.0000 0.11800  0.72000  0.98700  Biso   1.000  H
  H43      1.0000 0.38200  0.22000  0.51300  Biso   1.000  H
  H44      1.0000 0.88200  0.72000  0.51300  Biso   1.000  H
  H45      1.0000 0.38200  0.78000  0.01300  Biso   1.000  H
  H46      1.0000 0.88200  0.28000  0.01300  Biso   1.000  H
  H47      1.0000 0.61800  0.78000  0.48700  Biso   1.000  H
  H48      1.0000 0.11800  0.28000  0.48700  Biso   1.000  H
  H49      1.0000 0.36200  0.26900  0.77300  Biso   1.000  H
  H50      1.0000 0.86200  0.76900  0.77300  Biso   1.000  H
  H51      1.0000 0.63800  0.26900  0.72700  Biso   1.000  H
  H52      1.0000 0.13800  0.76900  0.72700  Biso   1.000  H
  H53      1.0000 0.63800  0.73100  0.22700  Biso   1.000  H
  H54      1.0000 0.13800  0.23100  0.22700  Biso   1.000  H
  H55      1.0000 0.36200  0.73100  0.27300  Biso   1.000  H
  H56      1.0000 0.86200  0.23100  0.27300  Biso   1.000  H
  H57      1.0000 0.33000  0.30800  0.66400  Biso   1.000  H
  H58      1.0000 0.83000  0.80800  0.66400  Biso   1.000  H
  H59      1.0000 0.67000  0.30800  0.83600  Biso   1.000  H
  H60      1.0000 0.17000  0.80800  0.83600  Biso   1.000  H
  H61      1.0000 0.67000  0.69200  0.33600  Biso   1.000  H
  H62      1.0000 0.17000  0.19200  0.33600  Biso   1.000  H
  H63      1.0000 0.33000  0.69200  0.16400  Biso   1.000  H
  H64      1.0000 0.83000  0.19200  0.16400  Biso   1.000  H
  O17      1.0000 0.17715  0.79292  0.62170  Biso   1.000  O
  O18      1.0000 0.67715  0.29292  0.62170  Biso   1.000  O
  O19      1.0000 0.82285  0.79292  0.87830  Biso   1.000  O
  O20      1.0000 0.32285  0.29292  0.87830  Biso   1.000  O
  O21      1.0000 0.82285  0.20708  0.37830  Biso   1.000  O
  O22      1.0000 0.32285  0.70708  0.37830  Biso   1.000  O
  O23      1.0000 0.17715  0.20708  0.12170  Biso   1.000  O
  O24      1.0000 0.67715  0.70708  0.12170  Biso   1.000  O
  O25      1.0000 0.19893  0.59590  0.63562  Biso   1.000  O
  O26      1.0000 0.69893  0.09590  0.63562  Biso   1.000  O
  O27      1.0000 0.80107  0.59590  0.86438  Biso   1.000  O
  O28      1.0000 0.30107  0.09590  0.86438  Biso   1.000  O
  O29      1.0000 0.80107  0.40410  0.36438  Biso   1.000  O
  O30      1.0000 0.30107  0.90410  0.36438  Biso   1.000  O
  O31      1.0000 0.19893  0.40410  0.13562  Biso   1.000  O
  O32      1.0000 0.69893  0.90410  0.13562  Biso   1.000  O
  C41      1.0000 0.20480  0.69730  0.60020  Biso   1.000  C
  C42      1.0000 0.70480  0.19730  0.60020  Biso   1.000  C
  C43      1.0000 0.79520  0.69730  0.89980  Biso   1.000  C
  C44      1.0000 0.29520  0.19730  0.89980  Biso   1.000  C
  C45      1.0000 0.79520  0.30270  0.39980  Biso   1.000  C
  C46      1.0000 0.29520  0.80270  0.39980  Biso   1.000  C
  C47      1.0000 0.20480  0.30270  0.10020  Biso   1.000  C
  C48      1.0000 0.70480  0.80270  0.10020  Biso   1.000  C
  C49      1.0000 0.24730  0.70320  0.52620  Biso   1.000  C
  C50      1.0000 0.74730  0.20320  0.52620  Biso   1.000  C
  C51      1.0000 0.75270  0.70320  0.97380  Biso   1.000  C
  C52      1.0000 0.25270  0.20320  0.97380  Biso   1.000  C
  C53      1.0000 0.75270  0.29680  0.47380  Biso   1.000  C
  C54      1.0000 0.25270  0.79680  0.47380  Biso   1.000  C
  C55      1.0000 0.24730  0.29680  0.02620  Biso   1.000  C
  C56      1.0000 0.74730  0.79680  0.02620  Biso   1.000  C
  H65      1.0000 0.27600  0.63400  0.52600  Biso   1.000  H
  H66      1.0000 0.77600  0.13400  0.52600  Biso   1.000  H
  H67      1.0000 0.72400  0.63400  0.97400  Biso   1.000  H
  H68      1.0000 0.22400  0.13400  0.97400  Biso   1.000  H
  H69      1.0000 0.72400  0.36600  0.47400  Biso   1.000  H
  H70      1.0000 0.22400  0.86600  0.47400  Biso   1.000  H
  H71      1.0000 0.27600  0.36600  0.02600  Biso   1.000  H
  H72      1.0000 0.77600  0.86600  0.02600  Biso   1.000  H
  O33      1.0000 0.22315  0.40130  0.53600  Biso   1.000  O
  O34      1.0000 0.72315  0.90130  0.53600  Biso   1.000  O
  O35      1.0000 0.77685  0.40130  0.96400  Biso   1.000  O
  O36      1.0000 0.27685  0.90130  0.96400  Biso   1.000  O
  O37      1.0000 0.77685  0.59870  0.46400  Biso   1.000  O
  O38      1.0000 0.27685  0.09870  0.46400  Biso   1.000  O
  O39      1.0000 0.22315  0.59870  0.03600  Biso   1.000  O
  O40      1.0000 0.72315  0.09870  0.03600  Biso   1.000  O
  H73      1.0000 0.21800  0.46300  0.56400  Biso   1.000  H
  H74      1.0000 0.71800  0.96300  0.56400  Biso   1.000  H
  H75      1.0000 0.78200  0.46300  0.93600  Biso   1.000  H
  H76      1.0000 0.28200  0.96300  0.93600  Biso   1.000  H
  H77      1.0000 0.78200  0.53700  0.43600  Biso   1.000  H
  H78      1.0000 0.28200  0.03700  0.43600  Biso   1.000  H
  H79      1.0000 0.21800  0.53700  0.06400  Biso   1.000  H
  H80      1.0000 0.71800  0.03700  0.06400  Biso   1.000  H
  H81      1.0000 0.23400  0.41800  0.48700  Biso   1.000  H
  H82      1.0000 0.73400  0.91800  0.48700  Biso   1.000  H
  H83      1.0000 0.76600  0.41800  0.01300  Biso   1.000  H
  H84      1.0000 0.26600  0.91800  0.01300  Biso   1.000  H
  H85      1.0000 0.76600  0.58200  0.51300  Biso   1.000  H
  H86      1.0000 0.26600  0.08200  0.51300  Biso   1.000  H
  H87      1.0000 0.23400  0.58200  0.98700  Biso   1.000  H
  H88      1.0000 0.73400  0.08200  0.98700  Biso   1.000  H
  O41      1.0000 0.20950  0.03590  0.61330  Biso   1.000  O
  O42      1.0000 0.70950  0.53590  0.61330  Biso   1.000  O
  O43      1.0000 0.79050  0.03590  0.88670  Biso   1.000  O
  O44      1.0000 0.29050  0.53590  0.88670  Biso   1.000  O
  O45      1.0000 0.79050  0.96410  0.38670  Biso   1.000  O
  O46      1.0000 0.29050  0.46410  0.38670  Biso   1.000  O
  O47      1.0000 0.20950  0.96410  0.11330  Biso   1.000  O
  O48      1.0000 0.70950  0.46410  0.11330  Biso   1.000  O
  H89      1.0000 0.19700  0.96700  0.61100  Biso   1.000  H
  H90      1.0000 0.69700  0.46700  0.61100  Biso   1.000  H
  H91      1.0000 0.80300  0.96700  0.88900  Biso   1.000  H
  H92      1.0000 0.30300  0.46700  0.88900  Biso   1.000  H
  H93      1.0000 0.80300  0.03300  0.38900  Biso   1.000  H
  H94      1.0000 0.30300  0.53300  0.38900  Biso   1.000  H
  H95      1.0000 0.19700  0.03300  0.11100  Biso   1.000  H
  H96      1.0000 0.69700  0.53300  0.11100  Biso   1.000  H
  H97      1.0000 0.24300  0.04900  0.68300  Biso   1.000  H
  H98      1.0000 0.74300  0.54900  0.68300  Biso   1.000  H
  H99      1.0000 0.75700  0.04900  0.81700  Biso   1.000  H
  H100     1.0000 0.25700  0.54900  0.81700  Biso   1.000  H
  H101     1.0000 0.75700  0.95100  0.31700  Biso   1.000  H
  H102     1.0000 0.25700  0.45100  0.31700  Biso   1.000  H
  H103     1.0000 0.24300  0.95100  0.18300  Biso   1.000  H
  H104     1.0000 0.74300  0.45100  0.18300  Biso   1.000  H
