data_image0
_cell_length_a       28.171
_cell_length_b       5.554
_cell_length_c       22.102
_cell_angle_alpha    90
_cell_angle_beta     115.868
_cell_angle_gamma    90

_symmetry_space_group_name_H-M    "P 1"
_symmetry_int_tables_number       1

loop_
  _symmetry_equiv_pos_as_xyz
  'x, y, z'

loop_
  _atom_site_label
  _atom_site_occupancy
  _atom_site_fract_x
  _atom_site_fract_y
  _atom_site_fract_z
  _atom_site_thermal_displace_type
  _atom_site_B_iso_or_equiv
  _atom_site_type_symbol
  C1       1.0000 0.21656  0.97210  0.16879  Biso   1.000  C
  C2       1.0000 0.78344  0.97210  0.33121  Biso   1.000  C
  C3       1.0000 0.71656  0.47210  0.16879  Biso   1.000  C
  C4       1.0000 0.28344  0.47210  0.33121  Biso   1.000  C
  C5       1.0000 0.78344  0.02790  0.83121  Biso   1.000  C
  C6       1.0000 0.21656  0.02790  0.66879  Biso   1.000  C
  C7       1.0000 0.28344  0.52790  0.83121  Biso   1.000  C
  C8       1.0000 0.71656  0.52790  0.66879  Biso   1.000  C
  H1       1.0000 0.24050  0.08650  0.16820  Biso   1.000  H
  H2       1.0000 0.75950  0.08650  0.33180  Biso   1.000  H
  H3       1.0000 0.74050  0.58650  0.16820  Biso   1.000  H
  H4       1.0000 0.25950  0.58650  0.33180  Biso   1.000  H
  H5       1.0000 0.75950  0.91350  0.83180  Biso   1.000  H
  H6       1.0000 0.24050  0.91350  0.66820  Biso   1.000  H
  H7       1.0000 0.25950  0.41350  0.83180  Biso   1.000  H
  H8       1.0000 0.74050  0.41350  0.66820  Biso   1.000  H
  C9       1.0000 0.19178  0.00550  0.21029  Biso   1.000  C
  C10      1.0000 0.80822  0.00550  0.28971  Biso   1.000  C
  C11      1.0000 0.69178  0.50550  0.21029  Biso   1.000  C
  C12      1.0000 0.30822  0.50550  0.28971  Biso   1.000  C
  C13      1.0000 0.80822  0.99450  0.78971  Biso   1.000  C
  C14      1.0000 0.19178  0.99450  0.71029  Biso   1.000  C
  C15      1.0000 0.30822  0.49450  0.78971  Biso   1.000  C
  C16      1.0000 0.69178  0.49450  0.71029  Biso   1.000  C
  H9       1.0000 0.19920  0.14210  0.23720  Biso   1.000  H
  H10      1.0000 0.80080  0.14210  0.26280  Biso   1.000  H
  H11      1.0000 0.69920  0.64210  0.23720  Biso   1.000  H
  H12      1.0000 0.30080  0.64210  0.26280  Biso   1.000  H
  H13      1.0000 0.80080  0.85790  0.76280  Biso   1.000  H
  H14      1.0000 0.19920  0.85790  0.73720  Biso   1.000  H
  H15      1.0000 0.30080  0.35790  0.76280  Biso   1.000  H
  H16      1.0000 0.69920  0.35790  0.73720  Biso   1.000  H
  C17      1.0000 0.15662  0.83950  0.21196  Biso   1.000  C
  C18      1.0000 0.84338  0.83950  0.28804  Biso   1.000  C
  C19      1.0000 0.65662  0.33950  0.21196  Biso   1.000  C
  C20      1.0000 0.34338  0.33950  0.28804  Biso   1.000  C
  C21      1.0000 0.84338  0.16050  0.78804  Biso   1.000  C
  C22      1.0000 0.15662  0.16050  0.71196  Biso   1.000  C
  C23      1.0000 0.34338  0.66050  0.78804  Biso   1.000  C
  C24      1.0000 0.65662  0.66050  0.71196  Biso   1.000  C
  H17      1.0000 0.14020  0.86190  0.24000  Biso   1.000  H
  H18      1.0000 0.85980  0.86190  0.26000  Biso   1.000  H
  H19      1.0000 0.64020  0.36190  0.24000  Biso   1.000  H
  H20      1.0000 0.35980  0.36190  0.26000  Biso   1.000  H
  H21      1.0000 0.85980  0.13810  0.76000  Biso   1.000  H
  H22      1.0000 0.14020  0.13810  0.74000  Biso   1.000  H
  H23      1.0000 0.35980  0.63810  0.76000  Biso   1.000  H
  H24      1.0000 0.64020  0.63810  0.74000  Biso   1.000  H
  C25      1.0000 0.14592  0.64040  0.17203  Biso   1.000  C
  C26      1.0000 0.85408  0.64040  0.32797  Biso   1.000  C
  C27      1.0000 0.64592  0.14040  0.17203  Biso   1.000  C
  C28      1.0000 0.35408  0.14040  0.32797  Biso   1.000  C
  C29      1.0000 0.85408  0.35960  0.82797  Biso   1.000  C
  C30      1.0000 0.14592  0.35960  0.67203  Biso   1.000  C
  C31      1.0000 0.35408  0.85960  0.82797  Biso   1.000  C
  C32      1.0000 0.64592  0.85960  0.67203  Biso   1.000  C
  H25      1.0000 0.12210  0.52630  0.17310  Biso   1.000  H
  H26      1.0000 0.87790  0.52630  0.32690  Biso   1.000  H
  H27      1.0000 0.62210  0.02630  0.17310  Biso   1.000  H
  H28      1.0000 0.37790  0.02630  0.32690  Biso   1.000  H
  H29      1.0000 0.87790  0.47370  0.82690  Biso   1.000  H
  H30      1.0000 0.12210  0.47370  0.67310  Biso   1.000  H
  H31      1.0000 0.37790  0.97370  0.82690  Biso   1.000  H
  H32      1.0000 0.62210  0.97370  0.67310  Biso   1.000  H
  C33      1.0000 0.17008  0.60620  0.12996  Biso   1.000  C
  C34      1.0000 0.82992  0.60620  0.37004  Biso   1.000  C
  C35      1.0000 0.67008  0.10620  0.12996  Biso   1.000  C
  C36      1.0000 0.32992  0.10620  0.37004  Biso   1.000  C
  C37      1.0000 0.82992  0.39380  0.87004  Biso   1.000  C
  C38      1.0000 0.17008  0.39380  0.62996  Biso   1.000  C
  C39      1.0000 0.32992  0.89380  0.87004  Biso   1.000  C
  C40      1.0000 0.67008  0.89380  0.62996  Biso   1.000  C
  H33      1.0000 0.16200  0.47080  0.10250  Biso   1.000  H
  H34      1.0000 0.83800  0.47080  0.39750  Biso   1.000  H
  H35      1.0000 0.66200  0.97080  0.10250  Biso   1.000  H
  H36      1.0000 0.33800  0.97080  0.39750  Biso   1.000  H
  H37      1.0000 0.83800  0.52920  0.89750  Biso   1.000  H
  H38      1.0000 0.16200  0.52920  0.60250  Biso   1.000  H
  H39      1.0000 0.33800  0.02920  0.89750  Biso   1.000  H
  H40      1.0000 0.66200  0.02920  0.60250  Biso   1.000  H
  C41      1.0000 0.20617  0.77160  0.12849  Biso   1.000  C
  C42      1.0000 0.79383  0.77160  0.37151  Biso   1.000  C
  C43      1.0000 0.70617  0.27160  0.12849  Biso   1.000  C
  C44      1.0000 0.29383  0.27160  0.37151  Biso   1.000  C
  C45      1.0000 0.79383  0.22840  0.87151  Biso   1.000  C
  C46      1.0000 0.20617  0.22840  0.62849  Biso   1.000  C
  C47      1.0000 0.29383  0.72840  0.87151  Biso   1.000  C
  C48      1.0000 0.70617  0.72840  0.62849  Biso   1.000  C
  C49      1.0000 0.23445  0.71720  0.08544  Biso   1.000  C
  C50      1.0000 0.76555  0.71720  0.41456  Biso   1.000  C
  C51      1.0000 0.73445  0.21720  0.08544  Biso   1.000  C
  C52      1.0000 0.26555  0.21720  0.41456  Biso   1.000  C
  C53      1.0000 0.76555  0.28280  0.91456  Biso   1.000  C
  C54      1.0000 0.23445  0.28280  0.58544  Biso   1.000  C
  C55      1.0000 0.26555  0.78280  0.91456  Biso   1.000  C
  C56      1.0000 0.73445  0.78280  0.58544  Biso   1.000  C
  H41      1.0000 0.25980  0.58990  0.10700  Biso   1.000  H
  H42      1.0000 0.74020  0.58990  0.39300  Biso   1.000  H
  H43      1.0000 0.75980  0.08990  0.10700  Biso   1.000  H
  H44      1.0000 0.24020  0.08990  0.39300  Biso   1.000  H
  H45      1.0000 0.74020  0.41010  0.89300  Biso   1.000  H
  H46      1.0000 0.25980  0.41010  0.60700  Biso   1.000  H
  H47      1.0000 0.24020  0.91010  0.89300  Biso   1.000  H
  H48      1.0000 0.75980  0.91010  0.60700  Biso   1.000  H
  H49      1.0000 0.20880  0.65610  0.04240  Biso   1.000  H
  H50      1.0000 0.79120  0.65610  0.45760  Biso   1.000  H
  H51      1.0000 0.70880  0.15610  0.04240  Biso   1.000  H
  H52      1.0000 0.29120  0.15610  0.45760  Biso   1.000  H
  H53      1.0000 0.79120  0.34390  0.95760  Biso   1.000  H
  H54      1.0000 0.20880  0.34390  0.54240  Biso   1.000  H
  H55      1.0000 0.29120  0.84390  0.95760  Biso   1.000  H
  H56      1.0000 0.70880  0.84390  0.54240  Biso   1.000  H
  C57      1.0000 0.31312  0.96260  0.10970  Biso   1.000  C
  C58      1.0000 0.68688  0.96260  0.39030  Biso   1.000  C
  C59      1.0000 0.81312  0.46260  0.10970  Biso   1.000  C
  C60      1.0000 0.18688  0.46260  0.39030  Biso   1.000  C
  C61      1.0000 0.68688  0.03740  0.89030  Biso   1.000  C
  C62      1.0000 0.31312  0.03740  0.60970  Biso   1.000  C
  C63      1.0000 0.18688  0.53740  0.89030  Biso   1.000  C
  C64      1.0000 0.81312  0.53740  0.60970  Biso   1.000  C
  C65      1.0000 0.34020  0.14520  0.09326  Biso   1.000  C
  C66      1.0000 0.65980  0.14520  0.40674  Biso   1.000  C
  C67      1.0000 0.84020  0.64520  0.09326  Biso   1.000  C
  C68      1.0000 0.15980  0.64520  0.40674  Biso   1.000  C
  C69      1.0000 0.65980  0.85480  0.90674  Biso   1.000  C
  C70      1.0000 0.34020  0.85480  0.59326  Biso   1.000  C
  C71      1.0000 0.15980  0.35480  0.90674  Biso   1.000  C
  C72      1.0000 0.84020  0.35480  0.59326  Biso   1.000  C
  C73      1.0000 0.36693  0.42380  0.05042  Biso   1.000  C
  C74      1.0000 0.63307  0.42380  0.44958  Biso   1.000  C
  C75      1.0000 0.86693  0.92380  0.05042  Biso   1.000  C
  C76      1.0000 0.13307  0.92380  0.44958  Biso   1.000  C
  C77      1.0000 0.63307  0.57620  0.94958  Biso   1.000  C
  C78      1.0000 0.36693  0.57620  0.55042  Biso   1.000  C
  C79      1.0000 0.13307  0.07620  0.94958  Biso   1.000  C
  C80      1.0000 0.86693  0.07620  0.55042  Biso   1.000  C
  H57      1.0000 0.36800  0.54610  0.02230  Biso   1.000  H
  H58      1.0000 0.63200  0.54610  0.47770  Biso   1.000  H
  H59      1.0000 0.86800  0.04610  0.02230  Biso   1.000  H
  H60      1.0000 0.13200  0.04610  0.47770  Biso   1.000  H
  H61      1.0000 0.63200  0.45390  0.97770  Biso   1.000  H
  H62      1.0000 0.36800  0.45390  0.52230  Biso   1.000  H
  H63      1.0000 0.13200  0.95390  0.97770  Biso   1.000  H
  H64      1.0000 0.86800  0.95390  0.52230  Biso   1.000  H
  C81      1.0000 0.39354  0.16950  0.13382  Biso   1.000  C
  C82      1.0000 0.60646  0.16950  0.36618  Biso   1.000  C
  C83      1.0000 0.89354  0.66950  0.13382  Biso   1.000  C
  C84      1.0000 0.10646  0.66950  0.36618  Biso   1.000  C
  C85      1.0000 0.60646  0.83050  0.86618  Biso   1.000  C
  C86      1.0000 0.39354  0.83050  0.63382  Biso   1.000  C
  C87      1.0000 0.10646  0.33050  0.86618  Biso   1.000  C
  C88      1.0000 0.89354  0.33050  0.63382  Biso   1.000  C
  C89      1.0000 0.39179  0.87010  0.20000  Biso   1.000  C
  C90      1.0000 0.60821  0.87010  0.30000  Biso   1.000  C
  C91      1.0000 0.89179  0.37010  0.20000  Biso   1.000  C
  C92      1.0000 0.10821  0.37010  0.30000  Biso   1.000  C
  C93      1.0000 0.60821  0.12990  0.80000  Biso   1.000  C
  C94      1.0000 0.39179  0.12990  0.70000  Biso   1.000  C
  C95      1.0000 0.10821  0.62990  0.80000  Biso   1.000  C
  C96      1.0000 0.89179  0.62990  0.70000  Biso   1.000  C
  H65      1.0000 0.40910  0.77310  0.23760  Biso   1.000  H
  H66      1.0000 0.59090  0.77310  0.26240  Biso   1.000  H
  H67      1.0000 0.90910  0.27310  0.23760  Biso   1.000  H
  H68      1.0000 0.09090  0.27310  0.26240  Biso   1.000  H
  H69      1.0000 0.59090  0.22690  0.76240  Biso   1.000  H
  H70      1.0000 0.40910  0.22690  0.73760  Biso   1.000  H
  H71      1.0000 0.09090  0.72690  0.76240  Biso   1.000  H
  H72      1.0000 0.90910  0.72690  0.73760  Biso   1.000  H
  C97      1.0000 0.49770  0.90160  0.37039  Biso   1.000  C
  C98      1.0000 0.50230  0.90160  0.12961  Biso   1.000  C
  C99      1.0000 0.99770  0.40160  0.37039  Biso   1.000  C
  C100     1.0000 0.00230  0.40160  0.12961  Biso   1.000  C
  C101     1.0000 0.50230  0.09840  0.62961  Biso   1.000  C
  C102     1.0000 0.49770  0.09840  0.87039  Biso   1.000  C
  C103     1.0000 0.00230  0.59840  0.62961  Biso   1.000  C
  C104     1.0000 0.99770  0.59840  0.87039  Biso   1.000  C
  C105     1.0000 0.49924  0.95420  0.43782  Biso   1.000  C
  C106     1.0000 0.50076  0.95420  0.06218  Biso   1.000  C
  C107     1.0000 0.99924  0.45420  0.43782  Biso   1.000  C
  C108     1.0000 0.00076  0.45420  0.06218  Biso   1.000  C
  C109     1.0000 0.50076  0.04580  0.56218  Biso   1.000  C
  C110     1.0000 0.49924  0.04580  0.93782  Biso   1.000  C
  C111     1.0000 0.00076  0.54580  0.56218  Biso   1.000  C
  C112     1.0000 0.99924  0.54580  0.93782  Biso   1.000  C
  C113     1.0000 0.48078  0.17190  0.44969  Biso   1.000  C
  C114     1.0000 0.51922  0.17190  0.05031  Biso   1.000  C
  C115     1.0000 0.98078  0.67190  0.44969  Biso   1.000  C
  C116     1.0000 0.01922  0.67190  0.05031  Biso   1.000  C
  C117     1.0000 0.51922  0.82810  0.55031  Biso   1.000  C
  C118     1.0000 0.48078  0.82810  0.94969  Biso   1.000  C
  C119     1.0000 0.01922  0.32810  0.55031  Biso   1.000  C
  C120     1.0000 0.98078  0.32810  0.94969  Biso   1.000  C
  H73      1.0000 0.46790  0.28790  0.41600  Biso   1.000  H
  H74      1.0000 0.53210  0.28790  0.08400  Biso   1.000  H
  H75      1.0000 0.96790  0.78790  0.41600  Biso   1.000  H
  H76      1.0000 0.03210  0.78790  0.08400  Biso   1.000  H
  H77      1.0000 0.53210  0.71210  0.58400  Biso   1.000  H
  H78      1.0000 0.46790  0.71210  0.91600  Biso   1.000  H
  H79      1.0000 0.03210  0.21210  0.58400  Biso   1.000  H
  H80      1.0000 0.96790  0.21210  0.91600  Biso   1.000  H
  C121     1.0000 0.48156  0.21610  0.51161  Biso   1.000  C
  C122     1.0000 0.51844  0.21610  0.98839  Biso   1.000  C
  C123     1.0000 0.98156  0.71610  0.51161  Biso   1.000  C
  C124     1.0000 0.01844  0.71610  0.98839  Biso   1.000  C
  C125     1.0000 0.51844  0.78390  0.48839  Biso   1.000  C
  C126     1.0000 0.48156  0.78390  0.01161  Biso   1.000  C
  C127     1.0000 0.01844  0.28390  0.48839  Biso   1.000  C
  C128     1.0000 0.98156  0.28390  0.01161  Biso   1.000  C
  H81      1.0000 0.46900  0.36220  0.51940  Biso   1.000  H
  H82      1.0000 0.53100  0.36220  0.98060  Biso   1.000  H
  H83      1.0000 0.96900  0.86220  0.51940  Biso   1.000  H
  H84      1.0000 0.03100  0.86220  0.98060  Biso   1.000  H
  H85      1.0000 0.53100  0.63780  0.48060  Biso   1.000  H
  H86      1.0000 0.46900  0.63780  0.01940  Biso   1.000  H
  H87      1.0000 0.03100  0.13780  0.48060  Biso   1.000  H
  H88      1.0000 0.96900  0.13780  0.01940  Biso   1.000  H
  Cu1      1.0000 0.50000  0.07414  0.25000  Biso   1.000  Cu
  Cu2      1.0000 0.00000  0.57414  0.25000  Biso   1.000  Cu
  Cu3      1.0000 0.50000  0.92586  0.75000  Biso   1.000  Cu
  Cu4      1.0000 0.00000  0.42586  0.75000  Biso   1.000  Cu
  N1       1.0000 0.42174  0.03640  0.18941  Biso   1.000  N
  N2       1.0000 0.57826  0.03640  0.31059  Biso   1.000  N
  N3       1.0000 0.92174  0.53640  0.18941  Biso   1.000  N
  N4       1.0000 0.07826  0.53640  0.31059  Biso   1.000  N
  N5       1.0000 0.57826  0.96360  0.81059  Biso   1.000  N
  N6       1.0000 0.42174  0.96360  0.68941  Biso   1.000  N
  N7       1.0000 0.07826  0.46360  0.81059  Biso   1.000  N
  N8       1.0000 0.92174  0.46360  0.68941  Biso   1.000  N
  N9       1.0000 0.41010  0.34880  0.10540  Biso   1.000  N
  N10      1.0000 0.58990  0.34880  0.39460  Biso   1.000  N
  N11      1.0000 0.91010  0.84880  0.10540  Biso   1.000  N
  N12      1.0000 0.08990  0.84880  0.39460  Biso   1.000  N
  N13      1.0000 0.58990  0.65120  0.89460  Biso   1.000  N
  N14      1.0000 0.41010  0.65120  0.60540  Biso   1.000  N
  N15      1.0000 0.08990  0.15120  0.89460  Biso   1.000  N
  N16      1.0000 0.91010  0.15120  0.60540  Biso   1.000  N
  H89      1.0000 0.44070  0.40960  0.12040  Biso   1.000  H
  H90      1.0000 0.55930  0.40960  0.37960  Biso   1.000  H
  H91      1.0000 0.94070  0.90960  0.12040  Biso   1.000  H
  H92      1.0000 0.05930  0.90960  0.37960  Biso   1.000  H
  H93      1.0000 0.55930  0.59040  0.87960  Biso   1.000  H
  H94      1.0000 0.44070  0.59040  0.62040  Biso   1.000  H
  H95      1.0000 0.05930  0.09040  0.87960  Biso   1.000  H
  H96      1.0000 0.94070  0.09040  0.62040  Biso   1.000  H
  N17      1.0000 0.32360  0.30890  0.04042  Biso   1.000  N
  N18      1.0000 0.67640  0.30890  0.45958  Biso   1.000  N
  N19      1.0000 0.82360  0.80890  0.04042  Biso   1.000  N
  N20      1.0000 0.17640  0.80890  0.45958  Biso   1.000  N
  N21      1.0000 0.67640  0.69110  0.95958  Biso   1.000  N
  N22      1.0000 0.32360  0.69110  0.54042  Biso   1.000  N
  N23      1.0000 0.17640  0.19110  0.95958  Biso   1.000  N
  N24      1.0000 0.82360  0.19110  0.54042  Biso   1.000  N
  N25      1.0000 0.26185  0.91860  0.07311  Biso   1.000  N
  N26      1.0000 0.73815  0.91860  0.42689  Biso   1.000  N
  N27      1.0000 0.76185  0.41860  0.07311  Biso   1.000  N
  N28      1.0000 0.23815  0.41860  0.42689  Biso   1.000  N
  N29      1.0000 0.73815  0.08140  0.92689  Biso   1.000  N
  N30      1.0000 0.26185  0.08140  0.57311  Biso   1.000  N
  N31      1.0000 0.23815  0.58140  0.92689  Biso   1.000  N
  N32      1.0000 0.76185  0.58140  0.57311  Biso   1.000  N
  H97      1.0000 0.24410  0.01470  0.04050  Biso   1.000  H
  H98      1.0000 0.75590  0.01470  0.45950  Biso   1.000  H
  H99      1.0000 0.74410  0.51470  0.04050  Biso   1.000  H
  H100     1.0000 0.25590  0.51470  0.45950  Biso   1.000  H
  H101     1.0000 0.75590  0.98530  0.95950  Biso   1.000  H
  H102     1.0000 0.24410  0.98530  0.54050  Biso   1.000  H
  H103     1.0000 0.25590  0.48530  0.95950  Biso   1.000  H
  H104     1.0000 0.74410  0.48530  0.54050  Biso   1.000  H
  N33      1.0000 0.34090  0.82450  0.16430  Biso   1.000  N
  N34      1.0000 0.65910  0.82450  0.33570  Biso   1.000  N
  N35      1.0000 0.84090  0.32450  0.16430  Biso   1.000  N
  N36      1.0000 0.15910  0.32450  0.33570  Biso   1.000  N
  N37      1.0000 0.65910  0.17550  0.83570  Biso   1.000  N
  N38      1.0000 0.34090  0.17550  0.66430  Biso   1.000  N
  N39      1.0000 0.15910  0.67550  0.83570  Biso   1.000  N
  N40      1.0000 0.84090  0.67550  0.66430  Biso   1.000  N
  O1       1.0000 0.48680  0.07690  0.32972  Biso   1.000  O
  O2       1.0000 0.51320  0.07690  0.17028  Biso   1.000  O
  O3       1.0000 0.98680  0.57690  0.32972  Biso   1.000  O
  O4       1.0000 0.01320  0.57690  0.17028  Biso   1.000  O
  O5       1.0000 0.51320  0.92310  0.67028  Biso   1.000  O
  O6       1.0000 0.48680  0.92310  0.82972  Biso   1.000  O
  O7       1.0000 0.01320  0.42310  0.67028  Biso   1.000  O
  O8       1.0000 0.98680  0.42310  0.82972  Biso   1.000  O
  O9       1.0000 0.50664  0.69270  0.35810  Biso   1.000  O
  O10      1.0000 0.49336  0.69270  0.14190  Biso   1.000  O
  O11      1.0000 0.00664  0.19270  0.35810  Biso   1.000  O
  O12      1.0000 0.99336  0.19270  0.14190  Biso   1.000  O
  O13      1.0000 0.49336  0.30730  0.64190  Biso   1.000  O
  O14      1.0000 0.50664  0.30730  0.85810  Biso   1.000  O
  O15      1.0000 0.99336  0.80730  0.64190  Biso   1.000  O
  O16      1.0000 0.00664  0.80730  0.85810  Biso   1.000  O
  O17      1.0000 0.50000  0.46430  0.25000  Biso   1.000  O
  O18      1.0000 0.00000  0.96430  0.25000  Biso   1.000  O
  O19      1.0000 0.50000  0.53570  0.75000  Biso   1.000  O
  O20      1.0000 0.00000  0.03570  0.75000  Biso   1.000  O
  H105     1.0000 0.49750  0.55510  0.27990  Biso   1.000  H
  H106     1.0000 0.50250  0.55510  0.22010  Biso   1.000  H
  H107     1.0000 0.99750  0.05510  0.27990  Biso   1.000  H
  H108     1.0000 0.00250  0.05510  0.22010  Biso   1.000  H
  H109     1.0000 0.50250  0.44490  0.72010  Biso   1.000  H
  H110     1.0000 0.49750  0.44490  0.77990  Biso   1.000  H
  H111     1.0000 0.00250  0.94490  0.72010  Biso   1.000  H
  H112     1.0000 0.99750  0.94490  0.77990  Biso   1.000  H
