data_image0
_cell_length_a       6.787
_cell_length_b       6.758
_cell_length_c       12.036
_cell_angle_alpha    90
_cell_angle_beta     102.919
_cell_angle_gamma    90

_symmetry_space_group_name_H-M    "P 1"
_symmetry_int_tables_number       1

loop_
  _symmetry_equiv_pos_as_xyz
  'x, y, z'

loop_
  _atom_site_label
  _atom_site_occupancy
  _atom_site_fract_x
  _atom_site_fract_y
  _atom_site_fract_z
  _atom_site_thermal_displace_type
  _atom_site_B_iso_or_equiv
  _atom_site_type_symbol
  C1       1.0000 0.27170  0.25000  0.62470  Biso   1.000  C
  C2       1.0000 0.72830  0.75000  0.37530  Biso   1.000  C
  C3       1.0000 0.47790  0.25000  0.63900  Biso   1.000  C
  C4       1.0000 0.52210  0.75000  0.36100  Biso   1.000  C
  H1       1.0000 0.56110  0.25000  0.71180  Biso   1.000  H
  H2       1.0000 0.43890  0.75000  0.28820  Biso   1.000  H
  C5       1.0000 0.56090  0.25000  0.54360  Biso   1.000  C
  C6       1.0000 0.43910  0.75000  0.45640  Biso   1.000  C
  H3       1.0000 0.70060  0.25000  0.55270  Biso   1.000  H
  H4       1.0000 0.29940  0.75000  0.44730  Biso   1.000  H
  C7       1.0000 0.43740  0.25000  0.43470  Biso   1.000  C
  C8       1.0000 0.56260  0.75000  0.56530  Biso   1.000  C
  C9       1.0000 0.23100  0.25000  0.42300  Biso   1.000  C
  C10      1.0000 0.76900  0.75000  0.57700  Biso   1.000  C
  H5       1.0000 0.14740  0.25000  0.35040  Biso   1.000  H
  H6       1.0000 0.85260  0.75000  0.64960  Biso   1.000  H
  C11      1.0000 0.14480  0.25000  0.51730  Biso   1.000  C
  C12      1.0000 0.85520  0.75000  0.48270  Biso   1.000  C
  H7       1.0000 0.00520  0.25000  0.50850  Biso   1.000  H
  H8       1.0000 0.99480  0.75000  0.49150  Biso   1.000  H
  C13      1.0000 0.52840  0.25000  0.33140  Biso   1.000  C
  C14      1.0000 0.47160  0.75000  0.66860  Biso   1.000  C
  C15      1.0000 0.13590  0.09000  0.78050  Biso   1.000  C
  C16      1.0000 0.86410  0.59000  0.21950  Biso   1.000  C
  C17      1.0000 0.86410  0.91000  0.21950  Biso   1.000  C
  C18      1.0000 0.13590  0.41000  0.78050  Biso   1.000  C
  H9       1.0000 0.15300  0.95900  0.76100  Biso   1.000  H
  H10      1.0000 0.84700  0.45900  0.23900  Biso   1.000  H
  H11      1.0000 0.84700  0.04100  0.23900  Biso   1.000  H
  H12      1.0000 0.15300  0.54100  0.76100  Biso   1.000  H
  N1       1.0000 0.18360  0.25000  0.72400  Biso   1.000  N
  N2       1.0000 0.81640  0.75000  0.27600  Biso   1.000  N
  N3       1.0000 0.06240  0.14790  0.86651  Biso   1.000  N
  N4       1.0000 0.93760  0.64790  0.13349  Biso   1.000  N
  N5       1.0000 0.93760  0.85210  0.13349  Biso   1.000  N
  N6       1.0000 0.06240  0.35210  0.86651  Biso   1.000  N
  O1       1.0000 0.71510  0.25000  0.34620  Biso   1.000  O
  O2       1.0000 0.28490  0.75000  0.65380  Biso   1.000  O
  O3       1.0000 0.40600  0.25000  0.23440  Biso   1.000  O
  O4       1.0000 0.59400  0.75000  0.76560  Biso   1.000  O
  Cu1      1.0000 0.00000  0.00000  0.00000  Biso   1.000  Cu
  Cu2      1.0000 0.00000  0.50000  0.00000  Biso   1.000  Cu
  O5       1.0000 0.00960  0.25000  0.08020  Biso   1.000  O
  O6       1.0000 0.99040  0.75000  0.91980  Biso   1.000  O
  O7       1.0000 0.61950  0.04590  0.92459  Biso   1.000  O
  O8       1.0000 0.38050  0.54590  0.07541  Biso   1.000  O
  O9       1.0000 0.38050  0.95410  0.07541  Biso   1.000  O
  O10      1.0000 0.61950  0.45410  0.92459  Biso   1.000  O
  H13      1.0000 0.11800  0.25000  0.13000  Biso   1.000  H
  H14      1.0000 0.88200  0.75000  0.87000  Biso   1.000  H
  H15      1.0000 0.58700  0.96000  0.87400  Biso   1.000  H
  H16      1.0000 0.41300  0.46000  0.12600  Biso   1.000  H
  H17      1.0000 0.41300  0.04000  0.12600  Biso   1.000  H
  H18      1.0000 0.58700  0.54000  0.87400  Biso   1.000  H
  H19      1.0000 0.52900  0.01700  0.96000  Biso   1.000  H
  H20      1.0000 0.47100  0.51700  0.04000  Biso   1.000  H
  H21      1.0000 0.47100  0.98300  0.04000  Biso   1.000  H
  H22      1.0000 0.52900  0.48300  0.96000  Biso   1.000  H
  H23      1.0000 0.62800  0.16900  0.91400  Biso   1.000  H
  H24      1.0000 0.37200  0.66900  0.08600  Biso   1.000  H
  H25      1.0000 0.37200  0.83100  0.08600  Biso   1.000  H
  H26      1.0000 0.62800  0.33100  0.91400  Biso   1.000  H
