data_image0
_cell_length_a       5.0732
_cell_length_b       11.8367
_cell_length_c       13.681
_cell_angle_alpha    90
_cell_angle_beta     94.473
_cell_angle_gamma    90

_symmetry_space_group_name_H-M    "P 1"
_symmetry_int_tables_number       1

loop_
  _symmetry_equiv_pos_as_xyz
  'x, y, z'

loop_
  _atom_site_label
  _atom_site_occupancy
  _atom_site_fract_x
  _atom_site_fract_y
  _atom_site_fract_z
  _atom_site_thermal_displace_type
  _atom_site_B_iso_or_equiv
  _atom_site_type_symbol
  Cu1      1.0000 0.50000  0.50000  0.50000  Biso   1.000  Cu
  Cu2      1.0000 0.50000  0.00000  0.00000  Biso   1.000  Cu
  S1       1.0000 0.94199  0.32615  0.53104  Biso   1.000  S
  S2       1.0000 0.05801  0.82615  0.96896  Biso   1.000  S
  S3       1.0000 0.05801  0.67385  0.46896  Biso   1.000  S
  S4       1.0000 0.94199  0.17385  0.03104  Biso   1.000  S
  O1       1.0000 0.80410  0.41920  0.57814  Biso   1.000  O
  O2       1.0000 0.19590  0.91920  0.92186  Biso   1.000  O
  O3       1.0000 0.19590  0.58080  0.42186  Biso   1.000  O
  O4       1.0000 0.80410  0.08080  0.07814  Biso   1.000  O
  O5       1.0000 0.86280  0.21540  0.56252  Biso   1.000  O
  O6       1.0000 0.13720  0.71540  0.93748  Biso   1.000  O
  O7       1.0000 0.13720  0.78460  0.43748  Biso   1.000  O
  O8       1.0000 0.86280  0.28460  0.06252  Biso   1.000  O
  O9       1.0000 0.22470  0.34030  0.53856  Biso   1.000  O
  O10      1.0000 0.77530  0.84030  0.96144  Biso   1.000  O
  O11      1.0000 0.77530  0.65970  0.46144  Biso   1.000  O
  O12      1.0000 0.22470  0.15970  0.03856  Biso   1.000  O
  N1       1.0000 0.62620  0.42040  0.38608  Biso   1.000  N
  N2       1.0000 0.37380  0.92040  0.11392  Biso   1.000  N
  N3       1.0000 0.37380  0.57960  0.61392  Biso   1.000  N
  N4       1.0000 0.62620  0.07960  0.88608  Biso   1.000  N
  N5       1.0000 0.74820  0.34640  0.25090  Biso   1.000  N
  N6       1.0000 0.25180  0.84640  0.24910  Biso   1.000  N
  N7       1.0000 0.25180  0.65360  0.74910  Biso   1.000  N
  N8       1.0000 0.74820  0.15360  0.75090  Biso   1.000  N
  H1       1.0000 0.75370  0.33260  0.18940  Biso   1.000  H
  H2       1.0000 0.24630  0.83260  0.31060  Biso   1.000  H
  H3       1.0000 0.24630  0.66740  0.81060  Biso   1.000  H
  H4       1.0000 0.75370  0.16740  0.68940  Biso   1.000  H
  C1       1.0000 0.58370  0.42100  0.28980  Biso   1.000  C
  C2       1.0000 0.41630  0.92100  0.21020  Biso   1.000  C
  C3       1.0000 0.41630  0.57900  0.71020  Biso   1.000  C
  C4       1.0000 0.58370  0.07900  0.78980  Biso   1.000  C
  C5       1.0000 0.39170  0.49330  0.23080  Biso   1.000  C
  C6       1.0000 0.60830  0.99330  0.26920  Biso   1.000  C
  C7       1.0000 0.60830  0.50670  0.76920  Biso   1.000  C
  C8       1.0000 0.39170  0.00670  0.73080  Biso   1.000  C
  H5       1.0000 0.42810  0.57170  0.24740  Biso   1.000  H
  H6       1.0000 0.57190  0.07170  0.25260  Biso   1.000  H
  H7       1.0000 0.57190  0.42830  0.75260  Biso   1.000  H
  H8       1.0000 0.42810  0.92830  0.74740  Biso   1.000  H
  H9       1.0000 0.21510  0.47630  0.24920  Biso   1.000  H
  H10      1.0000 0.78490  0.97630  0.25080  Biso   1.000  H
  H11      1.0000 0.78490  0.52370  0.75080  Biso   1.000  H
  H12      1.0000 0.21510  0.02370  0.74920  Biso   1.000  H
  C9       1.0000 0.39590  0.47930  0.11980  Biso   1.000  C
  C10      1.0000 0.60410  0.97930  0.38020  Biso   1.000  C
  C11      1.0000 0.60410  0.52070  0.88020  Biso   1.000  C
  C12      1.0000 0.39590  0.02070  0.61980  Biso   1.000  C
  H13      1.0000 0.27240  0.53090  0.08720  Biso   1.000  H
  H14      1.0000 0.72760  0.03090  0.41280  Biso   1.000  H
  H15      1.0000 0.72760  0.46910  0.91280  Biso   1.000  H
  H16      1.0000 0.27240  0.96910  0.58720  Biso   1.000  H
  H17      1.0000 0.34750  0.40320  0.10180  Biso   1.000  H
  H18      1.0000 0.65250  0.90320  0.39820  Biso   1.000  H
  H19      1.0000 0.65250  0.59680  0.89820  Biso   1.000  H
  H20      1.0000 0.34750  0.09680  0.60180  Biso   1.000  H
  H21      1.0000 0.57040  0.49490  0.10080  Biso   1.000  H
  H22      1.0000 0.42960  0.99490  0.39920  Biso   1.000  H
  H23      1.0000 0.42960  0.50510  0.89920  Biso   1.000  H
  H24      1.0000 0.57040  0.00510  0.60080  Biso   1.000  H
  C13      1.0000 0.90570  0.29570  0.32520  Biso   1.000  C
  C14      1.0000 0.09430  0.79570  0.17480  Biso   1.000  C
  C15      1.0000 0.09430  0.70430  0.67480  Biso   1.000  C
  C16      1.0000 0.90570  0.20430  0.82520  Biso   1.000  C
  C17      1.0000 0.82640  0.34290  0.40860  Biso   1.000  C
  C18      1.0000 0.17360  0.84290  0.09140  Biso   1.000  C
  C19      1.0000 0.17360  0.65710  0.59140  Biso   1.000  C
  C20      1.0000 0.82640  0.15710  0.90860  Biso   1.000  C
  C21      1.0000 0.11740  0.21120  0.30880  Biso   1.000  C
  C22      1.0000 0.88260  0.71120  0.19120  Biso   1.000  C
  C23      1.0000 0.88260  0.78880  0.69120  Biso   1.000  C
  C24      1.0000 0.11740  0.28880  0.80880  Biso   1.000  C
  H25      1.0000 0.22470  0.19950  0.36890  Biso   1.000  H
  H26      1.0000 0.77530  0.69950  0.13110  Biso   1.000  H
  H27      1.0000 0.77530  0.80050  0.63110  Biso   1.000  H
  H28      1.0000 0.22470  0.30050  0.86890  Biso   1.000  H
  H29      1.0000 0.22570  0.23890  0.25950  Biso   1.000  H
  H30      1.0000 0.77430  0.73890  0.24050  Biso   1.000  H
  H31      1.0000 0.77430  0.76110  0.74050  Biso   1.000  H
  H32      1.0000 0.22570  0.26110  0.75950  Biso   1.000  H
  H33      1.0000 0.03760  0.14100  0.28750  Biso   1.000  H
  H34      1.0000 0.96240  0.64100  0.21250  Biso   1.000  H
  H35      1.0000 0.96240  0.85900  0.71250  Biso   1.000  H
  H36      1.0000 0.03760  0.35900  0.78750  Biso   1.000  H
