data_image0
_cell_length_a       9.652
_cell_length_b       10.307
_cell_length_c       10.504
_cell_angle_alpha    74.202
_cell_angle_beta     64.136
_cell_angle_gamma    63.704

_symmetry_space_group_name_H-M    "P 1"
_symmetry_int_tables_number       1

loop_
  _symmetry_equiv_pos_as_xyz
  'x, y, z'

loop_
  _atom_site_label
  _atom_site_occupancy
  _atom_site_fract_x
  _atom_site_fract_y
  _atom_site_fract_z
  _atom_site_thermal_displace_type
  _atom_site_B_iso_or_equiv
  _atom_site_type_symbol
  C1       1.0000 0.45210  0.37570  0.25120  Biso   1.000  C
  C2       1.0000 0.54790  0.62430  0.74880  Biso   1.000  C
  C3       1.0000 0.43160  0.29500  0.39590  Biso   1.000  C
  C4       1.0000 0.56840  0.70500  0.60410  Biso   1.000  C
  C5       1.0000 0.32340  0.22140  0.45690  Biso   1.000  C
  C6       1.0000 0.67660  0.77860  0.54310  Biso   1.000  C
  H1       1.0000 0.25920  0.22510  0.40750  Biso   1.000  H
  H2       1.0000 0.74080  0.77490  0.59250  Biso   1.000  H
  C7       1.0000 0.30820  0.14270  0.58910  Biso   1.000  C
  C8       1.0000 0.69180  0.85730  0.41090  Biso   1.000  C
  H3       1.0000 0.23580  0.09080  0.62830  Biso   1.000  H
  H4       1.0000 0.76420  0.90920  0.37170  Biso   1.000  H
  C9       1.0000 0.39700  0.13880  0.66430  Biso   1.000  C
  C10      1.0000 0.60300  0.86120  0.33570  Biso   1.000  C
  H5       1.0000 0.38510  0.08620  0.75550  Biso   1.000  H
  H6       1.0000 0.61490  0.91380  0.24450  Biso   1.000  H
  C11      1.0000 0.50480  0.21400  0.60340  Biso   1.000  C
  C12      1.0000 0.49520  0.78600  0.39660  Biso   1.000  C
  H7       1.0000 0.56650  0.21260  0.65410  Biso   1.000  H
  H8       1.0000 0.43350  0.78740  0.34590  Biso   1.000  H
  C13      1.0000 0.52280  0.29090  0.46990  Biso   1.000  C
  C14      1.0000 0.47720  0.70910  0.53010  Biso   1.000  C
  H9       1.0000 0.59750  0.34050  0.42920  Biso   1.000  H
  H10      1.0000 0.40250  0.65950  0.57080  Biso   1.000  H
  C15      1.0000 0.67060  0.24850  0.91500  Biso   1.000  C
  C16      1.0000 0.32940  0.75150  0.08500  Biso   1.000  C
  C17      1.0000 0.77240  0.09590  0.87820  Biso   1.000  C
  C18      1.0000 0.22760  0.90410  0.12180  Biso   1.000  C
  C19      1.0000 0.70060  0.00940  0.86890  Biso   1.000  C
  C20      1.0000 0.29940  0.99060  0.13110  Biso   1.000  C
  H11      1.0000 0.58500  0.04710  0.88720  Biso   1.000  H
  H12      1.0000 0.41500  0.95290  0.11280  Biso   1.000  H
  C21      1.0000 0.79790  0.86820  0.83300  Biso   1.000  C
  C22      1.0000 0.20210  0.13180  0.16700  Biso   1.000  C
  H13      1.0000 0.74950  0.81010  0.82380  Biso   1.000  H
  H14      1.0000 0.25050  0.18990  0.17620  Biso   1.000  H
  C23      1.0000 0.96410  0.81200  0.81050  Biso   1.000  C
  C24      1.0000 0.03590  0.18800  0.18950  Biso   1.000  C
  H15      1.0000 0.03040  0.71530  0.78560  Biso   1.000  H
  H16      1.0000 0.96960  0.28470  0.21440  Biso   1.000  H
  C25      1.0000 0.03530  0.89550  0.82400  Biso   1.000  C
  C26      1.0000 0.96470  0.10450  0.17600  Biso   1.000  C
  H17      1.0000 0.14980  0.85520  0.81040  Biso   1.000  H
  H18      1.0000 0.85020  0.14480  0.18960  Biso   1.000  H
  C27      1.0000 0.94120  0.03700  0.85700  Biso   1.000  C
  C28      1.0000 0.05880  0.96300  0.14300  Biso   1.000  C
  H19      1.0000 0.99090  0.09430  0.86530  Biso   1.000  H
  H20      1.0000 0.00910  0.90570  0.13470  Biso   1.000  H
  C29      1.0000 0.14800  0.42820  0.90850  Biso   1.000  C
  C30      1.0000 0.85200  0.57180  0.09150  Biso   1.000  C
  H21      1.0000 0.25200  0.37470  0.84260  Biso   1.000  H
  H22      1.0000 0.74800  0.62530  0.15740  Biso   1.000  H
  C31      1.0000 0.00310  0.43800  0.90240  Biso   1.000  C
  C32      1.0000 0.99690  0.56200  0.09760  Biso   1.000  C
  H23      1.0000 0.00970  0.39380  0.83040  Biso   1.000  H
  H24      1.0000 0.99030  0.60620  0.16960  Biso   1.000  H
  Cu1      1.0000 0.37099  0.48813  0.00326  Biso   1.000  Cu
  Cu2      1.0000 0.62901  0.51187  0.99674  Biso   1.000  Cu
  N1       1.0000 0.14450  0.49240  0.00510  Biso   1.000  N
  N2       1.0000 0.85550  0.50760  0.99490  Biso   1.000  N
  O1       1.0000 0.35030  0.39420  0.19670  Biso   1.000  O
  O2       1.0000 0.64970  0.60580  0.80330  Biso   1.000  O
  O3       1.0000 0.57100  0.42000  0.19290  Biso   1.000  O
  O4       1.0000 0.42900  0.58000  0.80710  Biso   1.000  O
  O5       1.0000 0.51890  0.29610  0.93350  Biso   1.000  O
  O6       1.0000 0.48110  0.70390  0.06650  Biso   1.000  O
  O7       1.0000 0.74120  0.31840  0.92860  Biso   1.000  O
  O8       1.0000 0.25880  0.68160  0.07140  Biso   1.000  O
  O9       1.0000 0.15460  0.65400  0.42590  Biso   1.000  O
  O10      1.0000 0.84540  0.34600  0.57410  Biso   1.000  O
  O11      1.0000 0.09660  0.59480  0.53230  Biso   1.000  O
  O12      1.0000 0.90340  0.40520  0.46770  Biso   1.000  O
  O13      1.0000 0.06090  0.00140  0.49540  Biso   1.000  O
  O14      1.0000 0.93910  0.99860  0.50460  Biso   1.000  O
