data_image0
_cell_length_a       23.886
_cell_length_b       11.649
_cell_length_c       18.997
_cell_angle_alpha    90
_cell_angle_beta     126.404
_cell_angle_gamma    90

_symmetry_space_group_name_H-M    "P 1"
_symmetry_int_tables_number       1

loop_
  _symmetry_equiv_pos_as_xyz
  'x, y, z'

loop_
  _atom_site_label
  _atom_site_occupancy
  _atom_site_fract_x
  _atom_site_fract_y
  _atom_site_fract_z
  _atom_site_thermal_displace_type
  _atom_site_B_iso_or_equiv
  _atom_site_type_symbol
  Cu1      1.0000 0.00000  0.00000  0.50000  Biso   1.000  Cu
  Cu2      1.0000 0.00000  0.00000  0.00000  Biso   1.000  Cu
  Cu3      1.0000 0.50000  0.50000  0.50000  Biso   1.000  Cu
  Cu4      1.0000 0.50000  0.50000  0.00000  Biso   1.000  Cu
  N1       1.0000 0.19424  0.06430  0.55920  Biso   1.000  N
  N2       1.0000 0.80576  0.06430  0.94080  Biso   1.000  N
  N3       1.0000 0.69424  0.56430  0.55920  Biso   1.000  N
  N4       1.0000 0.30576  0.56430  0.94080  Biso   1.000  N
  N5       1.0000 0.80576  0.93570  0.44080  Biso   1.000  N
  N6       1.0000 0.19424  0.93570  0.05920  Biso   1.000  N
  N7       1.0000 0.30576  0.43570  0.44080  Biso   1.000  N
  N8       1.0000 0.69424  0.43570  0.05920  Biso   1.000  N
  N9       1.0000 0.15540  0.10200  0.47580  Biso   1.000  N
  N10      1.0000 0.84460  0.10200  0.02420  Biso   1.000  N
  N11      1.0000 0.65540  0.60200  0.47580  Biso   1.000  N
  N12      1.0000 0.34460  0.60200  0.02420  Biso   1.000  N
  N13      1.0000 0.84460  0.89800  0.52420  Biso   1.000  N
  N14      1.0000 0.15540  0.89800  0.97580  Biso   1.000  N
  N15      1.0000 0.34460  0.39800  0.52420  Biso   1.000  N
  N16      1.0000 0.65540  0.39800  0.97580  Biso   1.000  N
  N17      1.0000 0.08770  0.03720  0.51240  Biso   1.000  N
  N18      1.0000 0.91230  0.03720  0.98760  Biso   1.000  N
  N19      1.0000 0.58770  0.53720  0.51240  Biso   1.000  N
  N20      1.0000 0.41230  0.53720  0.98760  Biso   1.000  N
  N21      1.0000 0.91230  0.96280  0.48760  Biso   1.000  N
  N22      1.0000 0.08770  0.96280  0.01240  Biso   1.000  N
  N23      1.0000 0.41230  0.46280  0.48760  Biso   1.000  N
  N24      1.0000 0.58770  0.46280  0.01240  Biso   1.000  N
  N25      1.0000 0.43440  0.83690  0.47250  Biso   1.000  N
  N26      1.0000 0.56560  0.83690  0.02750  Biso   1.000  N
  N27      1.0000 0.93440  0.33690  0.47250  Biso   1.000  N
  N28      1.0000 0.06560  0.33690  0.02750  Biso   1.000  N
  N29      1.0000 0.56560  0.16310  0.52750  Biso   1.000  N
  N30      1.0000 0.43440  0.16310  0.97250  Biso   1.000  N
  N31      1.0000 0.06560  0.66310  0.52750  Biso   1.000  N
  N32      1.0000 0.93440  0.66310  0.97250  Biso   1.000  N
  N33      1.0000 0.49830  0.85080  0.55000  Biso   1.000  N
  N34      1.0000 0.50170  0.85080  0.95000  Biso   1.000  N
  N35      1.0000 0.99830  0.35080  0.55000  Biso   1.000  N
  N36      1.0000 0.00170  0.35080  0.95000  Biso   1.000  N
  N37      1.0000 0.50170  0.14920  0.45000  Biso   1.000  N
  N38      1.0000 0.49830  0.14920  0.05000  Biso   1.000  N
  N39      1.0000 0.00170  0.64920  0.45000  Biso   1.000  N
  N40      1.0000 0.99830  0.64920  0.05000  Biso   1.000  N
  N41      1.0000 0.48330  0.67020  0.50290  Biso   1.000  N
  N42      1.0000 0.51670  0.67020  0.99710  Biso   1.000  N
  N43      1.0000 0.98330  0.17020  0.50290  Biso   1.000  N
  N44      1.0000 0.01670  0.17020  0.99710  Biso   1.000  N
  N45      1.0000 0.51670  0.32980  0.49710  Biso   1.000  N
  N46      1.0000 0.48330  0.32980  0.00290  Biso   1.000  N
  N47      1.0000 0.01670  0.82980  0.49710  Biso   1.000  N
  N48      1.0000 0.98330  0.82980  0.00290  Biso   1.000  N
  N49      1.0000 0.07030  0.99120  0.66100  Biso   1.000  N
  N50      1.0000 0.92970  0.99120  0.83900  Biso   1.000  N
  N51      1.0000 0.57030  0.49120  0.66100  Biso   1.000  N
  N52      1.0000 0.42970  0.49120  0.83900  Biso   1.000  N
  N53      1.0000 0.92970  0.00880  0.33900  Biso   1.000  N
  N54      1.0000 0.07030  0.00880  0.16100  Biso   1.000  N
  N55      1.0000 0.42970  0.50880  0.33900  Biso   1.000  N
  N56      1.0000 0.57030  0.50880  0.16100  Biso   1.000  N
  C1       1.0000 0.30170  0.03610  0.57080  Biso   1.000  C
  C2       1.0000 0.69830  0.03610  0.92920  Biso   1.000  C
  C3       1.0000 0.80170  0.53610  0.57080  Biso   1.000  C
  C4       1.0000 0.19830  0.53610  0.92920  Biso   1.000  C
  C5       1.0000 0.69830  0.96390  0.42920  Biso   1.000  C
  C6       1.0000 0.30170  0.96390  0.07080  Biso   1.000  C
  C7       1.0000 0.19830  0.46390  0.42920  Biso   1.000  C
  C8       1.0000 0.80170  0.46390  0.07080  Biso   1.000  C
  C9       1.0000 0.32560  0.11690  0.54100  Biso   1.000  C
  C10      1.0000 0.67440  0.11690  0.95900  Biso   1.000  C
  C11      1.0000 0.82560  0.61690  0.54100  Biso   1.000  C
  C12      1.0000 0.17440  0.61690  0.95900  Biso   1.000  C
  C13      1.0000 0.67440  0.88310  0.45900  Biso   1.000  C
  C14      1.0000 0.32560  0.88310  0.04100  Biso   1.000  C
  C15      1.0000 0.17440  0.38310  0.45900  Biso   1.000  C
  C16      1.0000 0.82560  0.38310  0.04100  Biso   1.000  C
  H1       1.0000 0.32270  0.19630  0.54990  Biso   1.000  H
  H2       1.0000 0.67730  0.19630  0.95010  Biso   1.000  H
  H3       1.0000 0.82270  0.69630  0.54990  Biso   1.000  H
  H4       1.0000 0.17730  0.69630  0.95010  Biso   1.000  H
  H5       1.0000 0.67730  0.80370  0.45010  Biso   1.000  H
  H6       1.0000 0.32270  0.80370  0.04990  Biso   1.000  H
  H7       1.0000 0.17730  0.30370  0.45010  Biso   1.000  H
  H8       1.0000 0.82270  0.30370  0.04990  Biso   1.000  H
  C17      1.0000 0.35410  0.08240  0.49770  Biso   1.000  C
  C18      1.0000 0.64590  0.08240  0.00230  Biso   1.000  C
  C19      1.0000 0.85410  0.58240  0.49770  Biso   1.000  C
  C20      1.0000 0.14590  0.58240  0.00230  Biso   1.000  C
  C21      1.0000 0.64590  0.91760  0.50230  Biso   1.000  C
  C22      1.0000 0.35410  0.91760  0.99770  Biso   1.000  C
  C23      1.0000 0.14590  0.41760  0.50230  Biso   1.000  C
  C24      1.0000 0.85410  0.41760  0.99770  Biso   1.000  C
  H9       1.0000 0.37100  0.13840  0.47830  Biso   1.000  H
  H10      1.0000 0.62900  0.13840  0.02170  Biso   1.000  H
  H11      1.0000 0.87100  0.63840  0.47830  Biso   1.000  H
  H12      1.0000 0.12900  0.63840  0.02170  Biso   1.000  H
  H13      1.0000 0.62900  0.86160  0.52170  Biso   1.000  H
  H14      1.0000 0.37100  0.86160  0.97830  Biso   1.000  H
  H15      1.0000 0.12900  0.36160  0.52170  Biso   1.000  H
  H16      1.0000 0.87100  0.36160  0.97830  Biso   1.000  H
  C25      1.0000 0.35770  0.96660  0.48300  Biso   1.000  C
  C26      1.0000 0.64230  0.96660  0.01700  Biso   1.000  C
  C27      1.0000 0.85770  0.46660  0.48300  Biso   1.000  C
  C28      1.0000 0.14230  0.46660  0.01700  Biso   1.000  C
  C29      1.0000 0.64230  0.03340  0.51700  Biso   1.000  C
  C30      1.0000 0.35770  0.03340  0.98300  Biso   1.000  C
  C31      1.0000 0.14230  0.53340  0.51700  Biso   1.000  C
  C32      1.0000 0.85770  0.53340  0.98300  Biso   1.000  C
  C33      1.0000 0.33370  0.88680  0.51350  Biso   1.000  C
  C34      1.0000 0.66630  0.88680  0.98650  Biso   1.000  C
  C35      1.0000 0.83370  0.38680  0.51350  Biso   1.000  C
  C36      1.0000 0.16630  0.38680  0.98650  Biso   1.000  C
  C37      1.0000 0.66630  0.11320  0.48650  Biso   1.000  C
  C38      1.0000 0.33370  0.11320  0.01350  Biso   1.000  C
  C39      1.0000 0.16630  0.61320  0.48650  Biso   1.000  C
  C40      1.0000 0.83370  0.61320  0.01350  Biso   1.000  C
  H17      1.0000 0.33620  0.80730  0.50460  Biso   1.000  H
  H18      1.0000 0.66380  0.80730  0.99540  Biso   1.000  H
  H19      1.0000 0.83620  0.30730  0.50460  Biso   1.000  H
  H20      1.0000 0.16380  0.30730  0.99540  Biso   1.000  H
  H21      1.0000 0.66380  0.19270  0.49540  Biso   1.000  H
  H22      1.0000 0.33620  0.19270  0.00460  Biso   1.000  H
  H23      1.0000 0.16380  0.69270  0.49540  Biso   1.000  H
  H24      1.0000 0.83620  0.69270  0.00460  Biso   1.000  H
  C41      1.0000 0.30610  0.92220  0.55710  Biso   1.000  C
  C42      1.0000 0.69390  0.92220  0.94290  Biso   1.000  C
  C43      1.0000 0.80610  0.42220  0.55710  Biso   1.000  C
  C44      1.0000 0.19390  0.42220  0.94290  Biso   1.000  C
  C45      1.0000 0.69390  0.07780  0.44290  Biso   1.000  C
  C46      1.0000 0.30610  0.07780  0.05710  Biso   1.000  C
  C47      1.0000 0.19390  0.57780  0.44290  Biso   1.000  C
  C48      1.0000 0.80610  0.57780  0.05710  Biso   1.000  C
  H25      1.0000 0.29000  0.86630  0.57760  Biso   1.000  H
  H26      1.0000 0.71000  0.86630  0.92240  Biso   1.000  H
  H27      1.0000 0.79000  0.36630  0.57760  Biso   1.000  H
  H28      1.0000 0.21000  0.36630  0.92240  Biso   1.000  H
  H29      1.0000 0.71000  0.13370  0.42240  Biso   1.000  H
  H30      1.0000 0.29000  0.13370  0.07760  Biso   1.000  H
  H31      1.0000 0.21000  0.63370  0.42240  Biso   1.000  H
  H32      1.0000 0.79000  0.63370  0.07760  Biso   1.000  H
  C49      1.0000 0.27040  0.07580  0.61590  Biso   1.000  C
  C50      1.0000 0.72960  0.07580  0.88410  Biso   1.000  C
  C51      1.0000 0.77040  0.57580  0.61590  Biso   1.000  C
  C52      1.0000 0.22960  0.57580  0.88410  Biso   1.000  C
  C53      1.0000 0.72960  0.92420  0.38410  Biso   1.000  C
  C54      1.0000 0.27040  0.92420  0.11590  Biso   1.000  C
  C55      1.0000 0.22960  0.42420  0.38410  Biso   1.000  C
  C56      1.0000 0.77040  0.42420  0.11590  Biso   1.000  C
  H33      1.0000 0.29010  0.03000  0.66970  Biso   1.000  H
  H34      1.0000 0.70990  0.03000  0.83030  Biso   1.000  H
  H35      1.0000 0.79010  0.53000  0.66970  Biso   1.000  H
  H36      1.0000 0.20990  0.53000  0.83030  Biso   1.000  H
  H37      1.0000 0.70990  0.97000  0.33030  Biso   1.000  H
  H38      1.0000 0.29010  0.97000  0.16970  Biso   1.000  H
  H39      1.0000 0.20990  0.47000  0.33030  Biso   1.000  H
  H40      1.0000 0.79010  0.47000  0.16970  Biso   1.000  H
  H41      1.0000 0.28290  0.15720  0.63330  Biso   1.000  H
  H42      1.0000 0.71710  0.15720  0.86670  Biso   1.000  H
  H43      1.0000 0.78290  0.65720  0.63330  Biso   1.000  H
  H44      1.0000 0.21710  0.65720  0.86670  Biso   1.000  H
  H45      1.0000 0.71710  0.84280  0.36670  Biso   1.000  H
  H46      1.0000 0.28290  0.84280  0.13330  Biso   1.000  H
  H47      1.0000 0.21710  0.34280  0.36670  Biso   1.000  H
  H48      1.0000 0.78290  0.34280  0.13330  Biso   1.000  H
  C57      1.0000 0.38410  0.93250  0.43060  Biso   1.000  C
  C58      1.0000 0.61590  0.93250  0.06940  Biso   1.000  C
  C59      1.0000 0.88410  0.43250  0.43060  Biso   1.000  C
  C60      1.0000 0.11590  0.43250  0.06940  Biso   1.000  C
  C61      1.0000 0.61590  0.06750  0.56940  Biso   1.000  C
  C62      1.0000 0.38410  0.06750  0.93060  Biso   1.000  C
  C63      1.0000 0.11590  0.56750  0.56940  Biso   1.000  C
  C64      1.0000 0.88410  0.56750  0.93060  Biso   1.000  C
  H49      1.0000 0.34430  0.90910  0.37110  Biso   1.000  H
  H50      1.0000 0.65570  0.90910  0.12890  Biso   1.000  H
  H51      1.0000 0.84430  0.40910  0.37110  Biso   1.000  H
  H52      1.0000 0.15570  0.40910  0.12890  Biso   1.000  H
  H53      1.0000 0.65570  0.09090  0.62890  Biso   1.000  H
  H54      1.0000 0.34430  0.09090  0.87110  Biso   1.000  H
  H55      1.0000 0.15570  0.59090  0.62890  Biso   1.000  H
  H56      1.0000 0.84430  0.59090  0.87110  Biso   1.000  H
  H57      1.0000 0.40670  0.99940  0.42500  Biso   1.000  H
  H58      1.0000 0.59330  0.99940  0.07500  Biso   1.000  H
  H59      1.0000 0.90670  0.49940  0.42500  Biso   1.000  H
  H60      1.0000 0.09330  0.49940  0.07500  Biso   1.000  H
  H61      1.0000 0.59330  0.00060  0.57500  Biso   1.000  H
  H62      1.0000 0.40670  0.00060  0.92500  Biso   1.000  H
  H63      1.0000 0.09330  0.50060  0.57500  Biso   1.000  H
  H64      1.0000 0.90670  0.50060  0.92500  Biso   1.000  H
  C65      1.0000 0.09120  0.08470  0.44950  Biso   1.000  C
  C66      1.0000 0.90880  0.08470  0.05050  Biso   1.000  C
  C67      1.0000 0.59120  0.58470  0.44950  Biso   1.000  C
  C68      1.0000 0.40880  0.58470  0.05050  Biso   1.000  C
  C69      1.0000 0.90880  0.91530  0.55050  Biso   1.000  C
  C70      1.0000 0.09120  0.91530  0.94950  Biso   1.000  C
  C71      1.0000 0.40880  0.41530  0.55050  Biso   1.000  C
  C72      1.0000 0.59120  0.41530  0.94950  Biso   1.000  C
  H65      1.0000 0.05140  0.10330  0.39250  Biso   1.000  H
  H66      1.0000 0.94860  0.10330  0.10750  Biso   1.000  H
  H67      1.0000 0.55140  0.60330  0.39250  Biso   1.000  H
  H68      1.0000 0.44860  0.60330  0.10750  Biso   1.000  H
  H69      1.0000 0.94860  0.89670  0.60750  Biso   1.000  H
  H70      1.0000 0.05140  0.89670  0.89250  Biso   1.000  H
  H71      1.0000 0.44860  0.39670  0.60750  Biso   1.000  H
  H72      1.0000 0.55140  0.39670  0.89250  Biso   1.000  H
  C73      1.0000 0.15380  0.02640  0.57960  Biso   1.000  C
  C74      1.0000 0.84620  0.02640  0.92040  Biso   1.000  C
  C75      1.0000 0.65380  0.52640  0.57960  Biso   1.000  C
  C76      1.0000 0.34620  0.52640  0.92040  Biso   1.000  C
  C77      1.0000 0.84620  0.97360  0.42040  Biso   1.000  C
  C78      1.0000 0.15380  0.97360  0.07960  Biso   1.000  C
  C79      1.0000 0.34620  0.47360  0.42040  Biso   1.000  C
  C80      1.0000 0.65380  0.47360  0.07960  Biso   1.000  C
  H73      1.0000 0.16970  0.99560  0.63490  Biso   1.000  H
  H74      1.0000 0.83030  0.99560  0.86510  Biso   1.000  H
  H75      1.0000 0.66970  0.49560  0.63490  Biso   1.000  H
  H76      1.0000 0.33030  0.49560  0.86510  Biso   1.000  H
  H77      1.0000 0.83030  0.00440  0.36510  Biso   1.000  H
  H78      1.0000 0.16970  0.00440  0.13490  Biso   1.000  H
  H79      1.0000 0.33030  0.50440  0.36510  Biso   1.000  H
  H80      1.0000 0.66970  0.50440  0.13490  Biso   1.000  H
  C81      1.0000 0.52570  0.74820  0.56490  Biso   1.000  C
  C82      1.0000 0.47430  0.74820  0.93510  Biso   1.000  C
  C83      1.0000 0.02570  0.24820  0.56490  Biso   1.000  C
  C84      1.0000 0.97430  0.24820  0.93510  Biso   1.000  C
  C85      1.0000 0.47430  0.25180  0.43510  Biso   1.000  C
  C86      1.0000 0.52570  0.25180  0.06490  Biso   1.000  C
  C87      1.0000 0.97430  0.75180  0.43510  Biso   1.000  C
  C88      1.0000 0.02570  0.75180  0.06490  Biso   1.000  C
  H81      1.0000 0.57130  0.73030  0.61490  Biso   1.000  H
  H82      1.0000 0.42870  0.73030  0.88510  Biso   1.000  H
  H83      1.0000 0.07130  0.23030  0.61490  Biso   1.000  H
  H84      1.0000 0.92870  0.23030  0.88510  Biso   1.000  H
  H85      1.0000 0.42870  0.26970  0.38510  Biso   1.000  H
  H86      1.0000 0.57130  0.26970  0.11490  Biso   1.000  H
  H87      1.0000 0.92870  0.76970  0.38510  Biso   1.000  H
  H88      1.0000 0.07130  0.76970  0.11490  Biso   1.000  H
  C89      1.0000 0.42660  0.73010  0.44540  Biso   1.000  C
  C90      1.0000 0.57340  0.73010  0.05460  Biso   1.000  C
  C91      1.0000 0.92660  0.23010  0.44540  Biso   1.000  C
  C92      1.0000 0.07340  0.23010  0.05460  Biso   1.000  C
  C93      1.0000 0.57340  0.26990  0.55460  Biso   1.000  C
  C94      1.0000 0.42660  0.26990  0.94540  Biso   1.000  C
  C95      1.0000 0.07340  0.76990  0.55460  Biso   1.000  C
  C96      1.0000 0.92660  0.76990  0.94540  Biso   1.000  C
  H89      1.0000 0.38650  0.70050  0.39260  Biso   1.000  H
  H90      1.0000 0.61350  0.70050  0.10740  Biso   1.000  H
  H91      1.0000 0.88650  0.20050  0.39260  Biso   1.000  H
  H92      1.0000 0.11350  0.20050  0.10740  Biso   1.000  H
  H93      1.0000 0.61350  0.29950  0.60740  Biso   1.000  H
  H94      1.0000 0.38650  0.29950  0.89260  Biso   1.000  H
  H95      1.0000 0.11350  0.79950  0.60740  Biso   1.000  H
  H96      1.0000 0.88650  0.79950  0.89260  Biso   1.000  H
  C97      1.0000 0.11310  0.00090  0.73230  Biso   1.000  C
  C98      1.0000 0.88690  0.00090  0.76770  Biso   1.000  C
  C99      1.0000 0.61310  0.50090  0.73230  Biso   1.000  C
  C100     1.0000 0.38690  0.50090  0.76770  Biso   1.000  C
  C101     1.0000 0.88690  0.99910  0.26770  Biso   1.000  C
  C102     1.0000 0.11310  0.99910  0.23230  Biso   1.000  C
  C103     1.0000 0.38690  0.49910  0.26770  Biso   1.000  C
  C104     1.0000 0.61310  0.49910  0.23230  Biso   1.000  C
  C105     1.0000 0.16970  0.01590  0.82390  Biso   1.000  C
  C106     1.0000 0.83030  0.01590  0.67610  Biso   1.000  C
  C107     1.0000 0.66970  0.51590  0.82390  Biso   1.000  C
  C108     1.0000 0.33030  0.51590  0.67610  Biso   1.000  C
  C109     1.0000 0.83030  0.98410  0.17610  Biso   1.000  C
  C110     1.0000 0.16970  0.98410  0.32390  Biso   1.000  C
  C111     1.0000 0.33030  0.48410  0.17610  Biso   1.000  C
  C112     1.0000 0.66970  0.48410  0.32390  Biso   1.000  C
  H97      1.0000 0.21380  0.02100  0.83100  Biso   1.000  H
  H98      1.0000 0.78620  0.02100  0.66900  Biso   1.000  H
  H99      1.0000 0.71380  0.52100  0.83100  Biso   1.000  H
  H100     1.0000 0.28620  0.52100  0.66900  Biso   1.000  H
  H101     1.0000 0.78620  0.97900  0.16900  Biso   1.000  H
  H102     1.0000 0.21380  0.97900  0.33100  Biso   1.000  H
  H103     1.0000 0.28620  0.47900  0.16900  Biso   1.000  H
  H104     1.0000 0.71380  0.47900  0.33100  Biso   1.000  H
  H105     1.0000 0.17130  0.95030  0.85730  Biso   1.000  H
  H106     1.0000 0.82870  0.95030  0.64270  Biso   1.000  H
  H107     1.0000 0.67130  0.45030  0.85730  Biso   1.000  H
  H108     1.0000 0.32870  0.45030  0.64270  Biso   1.000  H
  H109     1.0000 0.82870  0.04970  0.14270  Biso   1.000  H
  H110     1.0000 0.17130  0.04970  0.35730  Biso   1.000  H
  H111     1.0000 0.32870  0.54970  0.14270  Biso   1.000  H
  H112     1.0000 0.67130  0.54970  0.35730  Biso   1.000  H
  H113     1.0000 0.16250  0.08670  0.84550  Biso   1.000  H
  H114     1.0000 0.83750  0.08670  0.65450  Biso   1.000  H
  H115     1.0000 0.66250  0.58670  0.84550  Biso   1.000  H
  H116     1.0000 0.33750  0.58670  0.65450  Biso   1.000  H
  H117     1.0000 0.83750  0.91330  0.15450  Biso   1.000  H
  H118     1.0000 0.16250  0.91330  0.34550  Biso   1.000  H
  H119     1.0000 0.33750  0.41330  0.15450  Biso   1.000  H
  H120     1.0000 0.66250  0.41330  0.34550  Biso   1.000  H
  B1       1.0000 0.23020  0.29640  0.75520  Biso   1.000  B
  B2       1.0000 0.76980  0.29640  0.74480  Biso   1.000  B
  B3       1.0000 0.73020  0.79640  0.75520  Biso   1.000  B
  B4       1.0000 0.26980  0.79640  0.74480  Biso   1.000  B
  B5       1.0000 0.76980  0.70360  0.24480  Biso   1.000  B
  B6       1.0000 0.23020  0.70360  0.25520  Biso   1.000  B
  B7       1.0000 0.26980  0.20360  0.24480  Biso   1.000  B
  B8       1.0000 0.73020  0.20360  0.25520  Biso   1.000  B
  F1       1.0000 0.26070  0.28850  0.84230  Biso   1.000  F
  F2       1.0000 0.73930  0.28850  0.65770  Biso   1.000  F
  F3       1.0000 0.76070  0.78850  0.84230  Biso   1.000  F
  F4       1.0000 0.23930  0.78850  0.65770  Biso   1.000  F
  F5       1.0000 0.73930  0.71150  0.15770  Biso   1.000  F
  F6       1.0000 0.26070  0.71150  0.34230  Biso   1.000  F
  F7       1.0000 0.23930  0.21150  0.15770  Biso   1.000  F
  F8       1.0000 0.76070  0.21150  0.34230  Biso   1.000  F
  F9       1.0000 0.19680  0.20830  0.70610  Biso   1.000  F
  F10      1.0000 0.80320  0.20830  0.79390  Biso   1.000  F
  F11      1.0000 0.69680  0.70830  0.70610  Biso   1.000  F
  F12      1.0000 0.30320  0.70830  0.79390  Biso   1.000  F
  F13      1.0000 0.80320  0.79170  0.29390  Biso   1.000  F
  F14      1.0000 0.19680  0.79170  0.20610  Biso   1.000  F
  F15      1.0000 0.30320  0.29170  0.29390  Biso   1.000  F
  F16      1.0000 0.69680  0.29170  0.20610  Biso   1.000  F
  F17      1.0000 0.29020  0.29530  0.75160  Biso   1.000  F
  F18      1.0000 0.70980  0.29530  0.74840  Biso   1.000  F
  F19      1.0000 0.79020  0.79530  0.75160  Biso   1.000  F
  F20      1.0000 0.20980  0.79530  0.74840  Biso   1.000  F
  F21      1.0000 0.70980  0.70470  0.24840  Biso   1.000  F
  F22      1.0000 0.29020  0.70470  0.25160  Biso   1.000  F
  F23      1.0000 0.20980  0.20470  0.24840  Biso   1.000  F
  F24      1.0000 0.79020  0.20470  0.25160  Biso   1.000  F
  F25      1.0000 0.19570  0.39180  0.71970  Biso   1.000  F
  F26      1.0000 0.80430  0.39180  0.78030  Biso   1.000  F
  F27      1.0000 0.69570  0.89180  0.71970  Biso   1.000  F
  F28      1.0000 0.30430  0.89180  0.78030  Biso   1.000  F
  F29      1.0000 0.80430  0.60820  0.28030  Biso   1.000  F
  F30      1.0000 0.19570  0.60820  0.21970  Biso   1.000  F
  F31      1.0000 0.30430  0.10820  0.28030  Biso   1.000  F
  F32      1.0000 0.69570  0.10820  0.21970  Biso   1.000  F
  F33      1.0000 0.25400  0.38900  0.74350  Biso   1.000  F
  F34      1.0000 0.74600  0.38900  0.75650  Biso   1.000  F
  F35      1.0000 0.75400  0.88900  0.74350  Biso   1.000  F
  F36      1.0000 0.24600  0.88900  0.75650  Biso   1.000  F
  F37      1.0000 0.74600  0.61100  0.25650  Biso   1.000  F
  F38      1.0000 0.25400  0.61100  0.24350  Biso   1.000  F
  F39      1.0000 0.24600  0.11100  0.25650  Biso   1.000  F
  F40      1.0000 0.75400  0.11100  0.24350  Biso   1.000  F
  F41      1.0000 0.16360  0.35100  0.73830  Biso   1.000  F
  F42      1.0000 0.83640  0.35100  0.76170  Biso   1.000  F
  F43      1.0000 0.66360  0.85100  0.73830  Biso   1.000  F
  F44      1.0000 0.33640  0.85100  0.76170  Biso   1.000  F
  F45      1.0000 0.83640  0.64900  0.26170  Biso   1.000  F
  F46      1.0000 0.16360  0.64900  0.23830  Biso   1.000  F
  F47      1.0000 0.33640  0.14900  0.26170  Biso   1.000  F
  F48      1.0000 0.66360  0.14900  0.23830  Biso   1.000  F
