data_image0
_cell_length_a       11.185
_cell_length_b       10.41
_cell_length_c       7.862
_cell_angle_alpha    97.8
_cell_angle_beta     81.6
_cell_angle_gamma    103.7

_symmetry_space_group_name_H-M    "P 1"
_symmetry_int_tables_number       1

loop_
  _symmetry_equiv_pos_as_xyz
  'x, y, z'

loop_
  _atom_site_label
  _atom_site_occupancy
  _atom_site_fract_x
  _atom_site_fract_y
  _atom_site_fract_z
  _atom_site_thermal_displace_type
  _atom_site_B_iso_or_equiv
  _atom_site_type_symbol
  Cl1      1.0000 0.19350  0.08410  0.32270  Biso   1.000  Cl
  Cl2      1.0000 0.80650  0.91590  0.67730  Biso   1.000  Cl
  Cl3      1.0000 0.10300  0.32300  0.14400  Biso   1.000  Cl
  Cl4      1.0000 0.89700  0.67700  0.85600  Biso   1.000  Cl
  Cu1      1.0000 0.10210  0.11010  0.10360  Biso   1.000  Cu
  Cu2      1.0000 0.89790  0.88990  0.89640  Biso   1.000  Cu
  C1       1.0000 0.13270  0.76510  0.13420  Biso   1.000  C
  C2       1.0000 0.86730  0.23490  0.86580  Biso   1.000  C
  C3       1.0000 0.13820  0.66860  0.24280  Biso   1.000  C
  C4       1.0000 0.86180  0.33140  0.75720  Biso   1.000  C
  C5       1.0000 0.04240  0.63300  0.36350  Biso   1.000  C
  C6       1.0000 0.95760  0.36700  0.63650  Biso   1.000  C
  C7       1.0000 0.94140  0.69130  0.39820  Biso   1.000  C
  C8       1.0000 0.05860  0.30870  0.60180  Biso   1.000  C
  C9       1.0000 0.93730  0.79200  0.28780  Biso   1.000  C
  C10      1.0000 0.06270  0.20800  0.71220  Biso   1.000  C
  C11      1.0000 0.43530  0.03630  0.79560  Biso   1.000  C
  C12      1.0000 0.56470  0.96370  0.20440  Biso   1.000  C
  C13      1.0000 0.48910  0.94120  0.69770  Biso   1.000  C
  C14      1.0000 0.51090  0.05880  0.30230  Biso   1.000  C
  C15      1.0000 0.41850  0.83750  0.59990  Biso   1.000  C
  C16      1.0000 0.58150  0.16250  0.40010  Biso   1.000  C
  C17      1.0000 0.29240  0.82400  0.62210  Biso   1.000  C
  C18      1.0000 0.70760  0.17600  0.37790  Biso   1.000  C
  C19      1.0000 0.24120  0.92160  0.72440  Biso   1.000  C
  C20      1.0000 0.75880  0.07840  0.27560  Biso   1.000  C
  C21      1.0000 0.65430  0.49250  0.16750  Biso   1.000  C
  C22      1.0000 0.34570  0.50750  0.83250  Biso   1.000  C
  C23      1.0000 0.60610  0.58470  0.28060  Biso   1.000  C
  C24      1.0000 0.39390  0.41530  0.71940  Biso   1.000  C
  C25      1.0000 0.47510  0.56490  0.32700  Biso   1.000  C
  C26      1.0000 0.52490  0.43510  0.67300  Biso   1.000  C
  C27      1.0000 0.39280  0.45060  0.25580  Biso   1.000  C
  C28      1.0000 0.60720  0.54940  0.74420  Biso   1.000  C
  C29      1.0000 0.44500  0.35510  0.14540  Biso   1.000  C
  C30      1.0000 0.55500  0.64490  0.85460  Biso   1.000  C
  N1       1.0000 0.03130  0.82200  0.16530  Biso   1.000  N
  N2       1.0000 0.96870  0.17800  0.83470  Biso   1.000  N
  N3       1.0000 0.05020  0.53290  0.46720  Biso   1.000  N
  N4       1.0000 0.94980  0.46710  0.53280  Biso   1.000  N
  N5       1.0000 0.31220  0.02360  0.79870  Biso   1.000  N
  N6       1.0000 0.68780  0.97640  0.20130  Biso   1.000  N
  N7       1.0000 0.48440  0.75100  0.50410  Biso   1.000  N
  N8       1.0000 0.51560  0.24900  0.49590  Biso   1.000  N
  N9       1.0000 0.57180  0.37830  0.10470  Biso   1.000  N
  N10      1.0000 0.42820  0.62170  0.89530  Biso   1.000  N
  N11      1.0000 0.41270  0.65500  0.43650  Biso   1.000  N
  N12      1.0000 0.58730  0.34500  0.56350  Biso   1.000  N
  O1       1.0000 0.02860  0.91680  0.05950  Biso   1.000  O
  O2       1.0000 0.97140  0.08320  0.94050  Biso   1.000  O
  O3       1.0000 0.26250  0.11860  0.88890  Biso   1.000  O
  O4       1.0000 0.73750  0.88140  0.11110  Biso   1.000  O
  O5       1.0000 0.61700  0.29140  0.00440  Biso   1.000  O
  O6       1.0000 0.38300  0.70860  0.99560  Biso   1.000  O
