data_image0
_cell_length_a       12.316
_cell_length_b       9.258
_cell_length_c       17.227
_cell_angle_alpha    90
_cell_angle_beta     104.07
_cell_angle_gamma    90

_symmetry_space_group_name_H-M    "P 1"
_symmetry_int_tables_number       1

loop_
  _symmetry_equiv_pos_as_xyz
  'x, y, z'

loop_
  _atom_site_label
  _atom_site_occupancy
  _atom_site_fract_x
  _atom_site_fract_y
  _atom_site_fract_z
  _atom_site_thermal_displace_type
  _atom_site_B_iso_or_equiv
  _atom_site_type_symbol
  Cu1      1.0000 0.82019  0.76946  0.19415  Biso   1.000  Cu
  Cu2      1.0000 0.32019  0.23054  0.69415  Biso   1.000  Cu
  Cu3      1.0000 0.17981  0.23054  0.80585  Biso   1.000  Cu
  Cu4      1.0000 0.67981  0.76946  0.30585  Biso   1.000  Cu
  Cu5      1.0000 0.67178  0.66494  0.99915  Biso   1.000  Cu
  Cu6      1.0000 0.17178  0.33506  0.49915  Biso   1.000  Cu
  Cu7      1.0000 0.32822  0.33506  0.00085  Biso   1.000  Cu
  Cu8      1.0000 0.82822  0.66494  0.50085  Biso   1.000  Cu
  O1       1.0000 0.59310  0.58530  0.07910  Biso   1.000  O
  O2       1.0000 0.09310  0.41470  0.57910  Biso   1.000  O
  O3       1.0000 0.40690  0.41470  0.92090  Biso   1.000  O
  O4       1.0000 0.90690  0.58530  0.42090  Biso   1.000  O
  O5       1.0000 0.66290  0.80360  0.19281  Biso   1.000  O
  O6       1.0000 0.16290  0.19640  0.69281  Biso   1.000  O
  O7       1.0000 0.33710  0.19640  0.80719  Biso   1.000  O
  O8       1.0000 0.83710  0.80360  0.30719  Biso   1.000  O
  O9       1.0000 0.79370  0.73370  0.08150  Biso   1.000  O
  O10      1.0000 0.29370  0.26630  0.58150  Biso   1.000  O
  O11      1.0000 0.20630  0.26630  0.91850  Biso   1.000  O
  O12      1.0000 0.70630  0.73370  0.41850  Biso   1.000  O
  O13      1.0000 0.44670  0.43680  0.07881  Biso   1.000  O
  O14      1.0000 0.94670  0.56320  0.57881  Biso   1.000  O
  O15      1.0000 0.55330  0.56320  0.92119  Biso   1.000  O
  O16      1.0000 0.05330  0.43680  0.42119  Biso   1.000  O
  O17      1.0000 0.57820  0.87220  0.98440  Biso   1.000  O
  O18      1.0000 0.07820  0.12780  0.48440  Biso   1.000  O
  O19      1.0000 0.42180  0.12780  0.01560  Biso   1.000  O
  O20      1.0000 0.92180  0.87220  0.51560  Biso   1.000  O
  O21      1.0000 0.81830  0.49150  0.20440  Biso   1.000  O
  O22      1.0000 0.31830  0.50850  0.70440  Biso   1.000  O
  O23      1.0000 0.18170  0.50850  0.79560  Biso   1.000  O
  O24      1.0000 0.68170  0.49150  0.29560  Biso   1.000  O
  O25      1.0000 0.59730  0.08310  0.15400  Biso   1.000  O
  O26      1.0000 0.09730  0.91690  0.65400  Biso   1.000  O
  O27      1.0000 0.40270  0.91690  0.84600  Biso   1.000  O
  O28      1.0000 0.90270  0.08310  0.34600  Biso   1.000  O
  O29      1.0000 0.98470  0.29070  0.23280  Biso   1.000  O
  O30      1.0000 0.48470  0.70930  0.73280  Biso   1.000  O
  O31      1.0000 0.01530  0.70930  0.76720  Biso   1.000  O
  O32      1.0000 0.51530  0.29070  0.26720  Biso   1.000  O
  N1       1.0000 0.98390  0.77970  0.19350  Biso   1.000  N
  N2       1.0000 0.48390  0.22030  0.69350  Biso   1.000  N
  N3       1.0000 0.01610  0.22030  0.80650  Biso   1.000  N
  N4       1.0000 0.51610  0.77970  0.30650  Biso   1.000  N
  N5       1.0000 0.76940  0.69280  0.92320  Biso   1.000  N
  N6       1.0000 0.26940  0.30720  0.42320  Biso   1.000  N
  N7       1.0000 0.23060  0.30720  0.07680  Biso   1.000  N
  N8       1.0000 0.73060  0.69280  0.57680  Biso   1.000  N
  C1       1.0000 0.51180  0.50770  0.04630  Biso   1.000  C
  C2       1.0000 0.01180  0.49230  0.54630  Biso   1.000  C
  C3       1.0000 0.48820  0.49230  0.95370  Biso   1.000  C
  C4       1.0000 0.98820  0.50770  0.45370  Biso   1.000  C
  C5       1.0000 0.99070  0.69490  0.11770  Biso   1.000  C
  C6       1.0000 0.49070  0.30510  0.61770  Biso   1.000  C
  C7       1.0000 0.00930  0.30510  0.88230  Biso   1.000  C
  C8       1.0000 0.50930  0.69490  0.38230  Biso   1.000  C
  H1       1.0000 0.99010  0.59160  0.12690  Biso   1.000  H
  H2       1.0000 0.49010  0.40840  0.62690  Biso   1.000  H
  H3       1.0000 0.00990  0.40840  0.87310  Biso   1.000  H
  H4       1.0000 0.50990  0.59160  0.37310  Biso   1.000  H
  H5       1.0000 0.05770  0.72000  0.10060  Biso   1.000  H
  H6       1.0000 0.55770  0.28000  0.60060  Biso   1.000  H
  H7       1.0000 0.94230  0.28000  0.89940  Biso   1.000  H
  H8       1.0000 0.44230  0.72000  0.39940  Biso   1.000  H
  C9       1.0000 0.88000  0.74500  0.05320  Biso   1.000  C
  C10      1.0000 0.38000  0.25500  0.55320  Biso   1.000  C
  C11      1.0000 0.12000  0.25500  0.94680  Biso   1.000  C
  C12      1.0000 0.62000  0.74500  0.44680  Biso   1.000  C
  H9       1.0000 0.88950  0.84750  0.04190  Biso   1.000  H
  H10      1.0000 0.38950  0.15250  0.54190  Biso   1.000  H
  H11      1.0000 0.11050  0.15250  0.95810  Biso   1.000  H
  H12      1.0000 0.61050  0.84750  0.45810  Biso   1.000  H
  C13      1.0000 0.88410  0.66010  0.97740  Biso   1.000  C
  C14      1.0000 0.38410  0.33990  0.47740  Biso   1.000  C
  C15      1.0000 0.11590  0.33990  0.02260  Biso   1.000  C
  C16      1.0000 0.61590  0.66010  0.52260  Biso   1.000  C
  H13      1.0000 0.94370  0.69420  0.95420  Biso   1.000  H
  H14      1.0000 0.44370  0.30580  0.45420  Biso   1.000  H
  H15      1.0000 0.05630  0.30580  0.04580  Biso   1.000  H
  H16      1.0000 0.55630  0.69420  0.54580  Biso   1.000  H
  H17      1.0000 0.89360  0.55750  0.98830  Biso   1.000  H
  H18      1.0000 0.39360  0.44250  0.48830  Biso   1.000  H
  H19      1.0000 0.10640  0.44250  0.01170  Biso   1.000  H
  H20      1.0000 0.60640  0.55750  0.51170  Biso   1.000  H
  C17      1.0000 0.05810  0.70200  0.25630  Biso   1.000  C
  C18      1.0000 0.55810  0.29800  0.75630  Biso   1.000  C
  C19      1.0000 0.94190  0.29800  0.74370  Biso   1.000  C
  C20      1.0000 0.44190  0.70200  0.24370  Biso   1.000  C
  H21      1.0000 0.03580  0.60270  0.25460  Biso   1.000  H
  H22      1.0000 0.53580  0.39730  0.75460  Biso   1.000  H
  H23      1.0000 0.96420  0.39730  0.74540  Biso   1.000  H
  H24      1.0000 0.46420  0.60270  0.24540  Biso   1.000  H
  H25      1.0000 0.05530  0.74310  0.30700  Biso   1.000  H
  H26      1.0000 0.55530  0.25690  0.80700  Biso   1.000  H
  H27      1.0000 0.94470  0.25690  0.69300  Biso   1.000  H
  H28      1.0000 0.44470  0.74310  0.19300  Biso   1.000  H
  H29      1.0000 0.13310  0.70880  0.24960  Biso   1.000  H
  H30      1.0000 0.63310  0.29120  0.74960  Biso   1.000  H
  H31      1.0000 0.86690  0.29120  0.75040  Biso   1.000  H
  H32      1.0000 0.36690  0.70880  0.25040  Biso   1.000  H
  C21      1.0000 0.01310  0.93000  0.19390  Biso   1.000  C
  C22      1.0000 0.51310  0.07000  0.69390  Biso   1.000  C
  C23      1.0000 0.98690  0.07000  0.80610  Biso   1.000  C
  C24      1.0000 0.48690  0.93000  0.30610  Biso   1.000  C
  H33      1.0000 0.94850  0.98500  0.16770  Biso   1.000  H
  H34      1.0000 0.44850  0.01500  0.66770  Biso   1.000  H
  H35      1.0000 0.05150  0.01500  0.83230  Biso   1.000  H
  H36      1.0000 0.55150  0.98500  0.33230  Biso   1.000  H
  H37      1.0000 0.07120  0.94290  0.16610  Biso   1.000  H
  H38      1.0000 0.57120  0.05710  0.66610  Biso   1.000  H
  H39      1.0000 0.92880  0.05710  0.83390  Biso   1.000  H
  H40      1.0000 0.42880  0.94290  0.33390  Biso   1.000  H
  H41      1.0000 0.03920  0.96270  0.24810  Biso   1.000  H
  H42      1.0000 0.53920  0.03730  0.74810  Biso   1.000  H
  H43      1.0000 0.96080  0.03730  0.75190  Biso   1.000  H
  H44      1.0000 0.46080  0.96270  0.25190  Biso   1.000  H
  C25      1.0000 0.75740  0.56890  0.86240  Biso   1.000  C
  C26      1.0000 0.25740  0.43110  0.36240  Biso   1.000  C
  C27      1.0000 0.24260  0.43110  0.13760  Biso   1.000  C
  C28      1.0000 0.74260  0.56890  0.63760  Biso   1.000  C
  H45      1.0000 0.75930  0.47810  0.88960  Biso   1.000  H
  H46      1.0000 0.25930  0.52190  0.38960  Biso   1.000  H
  H47      1.0000 0.24070  0.52190  0.11040  Biso   1.000  H
  H48      1.0000 0.74070  0.47810  0.61040  Biso   1.000  H
  H49      1.0000 0.81800  0.57280  0.83630  Biso   1.000  H
  H50      1.0000 0.31800  0.42720  0.33630  Biso   1.000  H
  H51      1.0000 0.18200  0.42720  0.16370  Biso   1.000  H
  H52      1.0000 0.68200  0.57280  0.66370  Biso   1.000  H
  H53      1.0000 0.68760  0.57820  0.82320  Biso   1.000  H
  H54      1.0000 0.18760  0.42180  0.32320  Biso   1.000  H
  H55      1.0000 0.31240  0.42180  0.17680  Biso   1.000  H
  H56      1.0000 0.81240  0.57820  0.67680  Biso   1.000  H
  C29      1.0000 0.77440  0.82200  0.89340  Biso   1.000  C
  C30      1.0000 0.27440  0.17800  0.39340  Biso   1.000  C
  C31      1.0000 0.22560  0.17800  0.10660  Biso   1.000  C
  C32      1.0000 0.72560  0.82200  0.60660  Biso   1.000  C
  H57      1.0000 0.70270  0.84670  0.85950  Biso   1.000  H
  H58      1.0000 0.20270  0.15330  0.35950  Biso   1.000  H
  H59      1.0000 0.29730  0.15330  0.14050  Biso   1.000  H
  H60      1.0000 0.79730  0.84670  0.64050  Biso   1.000  H
  H61      1.0000 0.82970  0.82290  0.86260  Biso   1.000  H
  H62      1.0000 0.32970  0.17710  0.36260  Biso   1.000  H
  H63      1.0000 0.17030  0.17710  0.13740  Biso   1.000  H
  H64      1.0000 0.67030  0.82290  0.63740  Biso   1.000  H
  H65      1.0000 0.79430  0.89090  0.93610  Biso   1.000  H
  H66      1.0000 0.29430  0.10910  0.43610  Biso   1.000  H
  H67      1.0000 0.20570  0.10910  0.06390  Biso   1.000  H
  H68      1.0000 0.70570  0.89090  0.56390  Biso   1.000  H
  C33      1.0000 0.98160  0.82100  0.11020  Biso   1.000  C
  C34      1.0000 0.48160  0.17900  0.61020  Biso   1.000  C
  C35      1.0000 0.01840  0.17900  0.88980  Biso   1.000  C
  C36      1.0000 0.51840  0.82100  0.38980  Biso   1.000  C
  H69      1.0000 0.97210  0.92430  0.10430  Biso   1.000  H
  H70      1.0000 0.47210  0.07570  0.60430  Biso   1.000  H
  H71      1.0000 0.02790  0.07570  0.89570  Biso   1.000  H
  H72      1.0000 0.52790  0.92430  0.39570  Biso   1.000  H
  H73      1.0000 0.05290  0.79580  0.09910  Biso   1.000  H
  H74      1.0000 0.55290  0.20420  0.59910  Biso   1.000  H
  H75      1.0000 0.94710  0.20420  0.90090  Biso   1.000  H
  H76      1.0000 0.44710  0.79580  0.40090  Biso   1.000  H
  C37      1.0000 0.89800  0.75400  0.05570  Biso   1.000  C
  C38      1.0000 0.39800  0.24600  0.55570  Biso   1.000  C
  C39      1.0000 0.10200  0.24600  0.94430  Biso   1.000  C
  C40      1.0000 0.60200  0.75400  0.44430  Biso   1.000  C
  H77      1.0000 0.92620  0.65440  0.05730  Biso   1.000  H
  H78      1.0000 0.42620  0.34560  0.55730  Biso   1.000  H
  H79      1.0000 0.07380  0.34560  0.94270  Biso   1.000  H
  H80      1.0000 0.57380  0.65440  0.44270  Biso   1.000  H
  C41      1.0000 0.86470  0.77900  0.97470  Biso   1.000  C
  C42      1.0000 0.36470  0.22100  0.47470  Biso   1.000  C
  C43      1.0000 0.13530  0.22100  0.02530  Biso   1.000  C
  C44      1.0000 0.63530  0.77900  0.52530  Biso   1.000  C
  H81      1.0000 0.92960  0.76430  0.95310  Biso   1.000  H
  H82      1.0000 0.42960  0.23570  0.45310  Biso   1.000  H
  H83      1.0000 0.07040  0.23570  0.04690  Biso   1.000  H
  H84      1.0000 0.57040  0.76430  0.54690  Biso   1.000  H
  H85      1.0000 0.84480  0.88000  0.96750  Biso   1.000  H
  H86      1.0000 0.34480  0.12000  0.46750  Biso   1.000  H
  H87      1.0000 0.15520  0.12000  0.03250  Biso   1.000  H
  H88      1.0000 0.65520  0.88000  0.53250  Biso   1.000  H
  C45      1.0000 0.05100  0.65500  0.21590  Biso   1.000  C
  C46      1.0000 0.55100  0.34500  0.71590  Biso   1.000  C
  C47      1.0000 0.94900  0.34500  0.78410  Biso   1.000  C
  C48      1.0000 0.44900  0.65500  0.28410  Biso   1.000  C
  H89      1.0000 0.05280  0.63050  0.27030  Biso   1.000  H
  H90      1.0000 0.55280  0.36950  0.77030  Biso   1.000  H
  H91      1.0000 0.94720  0.36950  0.72970  Biso   1.000  H
  H92      1.0000 0.44720  0.63050  0.22970  Biso   1.000  H
  H93      1.0000 0.12600  0.67510  0.21130  Biso   1.000  H
  H94      1.0000 0.62600  0.32490  0.71130  Biso   1.000  H
  H95      1.0000 0.87400  0.32490  0.78870  Biso   1.000  H
  H96      1.0000 0.37400  0.67510  0.28870  Biso   1.000  H
  H97      1.0000 0.02060  0.57660  0.18130  Biso   1.000  H
  H98      1.0000 0.52060  0.42340  0.68130  Biso   1.000  H
  H99      1.0000 0.97940  0.42340  0.81870  Biso   1.000  H
  H100     1.0000 0.47940  0.57660  0.31870  Biso   1.000  H
  C49      1.0000 0.04600  0.90600  0.23830  Biso   1.000  C
  C50      1.0000 0.54600  0.09400  0.73830  Biso   1.000  C
  C51      1.0000 0.95400  0.09400  0.76170  Biso   1.000  C
  C52      1.0000 0.45400  0.90600  0.26170  Biso   1.000  C
  H101     1.0000 0.05130  0.89560  0.29450  Biso   1.000  H
  H102     1.0000 0.55130  0.10440  0.79450  Biso   1.000  H
  H103     1.0000 0.94870  0.10440  0.70550  Biso   1.000  H
  H104     1.0000 0.44870  0.89560  0.20550  Biso   1.000  H
  H105     1.0000 0.00740  0.99420  0.21940  Biso   1.000  H
  H106     1.0000 0.50740  0.00580  0.71940  Biso   1.000  H
  H107     1.0000 0.99260  0.00580  0.78060  Biso   1.000  H
  H108     1.0000 0.49260  0.99420  0.28060  Biso   1.000  H
  H109     1.0000 0.12050  0.91020  0.22960  Biso   1.000  H
  H110     1.0000 0.62050  0.08980  0.72960  Biso   1.000  H
  H111     1.0000 0.87950  0.08980  0.77040  Biso   1.000  H
  H112     1.0000 0.37950  0.91020  0.27040  Biso   1.000  H
  C53      1.0000 0.79800  0.59400  0.88070  Biso   1.000  C
  C54      1.0000 0.29800  0.40600  0.38070  Biso   1.000  C
  C55      1.0000 0.20200  0.40600  0.11930  Biso   1.000  C
  C56      1.0000 0.70200  0.59400  0.61930  Biso   1.000  C
  H113     1.0000 0.73250  0.54740  0.84930  Biso   1.000  H
  H114     1.0000 0.23250  0.45260  0.34930  Biso   1.000  H
  H115     1.0000 0.26750  0.45260  0.15070  Biso   1.000  H
  H116     1.0000 0.76750  0.54740  0.65070  Biso   1.000  H
  H117     1.0000 0.84430  0.52470  0.91480  Biso   1.000  H
  H118     1.0000 0.34430  0.47530  0.41480  Biso   1.000  H
  H119     1.0000 0.15570  0.47530  0.08520  Biso   1.000  H
  H120     1.0000 0.65570  0.52470  0.58520  Biso   1.000  H
  H121     1.0000 0.83940  0.63650  0.84570  Biso   1.000  H
  H122     1.0000 0.33940  0.36350  0.34570  Biso   1.000  H
  H123     1.0000 0.16060  0.36350  0.15430  Biso   1.000  H
  H124     1.0000 0.66060  0.63650  0.65430  Biso   1.000  H
  C57      1.0000 0.72150  0.82200  0.86320  Biso   1.000  C
  C58      1.0000 0.22150  0.17800  0.36320  Biso   1.000  C
  C59      1.0000 0.27850  0.17800  0.13680  Biso   1.000  C
  C60      1.0000 0.77850  0.82200  0.63680  Biso   1.000  C
  H125     1.0000 0.71030  0.90580  0.89330  Biso   1.000  H
  H126     1.0000 0.21030  0.09420  0.39330  Biso   1.000  H
  H127     1.0000 0.28970  0.09420  0.10670  Biso   1.000  H
  H128     1.0000 0.78970  0.90580  0.60670  Biso   1.000  H
  H129     1.0000 0.65150  0.79380  0.82830  Biso   1.000  H
  H130     1.0000 0.15150  0.20620  0.32830  Biso   1.000  H
  H131     1.0000 0.34850  0.20620  0.17170  Biso   1.000  H
  H132     1.0000 0.84850  0.79380  0.67170  Biso   1.000  H
  H133     1.0000 0.77400  0.84470  0.83180  Biso   1.000  H
  H134     1.0000 0.27400  0.15530  0.33180  Biso   1.000  H
  H135     1.0000 0.22600  0.15530  0.16820  Biso   1.000  H
  H136     1.0000 0.72600  0.84470  0.66820  Biso   1.000  H
  Cl1      1.0000 0.76760  0.23250  0.01523  Biso   1.000  Cl
  Cl2      1.0000 0.26760  0.76750  0.51523  Biso   1.000  Cl
  Cl3      1.0000 0.23240  0.76750  0.98477  Biso   1.000  Cl
  Cl4      1.0000 0.73240  0.23250  0.48477  Biso   1.000  Cl
  O33      1.0000 0.78880  0.18900  0.93980  Biso   1.000  O
  O34      1.0000 0.28880  0.81100  0.43980  Biso   1.000  O
  O35      1.0000 0.21120  0.81100  0.06020  Biso   1.000  O
  O36      1.0000 0.71120  0.18900  0.56020  Biso   1.000  O
  O37      1.0000 0.80830  0.37470  0.03130  Biso   1.000  O
  O38      1.0000 0.30830  0.62530  0.53130  Biso   1.000  O
  O39      1.0000 0.19170  0.62530  0.96870  Biso   1.000  O
  O40      1.0000 0.69170  0.37470  0.46870  Biso   1.000  O
  O41      1.0000 0.65400  0.22120  0.00660  Biso   1.000  O
  O42      1.0000 0.15400  0.77880  0.50660  Biso   1.000  O
  O43      1.0000 0.34600  0.77880  0.99340  Biso   1.000  O
  O44      1.0000 0.84600  0.22120  0.49340  Biso   1.000  O
  O45      1.0000 0.83030  0.13750  0.07320  Biso   1.000  O
  O46      1.0000 0.33030  0.86250  0.57320  Biso   1.000  O
  O47      1.0000 0.16970  0.86250  0.92680  Biso   1.000  O
  O48      1.0000 0.66970  0.13750  0.42680  Biso   1.000  O
  O49      1.0000 0.73440  0.21620  0.93170  Biso   1.000  O
  O50      1.0000 0.23440  0.78380  0.43170  Biso   1.000  O
  O51      1.0000 0.26560  0.78380  0.06830  Biso   1.000  O
  O52      1.0000 0.76560  0.21620  0.56830  Biso   1.000  O
  O53      1.0000 0.88200  0.27700  0.03740  Biso   1.000  O
  O54      1.0000 0.38200  0.72300  0.53740  Biso   1.000  O
  O55      1.0000 0.11800  0.72300  0.96260  Biso   1.000  O
  O56      1.0000 0.61800  0.27700  0.46260  Biso   1.000  O
  O57      1.0000 0.70600  0.33870  0.04210  Biso   1.000  O
  O58      1.0000 0.20600  0.66130  0.54210  Biso   1.000  O
  O59      1.0000 0.29400  0.66130  0.95790  Biso   1.000  O
  O60      1.0000 0.79400  0.33870  0.45790  Biso   1.000  O
  O61      1.0000 0.75940  0.09710  0.05200  Biso   1.000  O
  O62      1.0000 0.25940  0.90290  0.55200  Biso   1.000  O
  O63      1.0000 0.24060  0.90290  0.94800  Biso   1.000  O
  O64      1.0000 0.74060  0.09710  0.44800  Biso   1.000  O
