data_image0
_cell_length_a       15.616
_cell_length_b       15.459
_cell_length_c       8.066
_cell_angle_alpha    90
_cell_angle_beta     90
_cell_angle_gamma    90

_symmetry_space_group_name_H-M    "P 1"
_symmetry_int_tables_number       1

loop_
  _symmetry_equiv_pos_as_xyz
  'x, y, z'

loop_
  _atom_site_label
  _atom_site_occupancy
  _atom_site_fract_x
  _atom_site_fract_y
  _atom_site_fract_z
  _atom_site_thermal_displace_type
  _atom_site_B_iso_or_equiv
  _atom_site_type_symbol
  Cu1      1.0000 0.30909  0.25000  0.11567  Biso   1.000  Cu
  Cu2      1.0000 0.80909  0.75000  0.11567  Biso   1.000  Cu
  Cu3      1.0000 0.69091  0.25000  0.11567  Biso   1.000  Cu
  Cu4      1.0000 0.30909  0.75000  0.88433  Biso   1.000  Cu
  Cu5      1.0000 0.19091  0.75000  0.11567  Biso   1.000  Cu
  Cu6      1.0000 0.80909  0.25000  0.88433  Biso   1.000  Cu
  Cu7      1.0000 0.69091  0.75000  0.88433  Biso   1.000  Cu
  Cu8      1.0000 0.19091  0.25000  0.88433  Biso   1.000  Cu
  N1       1.0000 0.42140  0.25000  0.28260  Biso   1.000  N
  N2       1.0000 0.92140  0.75000  0.28260  Biso   1.000  N
  N3       1.0000 0.57860  0.25000  0.28260  Biso   1.000  N
  N4       1.0000 0.42140  0.75000  0.71740  Biso   1.000  N
  N5       1.0000 0.07860  0.75000  0.28260  Biso   1.000  N
  N6       1.0000 0.92140  0.25000  0.71740  Biso   1.000  N
  N7       1.0000 0.57860  0.75000  0.71740  Biso   1.000  N
  N8       1.0000 0.07860  0.25000  0.71740  Biso   1.000  N
  N9       1.0000 0.50000  0.32880  0.49840  Biso   1.000  N
  N10      1.0000 0.00000  0.82880  0.49840  Biso   1.000  N
  N11      1.0000 0.50000  0.17120  0.49840  Biso   1.000  N
  N12      1.0000 0.50000  0.67120  0.50160  Biso   1.000  N
  N13      1.0000 0.00000  0.67120  0.49840  Biso   1.000  N
  N14      1.0000 0.00000  0.17120  0.50160  Biso   1.000  N
  N15      1.0000 0.50000  0.82880  0.50160  Biso   1.000  N
  N16      1.0000 0.00000  0.32880  0.50160  Biso   1.000  N
  C1       1.0000 0.50000  0.25000  0.59930  Biso   1.000  C
  C2       1.0000 0.00000  0.75000  0.59930  Biso   1.000  C
  C3       1.0000 0.50000  0.75000  0.40070  Biso   1.000  C
  C4       1.0000 0.00000  0.25000  0.40070  Biso   1.000  C
  C5       1.0000 0.50000  0.25000  0.18040  Biso   1.000  C
  C6       1.0000 0.00000  0.75000  0.18040  Biso   1.000  C
  C7       1.0000 0.50000  0.75000  0.81960  Biso   1.000  C
  C8       1.0000 0.00000  0.25000  0.81960  Biso   1.000  C
  C9       1.0000 0.42380  0.32750  0.39180  Biso   1.000  C
  C10      1.0000 0.92380  0.82750  0.39180  Biso   1.000  C
  C11      1.0000 0.57620  0.17250  0.39180  Biso   1.000  C
  C12      1.0000 0.42380  0.67250  0.60820  Biso   1.000  C
  C13      1.0000 0.07620  0.67250  0.39180  Biso   1.000  C
  C14      1.0000 0.92380  0.17250  0.60820  Biso   1.000  C
  C15      1.0000 0.57620  0.82750  0.60820  Biso   1.000  C
  C16      1.0000 0.07620  0.32750  0.60820  Biso   1.000  C
  C17      1.0000 0.57620  0.67250  0.60820  Biso   1.000  C
  C18      1.0000 0.07620  0.17250  0.60820  Biso   1.000  C
  C19      1.0000 0.42380  0.82750  0.60820  Biso   1.000  C
  C20      1.0000 0.57620  0.32750  0.39180  Biso   1.000  C
  C21      1.0000 0.92380  0.32750  0.60820  Biso   1.000  C
  C22      1.0000 0.07620  0.82750  0.39180  Biso   1.000  C
  C23      1.0000 0.42380  0.17250  0.39180  Biso   1.000  C
  C24      1.0000 0.92380  0.67250  0.39180  Biso   1.000  C
  C25      1.0000 0.17540  0.12930  0.15670  Biso   1.000  C
  C26      1.0000 0.67540  0.62930  0.15670  Biso   1.000  C
  C27      1.0000 0.82460  0.37070  0.15670  Biso   1.000  C
  C28      1.0000 0.17540  0.87070  0.84330  Biso   1.000  C
  C29      1.0000 0.32460  0.87070  0.15670  Biso   1.000  C
  C30      1.0000 0.67540  0.37070  0.84330  Biso   1.000  C
  C31      1.0000 0.82460  0.62930  0.84330  Biso   1.000  C
  C32      1.0000 0.32460  0.12930  0.84330  Biso   1.000  C
  C33      1.0000 0.82460  0.87070  0.84330  Biso   1.000  C
  C34      1.0000 0.32460  0.37070  0.84330  Biso   1.000  C
  C35      1.0000 0.17540  0.62930  0.84330  Biso   1.000  C
  C36      1.0000 0.82460  0.12930  0.15670  Biso   1.000  C
  C37      1.0000 0.67540  0.12930  0.84330  Biso   1.000  C
  C38      1.0000 0.32460  0.62930  0.15670  Biso   1.000  C
  C39      1.0000 0.17540  0.37070  0.15670  Biso   1.000  C
  C40      1.0000 0.67540  0.87070  0.15670  Biso   1.000  C
  C41      1.0000 0.13430  0.05100  0.23450  Biso   1.000  C
  C42      1.0000 0.63430  0.55100  0.23450  Biso   1.000  C
  C43      1.0000 0.86570  0.44900  0.23450  Biso   1.000  C
  C44      1.0000 0.13430  0.94900  0.76550  Biso   1.000  C
  C45      1.0000 0.36570  0.94900  0.23450  Biso   1.000  C
  C46      1.0000 0.63430  0.44900  0.76550  Biso   1.000  C
  C47      1.0000 0.86570  0.55100  0.76550  Biso   1.000  C
  C48      1.0000 0.36570  0.05100  0.76550  Biso   1.000  C
  C49      1.0000 0.86570  0.94900  0.76550  Biso   1.000  C
  C50      1.0000 0.36570  0.44900  0.76550  Biso   1.000  C
  C51      1.0000 0.13430  0.55100  0.76550  Biso   1.000  C
  C52      1.0000 0.86570  0.05100  0.23450  Biso   1.000  C
  C53      1.0000 0.63430  0.05100  0.76550  Biso   1.000  C
  C54      1.0000 0.36570  0.55100  0.23450  Biso   1.000  C
  C55      1.0000 0.13430  0.44900  0.23450  Biso   1.000  C
  C56      1.0000 0.63430  0.94900  0.23450  Biso   1.000  C
  O1       1.0000 0.24090  0.15960  0.22560  Biso   1.000  O
  O2       1.0000 0.74090  0.65960  0.22560  Biso   1.000  O
  O3       1.0000 0.75910  0.34040  0.22560  Biso   1.000  O
  O4       1.0000 0.24090  0.84040  0.77440  Biso   1.000  O
  O5       1.0000 0.25910  0.84040  0.22560  Biso   1.000  O
  O6       1.0000 0.74090  0.34040  0.77440  Biso   1.000  O
  O7       1.0000 0.75910  0.65960  0.77440  Biso   1.000  O
  O8       1.0000 0.25910  0.15960  0.77440  Biso   1.000  O
  O9       1.0000 0.75910  0.84040  0.77440  Biso   1.000  O
  O10      1.0000 0.25910  0.34040  0.77440  Biso   1.000  O
  O11      1.0000 0.24090  0.65960  0.77440  Biso   1.000  O
  O12      1.0000 0.75910  0.15960  0.22560  Biso   1.000  O
  O13      1.0000 0.74090  0.15960  0.77440  Biso   1.000  O
  O14      1.0000 0.25910  0.65960  0.22560  Biso   1.000  O
  O15      1.0000 0.24090  0.34040  0.22560  Biso   1.000  O
  O16      1.0000 0.74090  0.84040  0.22560  Biso   1.000  O
  O17      1.0000 0.35780  0.34240  0.97420  Biso   1.000  O
  O18      1.0000 0.85780  0.84240  0.97420  Biso   1.000  O
  O19      1.0000 0.64220  0.15760  0.97420  Biso   1.000  O
  O20      1.0000 0.35780  0.65760  0.02580  Biso   1.000  O
  O21      1.0000 0.14220  0.65760  0.97420  Biso   1.000  O
  O22      1.0000 0.85780  0.15760  0.02580  Biso   1.000  O
  O23      1.0000 0.64220  0.84240  0.02580  Biso   1.000  O
  O24      1.0000 0.14220  0.34240  0.02580  Biso   1.000  O
  O25      1.0000 0.64220  0.65760  0.02580  Biso   1.000  O
  O26      1.0000 0.14220  0.15760  0.02580  Biso   1.000  O
  O27      1.0000 0.35780  0.84240  0.02580  Biso   1.000  O
  O28      1.0000 0.64220  0.34240  0.97420  Biso   1.000  O
  O29      1.0000 0.85780  0.34240  0.02580  Biso   1.000  O
  O30      1.0000 0.14220  0.84240  0.97420  Biso   1.000  O
  O31      1.0000 0.35780  0.15760  0.97420  Biso   1.000  O
  O32      1.0000 0.85780  0.65760  0.97420  Biso   1.000  O
