data_image0
_cell_length_a       9.497
_cell_length_b       9.41
_cell_length_c       18.232
_cell_angle_alpha    90
_cell_angle_beta     100.01
_cell_angle_gamma    90

_symmetry_space_group_name_H-M    "P 1"
_symmetry_int_tables_number       1

loop_
  _symmetry_equiv_pos_as_xyz
  'x, y, z'

loop_
  _atom_site_label
  _atom_site_occupancy
  _atom_site_fract_x
  _atom_site_fract_y
  _atom_site_fract_z
  _atom_site_thermal_displace_type
  _atom_site_B_iso_or_equiv
  _atom_site_type_symbol
  Cu1      1.0000 0.87270  0.36631  0.18375  Biso   1.000  Cu
  Cu2      1.0000 0.87270  0.13369  0.68375  Biso   1.000  Cu
  Cu3      1.0000 0.12730  0.63369  0.81625  Biso   1.000  Cu
  Cu4      1.0000 0.12730  0.86631  0.31625  Biso   1.000  Cu
  N1       1.0000 0.88330  0.55630  0.14256  Biso   1.000  N
  N2       1.0000 0.88330  0.94370  0.64256  Biso   1.000  N
  N3       1.0000 0.11670  0.44370  0.85744  Biso   1.000  N
  N4       1.0000 0.11670  0.05630  0.35744  Biso   1.000  N
  N5       1.0000 0.71810  0.45590  0.23829  Biso   1.000  N
  N6       1.0000 0.71810  0.04410  0.73829  Biso   1.000  N
  N7       1.0000 0.28190  0.54410  0.76171  Biso   1.000  N
  N8       1.0000 0.28190  0.95590  0.26171  Biso   1.000  N
  N9       1.0000 0.82100  0.17630  0.21420  Biso   1.000  N
  N10      1.0000 0.82100  0.32370  0.71420  Biso   1.000  N
  N11      1.0000 0.17900  0.82370  0.78580  Biso   1.000  N
  N12      1.0000 0.17900  0.67630  0.28580  Biso   1.000  N
  N13      1.0000 0.88220  0.06640  0.21111  Biso   1.000  N
  N14      1.0000 0.88220  0.43360  0.71111  Biso   1.000  N
  N15      1.0000 0.11780  0.93360  0.78889  Biso   1.000  N
  N16      1.0000 0.11780  0.56640  0.28889  Biso   1.000  N
  N17      1.0000 0.93780  0.95780  0.20920  Biso   1.000  N
  N18      1.0000 0.93780  0.54220  0.70920  Biso   1.000  N
  N19      1.0000 0.06220  0.04220  0.79080  Biso   1.000  N
  N20      1.0000 0.06220  0.45780  0.29080  Biso   1.000  N
  O1       1.0000 0.00540  0.28990  0.12578  Biso   1.000  O
  O2       1.0000 0.00540  0.21010  0.62578  Biso   1.000  O
  O3       1.0000 0.99460  0.71010  0.87422  Biso   1.000  O
  O4       1.0000 0.99460  0.78990  0.37422  Biso   1.000  O
  O5       1.0000 0.47590  0.39960  0.31265  Biso   1.000  O
  O6       1.0000 0.47590  0.10040  0.81265  Biso   1.000  O
  O7       1.0000 0.52410  0.60040  0.68735  Biso   1.000  O
  O8       1.0000 0.52410  0.89960  0.18735  Biso   1.000  O
  C1       1.0000 0.09900  0.36540  0.09610  Biso   1.000  C
  C2       1.0000 0.09900  0.13460  0.59610  Biso   1.000  C
  C3       1.0000 0.90100  0.63460  0.90390  Biso   1.000  C
  C4       1.0000 0.90100  0.86540  0.40390  Biso   1.000  C
  C5       1.0000 0.20710  0.29110  0.06810  Biso   1.000  C
  C6       1.0000 0.20710  0.20890  0.56810  Biso   1.000  C
  C7       1.0000 0.79290  0.70890  0.93190  Biso   1.000  C
  C8       1.0000 0.79290  0.79110  0.43190  Biso   1.000  C
  H1       1.0000 0.20850  0.19230  0.07010  Biso   1.000  H
  H2       1.0000 0.20850  0.30770  0.57010  Biso   1.000  H
  H3       1.0000 0.79150  0.80770  0.92990  Biso   1.000  H
  H4       1.0000 0.79150  0.69230  0.42990  Biso   1.000  H
  C9       1.0000 0.31110  0.36140  0.03770  Biso   1.000  C
  C10      1.0000 0.31110  0.13860  0.53770  Biso   1.000  C
  C11      1.0000 0.68890  0.63860  0.96230  Biso   1.000  C
  C12      1.0000 0.68890  0.86140  0.46230  Biso   1.000  C
  H5       1.0000 0.38260  0.30990  0.02080  Biso   1.000  H
  H6       1.0000 0.38260  0.19010  0.52080  Biso   1.000  H
  H7       1.0000 0.61740  0.69010  0.97920  Biso   1.000  H
  H8       1.0000 0.61740  0.80990  0.47920  Biso   1.000  H
  C13      1.0000 0.30910  0.50970  0.03240  Biso   1.000  C
  C14      1.0000 0.30910  0.99030  0.53240  Biso   1.000  C
  C15      1.0000 0.69090  0.49030  0.96760  Biso   1.000  C
  C16      1.0000 0.69090  0.00970  0.46760  Biso   1.000  C
  H9       1.0000 0.37970  0.55740  0.01260  Biso   1.000  H
  H10      1.0000 0.37970  0.94260  0.51260  Biso   1.000  H
  H11      1.0000 0.62030  0.44260  0.98740  Biso   1.000  H
  H12      1.0000 0.62030  0.05740  0.48740  Biso   1.000  H
  C17      1.0000 0.20170  0.58380  0.05670  Biso   1.000  C
  C18      1.0000 0.20170  0.91620  0.55670  Biso   1.000  C
  C19      1.0000 0.79830  0.41620  0.94330  Biso   1.000  C
  C20      1.0000 0.79830  0.08380  0.44330  Biso   1.000  C
  H13      1.0000 0.19840  0.68210  0.05150  Biso   1.000  H
  H14      1.0000 0.19840  0.81790  0.55150  Biso   1.000  H
  H15      1.0000 0.80160  0.31790  0.94850  Biso   1.000  H
  H16      1.0000 0.80160  0.18210  0.44850  Biso   1.000  H
  C21      1.0000 0.09630  0.51540  0.08950  Biso   1.000  C
  C22      1.0000 0.09630  0.98460  0.58950  Biso   1.000  C
  C23      1.0000 0.90370  0.48460  0.91050  Biso   1.000  C
  C24      1.0000 0.90370  0.01540  0.41050  Biso   1.000  C
  C25      1.0000 0.98380  0.60230  0.11030  Biso   1.000  C
  C26      1.0000 0.98380  0.89770  0.61030  Biso   1.000  C
  C27      1.0000 0.01620  0.39770  0.88970  Biso   1.000  C
  C28      1.0000 0.01620  0.10230  0.38970  Biso   1.000  C
  H17      1.0000 0.98450  0.69880  0.09940  Biso   1.000  H
  H18      1.0000 0.98450  0.80120  0.59940  Biso   1.000  H
  H19      1.0000 0.01550  0.30120  0.90060  Biso   1.000  H
  H20      1.0000 0.01550  0.19880  0.40060  Biso   1.000  H
  C29      1.0000 0.77150  0.65310  0.15950  Biso   1.000  C
  C30      1.0000 0.77150  0.84690  0.65950  Biso   1.000  C
  C31      1.0000 0.22850  0.34690  0.84050  Biso   1.000  C
  C32      1.0000 0.22850  0.15310  0.34050  Biso   1.000  C
  H21      1.0000 0.68580  0.64400  0.12210  Biso   1.000  H
  H22      1.0000 0.68580  0.85600  0.62210  Biso   1.000  H
  H23      1.0000 0.31420  0.35600  0.87790  Biso   1.000  H
  H24      1.0000 0.31420  0.14400  0.37790  Biso   1.000  H
  H25      1.0000 0.80420  0.75080  0.15980  Biso   1.000  H
  H26      1.0000 0.80420  0.74920  0.65980  Biso   1.000  H
  H27      1.0000 0.19580  0.24920  0.84020  Biso   1.000  H
  H28      1.0000 0.19580  0.25080  0.34020  Biso   1.000  H
  C33      1.0000 0.74040  0.61300  0.23470  Biso   1.000  C
  C34      1.0000 0.74040  0.88700  0.73470  Biso   1.000  C
  C35      1.0000 0.25960  0.38700  0.76530  Biso   1.000  C
  C36      1.0000 0.25960  0.11300  0.26530  Biso   1.000  C
  H29      1.0000 0.81960  0.64120  0.27300  Biso   1.000  H
  H30      1.0000 0.81960  0.85880  0.77300  Biso   1.000  H
  H31      1.0000 0.18040  0.35880  0.72700  Biso   1.000  H
  H32      1.0000 0.18040  0.14120  0.22700  Biso   1.000  H
  H33      1.0000 0.65530  0.66240  0.24380  Biso   1.000  H
  H34      1.0000 0.65530  0.83760  0.74380  Biso   1.000  H
  H35      1.0000 0.34470  0.33760  0.75620  Biso   1.000  H
  H36      1.0000 0.34470  0.16240  0.25620  Biso   1.000  H
  C37      1.0000 0.73090  0.40460  0.31680  Biso   1.000  C
  C38      1.0000 0.73090  0.09540  0.81680  Biso   1.000  C
  C39      1.0000 0.26910  0.59540  0.68320  Biso   1.000  C
  C40      1.0000 0.26910  0.90460  0.18320  Biso   1.000  C
  H37      1.0000 0.81890  0.44110  0.34570  Biso   1.000  H
  H38      1.0000 0.81890  0.05890  0.84570  Biso   1.000  H
  H39      1.0000 0.18110  0.55890  0.65430  Biso   1.000  H
  H40      1.0000 0.18110  0.94110  0.15430  Biso   1.000  H
  H41      1.0000 0.73680  0.30170  0.31720  Biso   1.000  H
  H42      1.0000 0.73680  0.19830  0.81720  Biso   1.000  H
  H43      1.0000 0.26320  0.69830  0.68280  Biso   1.000  H
  H44      1.0000 0.26320  0.80170  0.18280  Biso   1.000  H
  C41      1.0000 0.60820  0.44930  0.35290  Biso   1.000  C
  C42      1.0000 0.60820  0.05070  0.85290  Biso   1.000  C
  C43      1.0000 0.39180  0.55070  0.64710  Biso   1.000  C
  C44      1.0000 0.39180  0.94930  0.14710  Biso   1.000  C
  H45      1.0000 0.62180  0.41220  0.40330  Biso   1.000  H
  H46      1.0000 0.62180  0.08780  0.90330  Biso   1.000  H
  H47      1.0000 0.37820  0.58780  0.59670  Biso   1.000  H
  H48      1.0000 0.37820  0.91220  0.09670  Biso   1.000  H
  H49      1.0000 0.60590  0.55220  0.35580  Biso   1.000  H
  H50      1.0000 0.60590  0.94780  0.85580  Biso   1.000  H
  H51      1.0000 0.39410  0.44780  0.64420  Biso   1.000  H
  H52      1.0000 0.39410  0.05220  0.14420  Biso   1.000  H
  C45      1.0000 0.45340  0.45580  0.23880  Biso   1.000  C
  C46      1.0000 0.45340  0.04420  0.73880  Biso   1.000  C
  C47      1.0000 0.54660  0.54420  0.76120  Biso   1.000  C
  C48      1.0000 0.54660  0.95580  0.26120  Biso   1.000  C
  H53      1.0000 0.44780  0.55860  0.24080  Biso   1.000  H
  H54      1.0000 0.44780  0.94140  0.74080  Biso   1.000  H
  H55      1.0000 0.55220  0.44140  0.75920  Biso   1.000  H
  H56      1.0000 0.55220  0.05860  0.25920  Biso   1.000  H
  H57      1.0000 0.36350  0.42060  0.21140  Biso   1.000  H
  H58      1.0000 0.36350  0.07940  0.71140  Biso   1.000  H
  H59      1.0000 0.63650  0.57940  0.78860  Biso   1.000  H
  H60      1.0000 0.63650  0.92060  0.28860  Biso   1.000  H
  C49      1.0000 0.57310  0.41350  0.19900  Biso   1.000  C
  C50      1.0000 0.57310  0.08650  0.69900  Biso   1.000  C
  C51      1.0000 0.42690  0.58650  0.80100  Biso   1.000  C
  C52      1.0000 0.42690  0.91350  0.30100  Biso   1.000  C
  H61      1.0000 0.57110  0.31120  0.19250  Biso   1.000  H
  H62      1.0000 0.57110  0.18880  0.69250  Biso   1.000  H
  H63      1.0000 0.42890  0.68880  0.80750  Biso   1.000  H
  H64      1.0000 0.42890  0.81120  0.30750  Biso   1.000  H
  H65      1.0000 0.55650  0.45630  0.14990  Biso   1.000  H
  H66      1.0000 0.55650  0.04370  0.64990  Biso   1.000  H
  H67      1.0000 0.44350  0.54370  0.85010  Biso   1.000  H
  H68      1.0000 0.44350  0.95630  0.35010  Biso   1.000  H
  O9       1.0000 0.63220  0.98010  0.04580  Biso   1.000  O
  O10      1.0000 0.63220  0.51990  0.54580  Biso   1.000  O
  O11      1.0000 0.36780  0.01990  0.95420  Biso   1.000  O
  O12      1.0000 0.36780  0.48010  0.45420  Biso   1.000  O
  H69      1.0000 0.61600  0.08200  0.04400  Biso   1.000  H
  H70      1.0000 0.61600  0.41800  0.54400  Biso   1.000  H
  H71      1.0000 0.38400  0.91800  0.95600  Biso   1.000  H
  H72      1.0000 0.38400  0.58200  0.45600  Biso   1.000  H
  H73      1.0000 0.63400  0.93700  0.09300  Biso   1.000  H
  H74      1.0000 0.63400  0.56300  0.59300  Biso   1.000  H
  H75      1.0000 0.36600  0.06300  0.90700  Biso   1.000  H
  H76      1.0000 0.36600  0.43700  0.40700  Biso   1.000  H
  O13      1.0000 0.89150  0.08250  0.01780  Biso   1.000  O
  O14      1.0000 0.89150  0.41750  0.51780  Biso   1.000  O
  O15      1.0000 0.10850  0.91750  0.98220  Biso   1.000  O
  O16      1.0000 0.10850  0.58250  0.48220  Biso   1.000  O
  H77      1.0000 0.92600  0.14800  0.05500  Biso   1.000  H
  H78      1.0000 0.92600  0.35200  0.55500  Biso   1.000  H
  H79      1.0000 0.07400  0.85200  0.94500  Biso   1.000  H
  H80      1.0000 0.07400  0.64800  0.44500  Biso   1.000  H
  H81      1.0000 0.83700  0.01800  0.03900  Biso   1.000  H
  H82      1.0000 0.83700  0.48200  0.53900  Biso   1.000  H
  H83      1.0000 0.16300  0.98200  0.96100  Biso   1.000  H
  H84      1.0000 0.16300  0.51800  0.46100  Biso   1.000  H
