data_image0
_cell_length_a       9.4934
_cell_length_b       9.2962
_cell_length_c       18.377
_cell_angle_alpha    90
_cell_angle_beta     97.902
_cell_angle_gamma    90

_symmetry_space_group_name_H-M    "P 1"
_symmetry_int_tables_number       1

loop_
  _symmetry_equiv_pos_as_xyz
  'x, y, z'

loop_
  _atom_site_label
  _atom_site_occupancy
  _atom_site_fract_x
  _atom_site_fract_y
  _atom_site_fract_z
  _atom_site_thermal_displace_type
  _atom_site_B_iso_or_equiv
  _atom_site_type_symbol
  C1       1.0000 0.59980  0.36120  0.09590  Biso   1.000  C
  C2       1.0000 0.40020  0.86120  0.40410  Biso   1.000  C
  C3       1.0000 0.40020  0.63880  0.90410  Biso   1.000  C
  C4       1.0000 0.59980  0.13880  0.59590  Biso   1.000  C
  C5       1.0000 0.71040  0.28630  0.06800  Biso   1.000  C
  C6       1.0000 0.28960  0.78630  0.43200  Biso   1.000  C
  C7       1.0000 0.28960  0.71370  0.93200  Biso   1.000  C
  C8       1.0000 0.71040  0.21370  0.56800  Biso   1.000  C
  H1       1.0000 0.71360  0.18650  0.07110  Biso   1.000  H
  H2       1.0000 0.28640  0.68650  0.42890  Biso   1.000  H
  H3       1.0000 0.28640  0.81350  0.92890  Biso   1.000  H
  H4       1.0000 0.71360  0.31350  0.57110  Biso   1.000  H
  C9       1.0000 0.81310  0.35750  0.03670  Biso   1.000  C
  C10      1.0000 0.18690  0.85750  0.46330  Biso   1.000  C
  C11      1.0000 0.18690  0.64250  0.96330  Biso   1.000  C
  C12      1.0000 0.81310  0.14250  0.53670  Biso   1.000  C
  H5       1.0000 0.88540  0.30540  0.01950  Biso   1.000  H
  H6       1.0000 0.11460  0.80540  0.48050  Biso   1.000  H
  H7       1.0000 0.11460  0.69460  0.98050  Biso   1.000  H
  H8       1.0000 0.88540  0.19460  0.51950  Biso   1.000  H
  C13      1.0000 0.81080  0.50490  0.03020  Biso   1.000  C
  C14      1.0000 0.18920  0.00490  0.46980  Biso   1.000  C
  C15      1.0000 0.18920  0.49510  0.96980  Biso   1.000  C
  C16      1.0000 0.81080  0.99510  0.53020  Biso   1.000  C
  H9       1.0000 0.88180  0.55260  0.00950  Biso   1.000  H
  H10      1.0000 0.11820  0.05260  0.49050  Biso   1.000  H
  H11      1.0000 0.11820  0.44740  0.99050  Biso   1.000  H
  H12      1.0000 0.88180  0.94740  0.50950  Biso   1.000  H
  C17      1.0000 0.70280  0.58010  0.05450  Biso   1.000  C
  C18      1.0000 0.29720  0.08010  0.44550  Biso   1.000  C
  C19      1.0000 0.29720  0.41990  0.94550  Biso   1.000  C
  C20      1.0000 0.70280  0.91990  0.55450  Biso   1.000  C
  H13      1.0000 0.69940  0.67940  0.04850  Biso   1.000  H
  H14      1.0000 0.30060  0.17940  0.45150  Biso   1.000  H
  H15      1.0000 0.30060  0.32060  0.95150  Biso   1.000  H
  H16      1.0000 0.69940  0.82060  0.54850  Biso   1.000  H
  C21      1.0000 0.59640  0.51190  0.08830  Biso   1.000  C
  C22      1.0000 0.40360  0.01190  0.41170  Biso   1.000  C
  C23      1.0000 0.40360  0.48810  0.91170  Biso   1.000  C
  C24      1.0000 0.59640  0.98810  0.58830  Biso   1.000  C
  C25      1.0000 0.48400  0.60020  0.10960  Biso   1.000  C
  C26      1.0000 0.51600  0.10020  0.39040  Biso   1.000  C
  C27      1.0000 0.51600  0.39980  0.89040  Biso   1.000  C
  C28      1.0000 0.48400  0.89980  0.60960  Biso   1.000  C
  H17      1.0000 0.48490  0.69780  0.09850  Biso   1.000  H
  H18      1.0000 0.51510  0.19780  0.40150  Biso   1.000  H
  H19      1.0000 0.51510  0.30220  0.90150  Biso   1.000  H
  H20      1.0000 0.48490  0.80220  0.59850  Biso   1.000  H
  C29      1.0000 0.27390  0.65250  0.16100  Biso   1.000  C
  C30      1.0000 0.72610  0.15250  0.33900  Biso   1.000  C
  C31      1.0000 0.72610  0.34750  0.83900  Biso   1.000  C
  C32      1.0000 0.27390  0.84750  0.66100  Biso   1.000  C
  H21      1.0000 0.18990  0.64570  0.12450  Biso   1.000  H
  H22      1.0000 0.81010  0.14570  0.37550  Biso   1.000  H
  H23      1.0000 0.81010  0.35430  0.87550  Biso   1.000  H
  H24      1.0000 0.18990  0.85430  0.62450  Biso   1.000  H
  H25      1.0000 0.30850  0.75070  0.16170  Biso   1.000  H
  H26      1.0000 0.69150  0.25070  0.33830  Biso   1.000  H
  H27      1.0000 0.69150  0.24930  0.83830  Biso   1.000  H
  H28      1.0000 0.30850  0.74930  0.66170  Biso   1.000  H
  C33      1.0000 0.23800  0.61220  0.23480  Biso   1.000  C
  C34      1.0000 0.76200  0.11220  0.26520  Biso   1.000  C
  C35      1.0000 0.76200  0.38780  0.76520  Biso   1.000  C
  C36      1.0000 0.23800  0.88780  0.73480  Biso   1.000  C
  H29      1.0000 0.15260  0.66250  0.24380  Biso   1.000  H
  H30      1.0000 0.84740  0.16250  0.25620  Biso   1.000  H
  H31      1.0000 0.84740  0.33750  0.75620  Biso   1.000  H
  H32      1.0000 0.15260  0.83750  0.74380  Biso   1.000  H
  H33      1.0000 0.31490  0.64050  0.27240  Biso   1.000  H
  H34      1.0000 0.68510  0.14050  0.22760  Biso   1.000  H
  H35      1.0000 0.68510  0.35950  0.72760  Biso   1.000  H
  H36      1.0000 0.31490  0.85950  0.77240  Biso   1.000  H
  C37      1.0000 0.07500  0.41070  0.19720  Biso   1.000  C
  C38      1.0000 0.92500  0.91070  0.30280  Biso   1.000  C
  C39      1.0000 0.92500  0.58930  0.80280  Biso   1.000  C
  C40      1.0000 0.07500  0.08930  0.69720  Biso   1.000  C
  H37      1.0000 0.07360  0.30710  0.19060  Biso   1.000  H
  H38      1.0000 0.92640  0.80710  0.30940  Biso   1.000  H
  H39      1.0000 0.92640  0.69290  0.80940  Biso   1.000  H
  H40      1.0000 0.07360  0.19290  0.69060  Biso   1.000  H
  H41      1.0000 0.06520  0.45440  0.14880  Biso   1.000  H
  H42      1.0000 0.93480  0.95440  0.35120  Biso   1.000  H
  H43      1.0000 0.93480  0.54560  0.85120  Biso   1.000  H
  H44      1.0000 0.06520  0.04560  0.64880  Biso   1.000  H
  C41      1.0000 0.95030  0.45380  0.23440  Biso   1.000  C
  C42      1.0000 0.04970  0.95380  0.26560  Biso   1.000  C
  C43      1.0000 0.04970  0.54620  0.76560  Biso   1.000  C
  C44      1.0000 0.95030  0.04620  0.73440  Biso   1.000  C
  H45      1.0000 0.94490  0.55800  0.23610  Biso   1.000  H
  H46      1.0000 0.05510  0.05800  0.26390  Biso   1.000  H
  H47      1.0000 0.05510  0.44200  0.76390  Biso   1.000  H
  H48      1.0000 0.94490  0.94200  0.73610  Biso   1.000  H
  H49      1.0000 0.86340  0.41870  0.20600  Biso   1.000  H
  H50      1.0000 0.13660  0.91870  0.29400  Biso   1.000  H
  H51      1.0000 0.13660  0.58130  0.79400  Biso   1.000  H
  H52      1.0000 0.86340  0.08130  0.70600  Biso   1.000  H
  C45      1.0000 0.08870  0.44740  0.34900  Biso   1.000  C
  C46      1.0000 0.91130  0.94740  0.15100  Biso   1.000  C
  C47      1.0000 0.91130  0.55260  0.65100  Biso   1.000  C
  C48      1.0000 0.08870  0.05260  0.84900  Biso   1.000  C
  H53      1.0000 0.09510  0.40890  0.39840  Biso   1.000  H
  H54      1.0000 0.90490  0.90890  0.10160  Biso   1.000  H
  H55      1.0000 0.90490  0.59110  0.60160  Biso   1.000  H
  H56      1.0000 0.09510  0.09110  0.89840  Biso   1.000  H
  H57      1.0000 0.08630  0.55150  0.35230  Biso   1.000  H
  H58      1.0000 0.91370  0.05150  0.14770  Biso   1.000  H
  H59      1.0000 0.91370  0.44850  0.64770  Biso   1.000  H
  H60      1.0000 0.08630  0.94850  0.85230  Biso   1.000  H
  C49      1.0000 0.21920  0.40180  0.31500  Biso   1.000  C
  C50      1.0000 0.78080  0.90180  0.18500  Biso   1.000  C
  C51      1.0000 0.78080  0.59820  0.68500  Biso   1.000  C
  C52      1.0000 0.21920  0.09820  0.81500  Biso   1.000  C
  H61      1.0000 0.30370  0.43950  0.34450  Biso   1.000  H
  H62      1.0000 0.69630  0.93950  0.15550  Biso   1.000  H
  H63      1.0000 0.69630  0.56050  0.65550  Biso   1.000  H
  H64      1.0000 0.30370  0.06050  0.84450  Biso   1.000  H
  H65      1.0000 0.22580  0.29760  0.31570  Biso   1.000  H
  H66      1.0000 0.77420  0.79760  0.18430  Biso   1.000  H
  H67      1.0000 0.77420  0.70240  0.68430  Biso   1.000  H
  H68      1.0000 0.22580  0.20240  0.81570  Biso   1.000  H
  Cu1      1.0000 0.37445  0.36400  0.18594  Biso   1.000  Cu
  Cu2      1.0000 0.62555  0.86400  0.31406  Biso   1.000  Cu
  Cu3      1.0000 0.62555  0.63600  0.81406  Biso   1.000  Cu
  Cu4      1.0000 0.37445  0.13600  0.68594  Biso   1.000  Cu
  N1       1.0000 0.38360  0.55370  0.14259  Biso   1.000  N
  N2       1.0000 0.61640  0.05370  0.35741  Biso   1.000  N
  N3       1.0000 0.61640  0.44630  0.85741  Biso   1.000  N
  N4       1.0000 0.38360  0.94630  0.64259  Biso   1.000  N
  N5       1.0000 0.21480  0.45320  0.23851  Biso   1.000  N
  N6       1.0000 0.78520  0.95320  0.26149  Biso   1.000  N
  N7       1.0000 0.78520  0.54680  0.76149  Biso   1.000  N
  N8       1.0000 0.21480  0.04680  0.73851  Biso   1.000  N
  N9       1.0000 0.32790  0.17240  0.22030  Biso   1.000  N
  N10      1.0000 0.67210  0.67240  0.27970  Biso   1.000  N
  N11      1.0000 0.67210  0.82760  0.77970  Biso   1.000  N
  N12      1.0000 0.32790  0.32760  0.72030  Biso   1.000  N
  N13      1.0000 0.38970  0.06320  0.21500  Biso   1.000  N
  N14      1.0000 0.61030  0.56320  0.28500  Biso   1.000  N
  N15      1.0000 0.61030  0.93680  0.78500  Biso   1.000  N
  N16      1.0000 0.38970  0.43680  0.71500  Biso   1.000  N
  N17      1.0000 0.44690  0.95460  0.21210  Biso   1.000  N
  N18      1.0000 0.55310  0.45460  0.28790  Biso   1.000  N
  N19      1.0000 0.55310  0.04540  0.78790  Biso   1.000  N
  N20      1.0000 0.44690  0.54540  0.71210  Biso   1.000  N
  O1       1.0000 0.50590  0.28540  0.12625  Biso   1.000  O
  O2       1.0000 0.49410  0.78540  0.37375  Biso   1.000  O
  O3       1.0000 0.49410  0.71460  0.87375  Biso   1.000  O
  O4       1.0000 0.50590  0.21460  0.62625  Biso   1.000  O
  O5       1.0000 0.96140  0.39820  0.30691  Biso   1.000  O
  O6       1.0000 0.03860  0.89820  0.19309  Biso   1.000  O
  O7       1.0000 0.03860  0.60180  0.69309  Biso   1.000  O
  O8       1.0000 0.96140  0.10180  0.80691  Biso   1.000  O
  O9       1.0000 0.16390  0.03060  0.04800  Biso   1.000  O
  O10      1.0000 0.83610  0.53060  0.45200  Biso   1.000  O
  O11      1.0000 0.83610  0.96940  0.95200  Biso   1.000  O
  O12      1.0000 0.16390  0.46940  0.54800  Biso   1.000  O
  O13      1.0000 0.38580  0.08350  0.02120  Biso   1.000  O
  O14      1.0000 0.61420  0.58350  0.47880  Biso   1.000  O
  O15      1.0000 0.61420  0.91650  0.97880  Biso   1.000  O
  O16      1.0000 0.38580  0.41650  0.52120  Biso   1.000  O
