data_image0
_cell_length_a       12.256
_cell_length_b       15.377
_cell_length_c       15.735
_cell_angle_alpha    103.16
_cell_angle_beta     109.93
_cell_angle_gamma    98.85

_symmetry_space_group_name_H-M    "P 1"
_symmetry_int_tables_number       1

loop_
  _symmetry_equiv_pos_as_xyz
  'x, y, z'

loop_
  _atom_site_label
  _atom_site_occupancy
  _atom_site_fract_x
  _atom_site_fract_y
  _atom_site_fract_z
  _atom_site_thermal_displace_type
  _atom_site_B_iso_or_equiv
  _atom_site_type_symbol
  Cu1      1.0000 0.84268  0.88555  0.09042  Biso   1.000  Cu
  Cu2      1.0000 0.15732  0.11445  0.90958  Biso   1.000  Cu
  O1       1.0000 0.69110  0.92090  0.13620  Biso   1.000  O
  O2       1.0000 0.30890  0.07910  0.86380  Biso   1.000  O
  N1       1.0000 0.77480  0.75301  0.07837  Biso   1.000  N
  N2       1.0000 0.22520  0.24699  0.92163  Biso   1.000  N
  N3       1.0000 0.76310  0.83390  0.95270  Biso   1.000  N
  N4       1.0000 0.23690  0.16610  0.04730  Biso   1.000  N
  N5       1.0000 0.90300  0.00500  0.07480  Biso   1.000  N
  N6       1.0000 0.09700  0.99500  0.92520  Biso   1.000  N
  N7       1.0000 0.96280  0.92480  0.22360  Biso   1.000  N
  N8       1.0000 0.03720  0.07520  0.77640  Biso   1.000  N
  C1       1.0000 0.76690  0.69714  0.13018  Biso   1.000  C
  C2       1.0000 0.23310  0.30286  0.86982  Biso   1.000  C
  N9       1.0000 0.70400  0.70290  0.98580  Biso   1.000  N
  N10      1.0000 0.29600  0.29710  0.01420  Biso   1.000  N
  C3       1.0000 0.70290  0.74840  0.91670  Biso   1.000  C
  C4       1.0000 0.29710  0.25160  0.08330  Biso   1.000  C
  H1       1.0000 0.76800  0.86830  0.91570  Biso   1.000  H
  H2       1.0000 0.23200  0.13170  0.08430  Biso   1.000  H
  C5       1.0000 0.92330  0.07040  0.05290  Biso   1.000  C
  C6       1.0000 0.07670  0.92960  0.94710  Biso   1.000  C
  C7       1.0000 0.69040  0.61031  0.07110  Biso   1.000  C
  C8       1.0000 0.30960  0.38969  0.92890  Biso   1.000  C
  C9       1.0000 0.83040  0.72680  0.23530  Biso   1.000  C
  C10      1.0000 0.16960  0.27320  0.76470  Biso   1.000  C
  C11      1.0000 0.65040  0.61480  0.97970  Biso   1.000  C
  C12      1.0000 0.34960  0.38520  0.02030  Biso   1.000  C
  N11      1.0000 0.64330  0.69490  0.82660  Biso   1.000  N
  N12      1.0000 0.35670  0.30510  0.17340  Biso   1.000  N
  N13      1.0000 0.94470  0.14250  0.02400  Biso   1.000  N
  N14      1.0000 0.05530  0.85750  0.97600  Biso   1.000  N
  H3       1.0000 0.67020  0.55820  0.09070  Biso   1.000  H
  H4       1.0000 0.32980  0.44180  0.90930  Biso   1.000  H
  H5       1.0000 0.91340  0.76080  0.25320  Biso   1.000  H
  H6       1.0000 0.08660  0.23920  0.74680  Biso   1.000  H
  H7       1.0000 0.83020  0.67230  0.25770  Biso   1.000  H
  H8       1.0000 0.16980  0.32770  0.74230  Biso   1.000  H
  H9       1.0000 0.78950  0.76680  0.26420  Biso   1.000  H
  H10      1.0000 0.21050  0.23320  0.73580  Biso   1.000  H
  C13      1.0000 0.56230  0.54400  0.89100  Biso   1.000  C
  C14      1.0000 0.43770  0.45600  0.10900  Biso   1.000  C
  C15      1.0000 0.64500  0.73140  0.76010  Biso   1.000  C
  C16      1.0000 0.35500  0.26860  0.23990  Biso   1.000  C
  C17      1.0000 0.99970  0.22180  0.09470  Biso   1.000  C
  C18      1.0000 0.00030  0.77820  0.90530  Biso   1.000  C
  H11      1.0000 0.54650  0.48460  0.90330  Biso   1.000  H
  H12      1.0000 0.45350  0.51540  0.09670  Biso   1.000  H
  H13      1.0000 0.59510  0.53780  0.84180  Biso   1.000  H
  H14      1.0000 0.40490  0.46220  0.15820  Biso   1.000  H
  H15      1.0000 0.48730  0.56310  0.86960  Biso   1.000  H
  H16      1.0000 0.51270  0.43690  0.13040  Biso   1.000  H
  N15      1.0000 0.64310  0.75750  0.69670  Biso   1.000  N
  N16      1.0000 0.35690  0.24250  0.30330  Biso   1.000  N
  N17      1.0000 0.02780  0.30110  0.06800  Biso   1.000  N
  N18      1.0000 0.97220  0.69890  0.93200  Biso   1.000  N
  N19      1.0000 0.03370  0.23710  0.18550  Biso   1.000  N
  N20      1.0000 0.96630  0.76290  0.81450  Biso   1.000  N
  Cu3      1.0000 0.61835  0.78974  0.57774  Biso   1.000  Cu
  Cu4      1.0000 0.38165  0.21026  0.42226  Biso   1.000  Cu
  N21      1.0000 0.09930  0.37910  0.14130  Biso   1.000  N
  N22      1.0000 0.90070  0.62090  0.85870  Biso   1.000  N
  C19      1.0000 0.00270  0.31700  0.98120  Biso   1.000  C
  C20      1.0000 0.99730  0.68300  0.01880  Biso   1.000  C
  Cu5      1.0000 0.11659  0.36261  0.26861  Biso   1.000  Cu
  Cu6      1.0000 0.88341  0.63739  0.73139  Biso   1.000  Cu
  H17      1.0000 0.01970  0.19190  0.20910  Biso   1.000  H
  H18      1.0000 0.98030  0.80810  0.79090  Biso   1.000  H
  O3       1.0000 0.46080  0.84730  0.58270  Biso   1.000  O
  O4       1.0000 0.53920  0.15270  0.41730  Biso   1.000  O
  N23      1.0000 0.62780  0.82500  0.46450  Biso   1.000  N
  N24      1.0000 0.37220  0.17500  0.53550  Biso   1.000  N
  N25      1.0000 0.75900  0.89370  0.64010  Biso   1.000  N
  N26      1.0000 0.24100  0.10630  0.35990  Biso   1.000  N
  N27      1.0000 0.50510  0.66740  0.50900  Biso   1.000  N
  N28      1.0000 0.49490  0.33260  0.49100  Biso   1.000  N
  C21      1.0000 0.12020  0.44390  0.10070  Biso   1.000  C
  C22      1.0000 0.87980  0.55610  0.89930  Biso   1.000  C
  C23      1.0000 0.06140  0.40690  0.00060  Biso   1.000  C
  C24      1.0000 0.93860  0.59310  0.99940  Biso   1.000  C
  C25      1.0000 0.92130  0.24880  0.88740  Biso   1.000  C
  C26      1.0000 0.07870  0.75120  0.11260  Biso   1.000  C
  O5       1.0000 0.95500  0.41390  0.26310  Biso   1.000  O
  O6       1.0000 0.04500  0.58610  0.73690  Biso   1.000  O
  N29      1.0000 0.13710  0.33630  0.39120  Biso   1.000  N
  N30      1.0000 0.86290  0.66370  0.60880  Biso   1.000  N
  N31      1.0000 0.24630  0.47060  0.35760  Biso   1.000  N
  N32      1.0000 0.75370  0.52940  0.64240  Biso   1.000  N
  C27      1.0000 0.45100  0.93290  0.56570  Biso   1.000  C
  C28      1.0000 0.54900  0.06710  0.43430  Biso   1.000  C
  C29      1.0000 0.57120  0.80270  0.37070  Biso   1.000  C
  C30      1.0000 0.42880  0.19730  0.62930  Biso   1.000  C
  N33      1.0000 0.72800  0.89440  0.48930  Biso   1.000  N
  N34      1.0000 0.27200  0.10560  0.51070  Biso   1.000  N
  C31      1.0000 0.79830  0.93260  0.58810  Biso   1.000  C
  C32      1.0000 0.20170  0.06740  0.41190  Biso   1.000  C
  H19      1.0000 0.79500  0.91370  0.70230  Biso   1.000  H
  H20      1.0000 0.20500  0.08630  0.29770  Biso   1.000  H
  C33      1.0000 0.19470  0.53940  0.15750  Biso   1.000  C
  C34      1.0000 0.80530  0.46060  0.84250  Biso   1.000  C
  H21      1.0000 0.06250  0.43850  0.95560  Biso   1.000  H
  H22      1.0000 0.93750  0.56150  0.04440  Biso   1.000  H
  H23      1.0000 0.84080  0.23100  0.88690  Biso   1.000  H
  H24      1.0000 0.15920  0.76900  0.11310  Biso   1.000  H
  H25      1.0000 0.95230  0.19400  0.87710  Biso   1.000  H
  H26      1.0000 0.04770  0.80600  0.12290  Biso   1.000  H
  H27      1.0000 0.91750  0.27690  0.83680  Biso   1.000  H
  H28      1.0000 0.08250  0.72310  0.16320  Biso   1.000  H
  C35      1.0000 0.88330  0.45420  0.20370  Biso   1.000  C
  C36      1.0000 0.11670  0.54580  0.79630  Biso   1.000  C
  C37      1.0000 0.08920  0.27790  0.42750  Biso   1.000  C
  C38      1.0000 0.91080  0.72210  0.57250  Biso   1.000  C
  N35      1.0000 0.23380  0.39830  0.46640  Biso   1.000  N
  N36      1.0000 0.76620  0.60170  0.53360  Biso   1.000  N
  C39      1.0000 0.29030  0.47270  0.44520  Biso   1.000  C
  C40      1.0000 0.70970  0.52730  0.55480  Biso   1.000  C
  H29      1.0000 0.27330  0.51560  0.33840  Biso   1.000  H
  H30      1.0000 0.72670  0.48440  0.66160  Biso   1.000  H
  C41      1.0000 0.63550  0.85770  0.33490  Biso   1.000  C
  C42      1.0000 0.36450  0.14230  0.66510  Biso   1.000  C
  C43      1.0000 0.45500  0.73070  0.31620  Biso   1.000  C
  C44      1.0000 0.54500  0.26930  0.68380  Biso   1.000  C
  C45      1.0000 0.73480  0.91590  0.41100  Biso   1.000  C
  C46      1.0000 0.26520  0.08410  0.58900  Biso   1.000  C
  N37      1.0000 0.89420  0.00180  0.61070  Biso   1.000  N
  N38      1.0000 0.10580  0.99820  0.38930  Biso   1.000  N
  H31      1.0000 0.27300  0.53670  0.20030  Biso   1.000  H
  H32      1.0000 0.72700  0.46330  0.79970  Biso   1.000  H
  H33      1.0000 0.15410  0.57020  0.19480  Biso   1.000  H
  H34      1.0000 0.84590  0.42980  0.80520  Biso   1.000  H
  H35      1.0000 0.20600  0.57410  0.11480  Biso   1.000  H
  H36      1.0000 0.79400  0.42590  0.88520  Biso   1.000  H
  C47      1.0000 0.15650  0.30190  0.52590  Biso   1.000  C
  C48      1.0000 0.84350  0.69810  0.47410  Biso   1.000  C
  C49      1.0000 0.97810  0.20200  0.36810  Biso   1.000  C
  C50      1.0000 0.02190  0.79800  0.63190  Biso   1.000  C
  C51      1.0000 0.24630  0.37840  0.54950  Biso   1.000  C
  C52      1.0000 0.75370  0.62160  0.45050  Biso   1.000  C
  N39      1.0000 0.38120  0.53330  0.52140  Biso   1.000  N
  N40      1.0000 0.61880  0.46670  0.47860  Biso   1.000  N
  H37      1.0000 0.61440  0.85530  0.27030  Biso   1.000  H
  H38      1.0000 0.38560  0.14470  0.72970  Biso   1.000  H
  H39      1.0000 0.39070  0.75350  0.33010  Biso   1.000  H
  H40      1.0000 0.60930  0.24650  0.66990  Biso   1.000  H
  H41      1.0000 0.43680  0.71700  0.24820  Biso   1.000  H
  H42      1.0000 0.56320  0.28300  0.75180  Biso   1.000  H
  H43      1.0000 0.46150  0.67440  0.33470  Biso   1.000  H
  H44      1.0000 0.53850  0.32560  0.66530  Biso   1.000  H
  C53      1.0000 0.83100  0.98870  0.41200  Biso   1.000  C
  C54      1.0000 0.16900  0.01130  0.58800  Biso   1.000  C
  C55      1.0000 0.96610  0.03870  0.70060  Biso   1.000  C
  C56      1.0000 0.03390  0.96130  0.29940  Biso   1.000  C
  H45      1.0000 0.14190  0.27060  0.56800  Biso   1.000  H
  H46      1.0000 0.85810  0.72940  0.43200  Biso   1.000  H
  H47      1.0000 0.92670  0.22120  0.31650  Biso   1.000  H
  H48      1.0000 0.07330  0.77880  0.68350  Biso   1.000  H
  H49      1.0000 0.93460  0.18840  0.40740  Biso   1.000  H
  H50      1.0000 0.06540  0.81160  0.59260  Biso   1.000  H
  H51      1.0000 0.00000  0.14650  0.34130  Biso   1.000  H
  H52      1.0000 0.00000  0.85350  0.65870  Biso   1.000  H
  C57      1.0000 0.34040  0.43350  0.64540  Biso   1.000  C
  C58      1.0000 0.65960  0.56650  0.35460  Biso   1.000  C
  C59      1.0000 0.44260  0.60360  0.51000  Biso   1.000  C
  C60      1.0000 0.55740  0.39640  0.49000  Biso   1.000  C
  H53      1.0000 0.81600  0.98980  0.34700  Biso   1.000  H
  H54      1.0000 0.18400  0.01020  0.65300  Biso   1.000  H
  H55      1.0000 0.83150  0.04890  0.45010  Biso   1.000  H
  H56      1.0000 0.16850  0.95110  0.54990  Biso   1.000  H
  H57      1.0000 0.90900  0.97540  0.43950  Biso   1.000  H
  H58      1.0000 0.09100  0.02460  0.56050  Biso   1.000  H
  H59      1.0000 0.41930  0.44410  0.64160  Biso   1.000  H
  H60      1.0000 0.58070  0.55590  0.35840  Biso   1.000  H
  H61      1.0000 0.34050  0.39940  0.69100  Biso   1.000  H
  H62      1.0000 0.65950  0.60060  0.30900  Biso   1.000  H
  H63      1.0000 0.32290  0.49290  0.66620  Biso   1.000  H
  H64      1.0000 0.67710  0.50710  0.33380  Biso   1.000  H
  Cl1      1.0000 0.60630  0.26420  0.97484  Biso   1.000  Cl
  Cl2      1.0000 0.39370  0.73580  0.02516  Biso   1.000  Cl
  O7       1.0000 0.71330  0.23490  0.01230  Biso   1.000  O
  O8       1.0000 0.28670  0.76510  0.98770  Biso   1.000  O
  O9       1.0000 0.63690  0.35440  0.96620  Biso   1.000  O
  O10      1.0000 0.36310  0.64560  0.03380  Biso   1.000  O
  O11      1.0000 0.53070  0.20100  0.88360  Biso   1.000  O
  O12      1.0000 0.46930  0.79900  0.11640  Biso   1.000  O
  O13      1.0000 0.54440  0.26640  0.03730  Biso   1.000  O
  O14      1.0000 0.45560  0.73360  0.96270  Biso   1.000  O
  Cl3      1.0000 0.13040  0.68970  0.40500  Biso   1.000  Cl
  Cl4      1.0000 0.86960  0.31030  0.59500  Biso   1.000  Cl
  O15      1.0000 0.22870  0.68880  0.37570  Biso   1.000  O
  O16      1.0000 0.77130  0.31120  0.62430  Biso   1.000  O
  O17      1.0000 0.02470  0.62530  0.33240  Biso   1.000  O
  O18      1.0000 0.97530  0.37470  0.66760  Biso   1.000  O
  O19      1.0000 0.15700  0.66450  0.49050  Biso   1.000  O
  O20      1.0000 0.84300  0.33550  0.50950  Biso   1.000  O
  O21      1.0000 0.11080  0.78030  0.42120  Biso   1.000  O
  O22      1.0000 0.88920  0.21970  0.57880  Biso   1.000  O
  O23      1.0000 0.19770  0.02370  0.16030  Biso   1.000  O
  O24      1.0000 0.80230  0.97630  0.83970  Biso   1.000  O
  C61      1.0000 0.31910  0.97980  0.16950  Biso   1.000  C
  C62      1.0000 0.68090  0.02020  0.83050  Biso   1.000  C
  O25      1.0000 0.65410  0.26300  0.27530  Biso   1.000  O
  O26      1.0000 0.34590  0.73700  0.72470  Biso   1.000  O
  C63      1.0000 0.73630  0.25890  0.21810  Biso   1.000  C
  C64      1.0000 0.26370  0.74110  0.78190  Biso   1.000  C
  O27      1.0000 0.69800  0.94030  0.12160  Biso   1.000  O
  O28      1.0000 0.30200  0.05970  0.87840  Biso   1.000  O
  C65      1.0000 0.66360  0.00980  0.14520  Biso   1.000  C
  C66      1.0000 0.33640  0.99020  0.85480  Biso   1.000  C
  H65      1.0000 0.73040  0.05690  0.19760  Biso   1.000  H
  H66      1.0000 0.26960  0.94310  0.80240  Biso   1.000  H
  H67      1.0000 0.59800  0.99410  0.16550  Biso   1.000  H
  H68      1.0000 0.40200  0.00590  0.83450  Biso   1.000  H
  H69      1.0000 0.63540  0.03380  0.09110  Biso   1.000  H
  H70      1.0000 0.36460  0.96620  0.90890  Biso   1.000  H
  O29      1.0000 0.93800  0.41030  0.26300  Biso   1.000  O
  O30      1.0000 0.06200  0.58970  0.73700  Biso   1.000  O
  H71      1.0000 0.82400  0.47260  0.22800  Biso   1.000  H
  H72      1.0000 0.17600  0.52740  0.77200  Biso   1.000  H
  H73      1.0000 0.84200  0.40980  0.14010  Biso   1.000  H
  H74      1.0000 0.15800  0.59020  0.85990  Biso   1.000  H
  H75      1.0000 0.93320  0.50870  0.20060  Biso   1.000  H
  H76      1.0000 0.06680  0.49130  0.79940  Biso   1.000  H
  O31      1.0000 0.51300  0.11940  0.41100  Biso   1.000  O
  O32      1.0000 0.48700  0.88060  0.58900  Biso   1.000  O
  H77      1.0000 0.58000  0.03290  0.39090  Biso   1.000  H
  H78      1.0000 0.42000  0.96710  0.60910  Biso   1.000  H
  H79      1.0000 0.47010  0.03100  0.42400  Biso   1.000  H
  H80      1.0000 0.52990  0.96900  0.57600  Biso   1.000  H
  H81      1.0000 0.60440  0.07820  0.49990  Biso   1.000  H
  H82      1.0000 0.39560  0.92180  0.50010  Biso   1.000  H
  Cl5      1.0000 0.67490  0.31050  0.99990  Biso   1.000  Cl
  Cl6      1.0000 0.32510  0.68950  0.00010  Biso   1.000  Cl
  O33      1.0000 0.60930  0.33930  0.05620  Biso   1.000  O
  O34      1.0000 0.39070  0.66070  0.94380  Biso   1.000  O
  O35      1.0000 0.77430  0.38490  0.01960  Biso   1.000  O
  O36      1.0000 0.22570  0.61510  0.98040  Biso   1.000  O
  O37      1.0000 0.71760  0.23360  0.02170  Biso   1.000  O
  O38      1.0000 0.28240  0.76640  0.97830  Biso   1.000  O
  O39      1.0000 0.59810  0.28360  0.90170  Biso   1.000  O
  O40      1.0000 0.40190  0.71640  0.09830  Biso   1.000  O
  Cl7      1.0000 0.16810  0.74120  0.40660  Biso   1.000  Cl
  Cl8      1.0000 0.83190  0.25880  0.59340  Biso   1.000  Cl
  O41      1.0000 0.23460  0.81580  0.38990  Biso   1.000  O
  O42      1.0000 0.76540  0.18420  0.61010  Biso   1.000  O
  O43      1.0000 0.12020  0.66290  0.32350  Biso   1.000  O
  O44      1.0000 0.87980  0.33710  0.67650  Biso   1.000  O
  O45      1.0000 0.07200  0.76850  0.42850  Biso   1.000  O
  O46      1.0000 0.92800  0.23150  0.57150  Biso   1.000  O
  O47      1.0000 0.24550  0.71760  0.48440  Biso   1.000  O
  O48      1.0000 0.75450  0.28240  0.51560  Biso   1.000  O
  O49      1.0000 0.71060  0.12370  0.14940  Biso   1.000  O
  O50      1.0000 0.28940  0.87630  0.85060  Biso   1.000  O
  O51      1.0000 0.94930  0.46900  0.46880  Biso   1.000  O
  O52      1.0000 0.05070  0.53100  0.53120  Biso   1.000  O
