data_image0
_cell_length_a       16.049
_cell_length_b       9.622
_cell_length_c       7.465
_cell_angle_alpha    90
_cell_angle_beta     90
_cell_angle_gamma    90

_symmetry_space_group_name_H-M    "P 1"
_symmetry_int_tables_number       1

loop_
  _symmetry_equiv_pos_as_xyz
  'x, y, z'

loop_
  _atom_site_label
  _atom_site_occupancy
  _atom_site_fract_x
  _atom_site_fract_y
  _atom_site_fract_z
  _atom_site_thermal_displace_type
  _atom_site_B_iso_or_equiv
  _atom_site_type_symbol
  Cu1      1.0000 0.16560  0.15830  0.25980  Biso   1.000  Cu
  Cu2      1.0000 0.66560  0.34170  0.74020  Biso   1.000  Cu
  Cu3      1.0000 0.83440  0.65830  0.24020  Biso   1.000  Cu
  Cu4      1.0000 0.33440  0.84170  0.75980  Biso   1.000  Cu
  O1       1.0000 0.24100  0.81570  0.00320  Biso   1.000  O
  O2       1.0000 0.74100  0.68430  0.99680  Biso   1.000  O
  O3       1.0000 0.75900  0.31570  0.49680  Biso   1.000  O
  O4       1.0000 0.25900  0.18430  0.50320  Biso   1.000  O
  O5       1.0000 0.22970  0.03230  0.09880  Biso   1.000  O
  O6       1.0000 0.72970  0.46770  0.90120  Biso   1.000  O
  O7       1.0000 0.77030  0.53230  0.40120  Biso   1.000  O
  O8       1.0000 0.27030  0.96770  0.59880  Biso   1.000  O
  O9       1.0000 0.91870  0.77190  0.12460  Biso   1.000  O
  O10      1.0000 0.41870  0.72810  0.87540  Biso   1.000  O
  O11      1.0000 0.08130  0.27190  0.37540  Biso   1.000  O
  O12      1.0000 0.58130  0.22810  0.62460  Biso   1.000  O
  O13      1.0000 0.00190  0.70650  0.33670  Biso   1.000  O
  O14      1.0000 0.50190  0.79350  0.66330  Biso   1.000  O
  O15      1.0000 0.99810  0.20650  0.16330  Biso   1.000  O
  O16      1.0000 0.49810  0.29350  0.83670  Biso   1.000  O
  C1       1.0000 0.21260  0.90660  0.09810  Biso   1.000  C
  C2       1.0000 0.71260  0.59340  0.90190  Biso   1.000  C
  C3       1.0000 0.78740  0.40660  0.40190  Biso   1.000  C
  C4       1.0000 0.28740  0.09340  0.59810  Biso   1.000  C
  C5       1.0000 0.13810  0.86250  0.21110  Biso   1.000  C
  C6       1.0000 0.63810  0.63750  0.78890  Biso   1.000  C
  C7       1.0000 0.86190  0.36250  0.28890  Biso   1.000  C
  C8       1.0000 0.36190  0.13750  0.71110  Biso   1.000  C
  N1       1.0000 0.12690  0.97600  0.35210  Biso   1.000  N
  N2       1.0000 0.62690  0.52400  0.64790  Biso   1.000  N
  N3       1.0000 0.87310  0.47600  0.14790  Biso   1.000  N
  N4       1.0000 0.37310  0.02400  0.85210  Biso   1.000  N
  C9       1.0000 0.06050  0.83940  0.10360  Biso   1.000  C
  C10      1.0000 0.56050  0.66060  0.89640  Biso   1.000  C
  C11      1.0000 0.93950  0.33940  0.39640  Biso   1.000  C
  C12      1.0000 0.43950  0.16060  0.60360  Biso   1.000  C
  C13      1.0000 0.99000  0.77100  0.19610  Biso   1.000  C
  C14      1.0000 0.49000  0.72900  0.80390  Biso   1.000  C
  C15      1.0000 0.01000  0.27100  0.30390  Biso   1.000  C
  C16      1.0000 0.51000  0.22900  0.69610  Biso   1.000  C
  N5       1.0000 0.22160  0.32380  0.15760  Biso   1.000  N
  N6       1.0000 0.72160  0.17620  0.84240  Biso   1.000  N
  N7       1.0000 0.77840  0.82380  0.34240  Biso   1.000  N
  N8       1.0000 0.27840  0.67620  0.65760  Biso   1.000  N
  C17      1.0000 0.19010  0.44740  0.12040  Biso   1.000  C
  C18      1.0000 0.69010  0.05260  0.87960  Biso   1.000  C
  C19      1.0000 0.80990  0.94740  0.37960  Biso   1.000  C
  C20      1.0000 0.30990  0.55260  0.62040  Biso   1.000  C
  N9       1.0000 0.25160  0.53570  0.06830  Biso   1.000  N
  N10      1.0000 0.75160  0.96430  0.93170  Biso   1.000  N
  N11      1.0000 0.74840  0.03570  0.43170  Biso   1.000  N
  N12      1.0000 0.24840  0.46430  0.56830  Biso   1.000  N
  C21      1.0000 0.32270  0.45970  0.07400  Biso   1.000  C
  C22      1.0000 0.82270  0.04030  0.92600  Biso   1.000  C
  C23      1.0000 0.67730  0.95970  0.42600  Biso   1.000  C
  C24      1.0000 0.17730  0.54030  0.57400  Biso   1.000  C
  C25      1.0000 0.30560  0.33120  0.12590  Biso   1.000  C
  C26      1.0000 0.80560  0.16880  0.87410  Biso   1.000  C
  C27      1.0000 0.69440  0.83120  0.37410  Biso   1.000  C
  C28      1.0000 0.19440  0.66880  0.62590  Biso   1.000  C
  H1       1.0000 0.15250  0.77380  0.27370  Biso   1.000  H
  H2       1.0000 0.65250  0.72620  0.72630  Biso   1.000  H
  H3       1.0000 0.84750  0.27380  0.22630  Biso   1.000  H
  H4       1.0000 0.34750  0.22620  0.77370  Biso   1.000  H
  H5       1.0000 0.06660  0.98290  0.38430  Biso   1.000  H
  H6       1.0000 0.56660  0.51710  0.61570  Biso   1.000  H
  H7       1.0000 0.93340  0.48290  0.11570  Biso   1.000  H
  H8       1.0000 0.43340  0.01710  0.88430  Biso   1.000  H
  H9       1.0000 0.15990  0.95120  0.46110  Biso   1.000  H
  H10      1.0000 0.65990  0.54880  0.53890  Biso   1.000  H
  H11      1.0000 0.84010  0.45120  0.03890  Biso   1.000  H
  H12      1.0000 0.34010  0.04880  0.96110  Biso   1.000  H
  H13      1.0000 0.04070  0.93220  0.06110  Biso   1.000  H
  H14      1.0000 0.54070  0.56780  0.93890  Biso   1.000  H
  H15      1.0000 0.95930  0.43220  0.43890  Biso   1.000  H
  H16      1.0000 0.45930  0.06780  0.56110  Biso   1.000  H
  H17      1.0000 0.07570  0.78050  0.99830  Biso   1.000  H
  H18      1.0000 0.57570  0.71950  0.00170  Biso   1.000  H
  H19      1.0000 0.92430  0.28050  0.50170  Biso   1.000  H
  H20      1.0000 0.42430  0.21950  0.49830  Biso   1.000  H
  H21      1.0000 0.12980  0.47230  0.12930  Biso   1.000  H
  H22      1.0000 0.62980  0.02770  0.87070  Biso   1.000  H
  H23      1.0000 0.87020  0.97230  0.37070  Biso   1.000  H
  H24      1.0000 0.37020  0.52770  0.62930  Biso   1.000  H
  H25      1.0000 0.24570  0.63550  0.03320  Biso   1.000  H
  H26      1.0000 0.74570  0.86450  0.96680  Biso   1.000  H
  H27      1.0000 0.75430  0.13550  0.46680  Biso   1.000  H
  H28      1.0000 0.25430  0.36450  0.53320  Biso   1.000  H
  H29      1.0000 0.37950  0.49530  0.04360  Biso   1.000  H
  H30      1.0000 0.87950  0.00470  0.95640  Biso   1.000  H
  H31      1.0000 0.62050  0.99530  0.45640  Biso   1.000  H
  H32      1.0000 0.12050  0.50470  0.54360  Biso   1.000  H
  H33      1.0000 0.34660  0.25360  0.13950  Biso   1.000  H
  H34      1.0000 0.84660  0.24640  0.86050  Biso   1.000  H
  H35      1.0000 0.65340  0.75360  0.36050  Biso   1.000  H
  H36      1.0000 0.15340  0.74640  0.63950  Biso   1.000  H
  O17      1.0000 0.48340  0.50050  0.39600  Biso   1.000  O
  O18      1.0000 0.98340  0.99950  0.60400  Biso   1.000  O
  O19      1.0000 0.51660  0.00050  0.10400  Biso   1.000  O
  O20      1.0000 0.01660  0.49950  0.89600  Biso   1.000  O
  O21      1.0000 0.05560  0.20720  0.80380  Biso   1.000  O
  O22      1.0000 0.55560  0.29280  0.19620  Biso   1.000  O
  O23      1.0000 0.94440  0.70720  0.69620  Biso   1.000  O
  O24      1.0000 0.44440  0.79280  0.30380  Biso   1.000  O
