data_image0
_cell_length_a       11.942
_cell_length_b       8.719
_cell_length_c       16.123
_cell_angle_alpha    90
_cell_angle_beta     110.26
_cell_angle_gamma    90

_symmetry_space_group_name_H-M    "P 1"
_symmetry_int_tables_number       1

loop_
  _symmetry_equiv_pos_as_xyz
  'x, y, z'

loop_
  _atom_site_label
  _atom_site_occupancy
  _atom_site_fract_x
  _atom_site_fract_y
  _atom_site_fract_z
  _atom_site_thermal_displace_type
  _atom_site_B_iso_or_equiv
  _atom_site_type_symbol
  Cu1      1.0000 0.28723  0.04040  0.16171  Biso   1.000  Cu
  Cu2      1.0000 0.78723  0.45960  0.66171  Biso   1.000  Cu
  Cu3      1.0000 0.71277  0.95960  0.83829  Biso   1.000  Cu
  Cu4      1.0000 0.21277  0.54040  0.33829  Biso   1.000  Cu
  N1       1.0000 0.15219  0.13030  0.06686  Biso   1.000  N
  N2       1.0000 0.65219  0.36970  0.56686  Biso   1.000  N
  N3       1.0000 0.84781  0.86970  0.93314  Biso   1.000  N
  N4       1.0000 0.34781  0.63030  0.43314  Biso   1.000  N
  N5       1.0000 0.30115  0.89170  0.07294  Biso   1.000  N
  N6       1.0000 0.80115  0.60830  0.57294  Biso   1.000  N
  N7       1.0000 0.69885  0.10830  0.92706  Biso   1.000  N
  N8       1.0000 0.19885  0.39170  0.42706  Biso   1.000  N
  N9       1.0000 0.24937  0.08620  0.96383  Biso   1.000  N
  N10      1.0000 0.74937  0.41380  0.46383  Biso   1.000  N
  N11      1.0000 0.75063  0.91380  0.03617  Biso   1.000  N
  N12      1.0000 0.25063  0.58620  0.53617  Biso   1.000  N
  N13      1.0000 0.51820  0.97320  0.25609  Biso   1.000  N
  N14      1.0000 0.01820  0.52680  0.75609  Biso   1.000  N
  N15      1.0000 0.48180  0.02680  0.74391  Biso   1.000  N
  N16      1.0000 0.98180  0.47320  0.24391  Biso   1.000  N
  N17      1.0000 0.33102  0.34290  0.21357  Biso   1.000  N
  N18      1.0000 0.83102  0.15710  0.71357  Biso   1.000  N
  N19      1.0000 0.66898  0.65710  0.78643  Biso   1.000  N
  N20      1.0000 0.16898  0.84290  0.28643  Biso   1.000  N
  O1       1.0000 0.41586  0.94329  0.25888  Biso   1.000  O
  O2       1.0000 0.91586  0.55671  0.75888  Biso   1.000  O
  O3       1.0000 0.58414  0.05671  0.74112  Biso   1.000  O
  O4       1.0000 0.08414  0.44329  0.24112  Biso   1.000  O
  O5       1.0000 0.52620  0.05710  0.19773  Biso   1.000  O
  O6       1.0000 0.02620  0.44290  0.69773  Biso   1.000  O
  O7       1.0000 0.47380  0.94290  0.80227  Biso   1.000  O
  O8       1.0000 0.97380  0.55710  0.30227  Biso   1.000  O
  O9       1.0000 0.60700  0.92020  0.31343  Biso   1.000  O
  O10      1.0000 0.10700  0.57980  0.81343  Biso   1.000  O
  O11      1.0000 0.39300  0.07980  0.68657  Biso   1.000  O
  O12      1.0000 0.89300  0.42020  0.18657  Biso   1.000  O
  O13      1.0000 0.29615  0.22089  0.24132  Biso   1.000  O
  O14      1.0000 0.79615  0.27911  0.74132  Biso   1.000  O
  O15      1.0000 0.70385  0.77911  0.75868  Biso   1.000  O
  O16      1.0000 0.20385  0.72089  0.25868  Biso   1.000  O
  O17      1.0000 0.35700  0.33690  0.14651  Biso   1.000  O
  O18      1.0000 0.85700  0.16310  0.64651  Biso   1.000  O
  O19      1.0000 0.64300  0.66310  0.85349  Biso   1.000  O
  O20      1.0000 0.14300  0.83690  0.35349  Biso   1.000  O
  O21      1.0000 0.33725  0.46263  0.25598  Biso   1.000  O
  O22      1.0000 0.83725  0.03737  0.75598  Biso   1.000  O
  O23      1.0000 0.66275  0.53737  0.74402  Biso   1.000  O
  O24      1.0000 0.16275  0.96263  0.24402  Biso   1.000  O
  C1       1.0000 0.06190  0.19360  0.08745  Biso   1.000  C
  C2       1.0000 0.56190  0.30640  0.58745  Biso   1.000  C
  C3       1.0000 0.93810  0.80640  0.91255  Biso   1.000  C
  C4       1.0000 0.43810  0.69360  0.41255  Biso   1.000  C
  H1       1.0000 0.05910  0.17660  0.14370  Biso   1.000  H
  H2       1.0000 0.55910  0.32340  0.64370  Biso   1.000  H
  H3       1.0000 0.94090  0.82340  0.85630  Biso   1.000  H
  H4       1.0000 0.44090  0.67660  0.35630  Biso   1.000  H
  C5       1.0000 0.97470  0.28090  0.03001  Biso   1.000  C
  C6       1.0000 0.47470  0.21910  0.53001  Biso   1.000  C
  C7       1.0000 0.02530  0.71910  0.96999  Biso   1.000  C
  C8       1.0000 0.52530  0.78090  0.46999  Biso   1.000  C
  H5       1.0000 0.91360  0.32260  0.04620  Biso   1.000  H
  H6       1.0000 0.41360  0.17740  0.54620  Biso   1.000  H
  H7       1.0000 0.08640  0.67740  0.95380  Biso   1.000  H
  H8       1.0000 0.58640  0.82260  0.45380  Biso   1.000  H
  C9       1.0000 0.98010  0.30580  0.94633  Biso   1.000  C
  C10      1.0000 0.48010  0.19420  0.44633  Biso   1.000  C
  C11      1.0000 0.01990  0.69420  0.05367  Biso   1.000  C
  C12      1.0000 0.51990  0.80580  0.55367  Biso   1.000  C
  H9       1.0000 0.92320  0.36700  0.90590  Biso   1.000  H
  H10      1.0000 0.42320  0.13300  0.40590  Biso   1.000  H
  H11      1.0000 0.07680  0.63300  0.09410  Biso   1.000  H
  H12      1.0000 0.57680  0.86700  0.59410  Biso   1.000  H
  C13      1.0000 0.06880  0.24010  0.92379  Biso   1.000  C
  C14      1.0000 0.56880  0.25990  0.42379  Biso   1.000  C
  C15      1.0000 0.93120  0.75990  0.07621  Biso   1.000  C
  C16      1.0000 0.43120  0.74010  0.57621  Biso   1.000  C
  H13      1.0000 0.07160  0.25420  0.86730  Biso   1.000  H
  H14      1.0000 0.57160  0.24580  0.36730  Biso   1.000  H
  H15      1.0000 0.92840  0.74580  0.13270  Biso   1.000  H
  H16      1.0000 0.42840  0.75420  0.63270  Biso   1.000  H
  C17      1.0000 0.15590  0.15140  0.98544  Biso   1.000  C
  C18      1.0000 0.65590  0.34860  0.48544  Biso   1.000  C
  C19      1.0000 0.84410  0.84860  0.01456  Biso   1.000  C
  C20      1.0000 0.34410  0.65140  0.51456  Biso   1.000  C
  C21      1.0000 0.33800  0.74670  0.09755  Biso   1.000  C
  C22      1.0000 0.83800  0.75330  0.59755  Biso   1.000  C
  C23      1.0000 0.66200  0.25330  0.90245  Biso   1.000  C
  C24      1.0000 0.16200  0.24670  0.40245  Biso   1.000  C
  H17      1.0000 0.33410  0.71000  0.15060  Biso   1.000  H
  H18      1.0000 0.83410  0.79000  0.65060  Biso   1.000  H
  H19      1.0000 0.66590  0.29000  0.84940  Biso   1.000  H
  H20      1.0000 0.16590  0.21000  0.34940  Biso   1.000  H
  C25      1.0000 0.38050  0.65220  0.04812  Biso   1.000  C
  C26      1.0000 0.88050  0.84780  0.54812  Biso   1.000  C
  C27      1.0000 0.61950  0.34780  0.95188  Biso   1.000  C
  C28      1.0000 0.11950  0.15220  0.45188  Biso   1.000  C
  H21      1.0000 0.40360  0.55220  0.06620  Biso   1.000  H
  H22      1.0000 0.90360  0.94780  0.56620  Biso   1.000  H
  H23      1.0000 0.59640  0.44780  0.93380  Biso   1.000  H
  H24      1.0000 0.09640  0.05220  0.43380  Biso   1.000  H
  C29      1.0000 0.38830  0.70960  0.96980  Biso   1.000  C
  C30      1.0000 0.88830  0.79040  0.46980  Biso   1.000  C
  C31      1.0000 0.61170  0.29040  0.03020  Biso   1.000  C
  C32      1.0000 0.11170  0.20960  0.53020  Biso   1.000  C
  H25      1.0000 0.42080  0.64960  0.93610  Biso   1.000  H
  H26      1.0000 0.92080  0.85040  0.43610  Biso   1.000  H
  H27      1.0000 0.57920  0.35040  0.06390  Biso   1.000  H
  H28      1.0000 0.07920  0.14960  0.56390  Biso   1.000  H
  C33      1.0000 0.34820  0.85440  0.94227  Biso   1.000  C
  C34      1.0000 0.84820  0.64560  0.44227  Biso   1.000  C
  C35      1.0000 0.65180  0.14560  0.05773  Biso   1.000  C
  C36      1.0000 0.15180  0.35440  0.55773  Biso   1.000  C
  H29      1.0000 0.35320  0.89350  0.89000  Biso   1.000  H
  H30      1.0000 0.85320  0.60650  0.39000  Biso   1.000  H
  H31      1.0000 0.64680  0.10650  0.11000  Biso   1.000  H
  H32      1.0000 0.14680  0.39350  0.61000  Biso   1.000  H
  C37      1.0000 0.29950  0.94280  0.99376  Biso   1.000  C
  C38      1.0000 0.79950  0.55720  0.49376  Biso   1.000  C
  C39      1.0000 0.70050  0.05720  0.00624  Biso   1.000  C
  C40      1.0000 0.20050  0.44280  0.50624  Biso   1.000  C
  C41      1.0000 0.28060  0.15920  0.89204  Biso   1.000  C
  C42      1.0000 0.78060  0.34080  0.39204  Biso   1.000  C
  C43      1.0000 0.71940  0.84080  0.10796  Biso   1.000  C
  C44      1.0000 0.21940  0.65920  0.60796  Biso   1.000  C
  H33      1.0000 0.36420  0.13890  0.90230  Biso   1.000  H
  H34      1.0000 0.86420  0.36110  0.40230  Biso   1.000  H
  H35      1.0000 0.63580  0.86110  0.09770  Biso   1.000  H
  H36      1.0000 0.13580  0.63890  0.59770  Biso   1.000  H
  H37      1.0000 0.27180  0.26930  0.89600  Biso   1.000  H
  H38      1.0000 0.77180  0.23070  0.39600  Biso   1.000  H
  H39      1.0000 0.72820  0.73070  0.10400  Biso   1.000  H
  H40      1.0000 0.22820  0.76930  0.60400  Biso   1.000  H
  C45      1.0000 0.20940  0.10960  0.79938  Biso   1.000  C
  C46      1.0000 0.70940  0.39040  0.29938  Biso   1.000  C
  C47      1.0000 0.79060  0.89040  0.20062  Biso   1.000  C
  C48      1.0000 0.29060  0.60960  0.70062  Biso   1.000  C
  H41      1.0000 0.22450  0.16090  0.75380  Biso   1.000  H
  H42      1.0000 0.72450  0.33910  0.25380  Biso   1.000  H
  H43      1.0000 0.77550  0.83910  0.24620  Biso   1.000  H
  H44      1.0000 0.27550  0.66090  0.74620  Biso   1.000  H
  C49      1.0000 0.12950  0.00340  0.77680  Biso   1.000  C
  C50      1.0000 0.62950  0.49660  0.27680  Biso   1.000  C
  C51      1.0000 0.87050  0.99660  0.22320  Biso   1.000  C
  C52      1.0000 0.37050  0.50340  0.72320  Biso   1.000  C
  H45      1.0000 0.11110  0.94880  0.81990  Biso   1.000  H
  H46      1.0000 0.61110  0.55120  0.31990  Biso   1.000  H
  H47      1.0000 0.88890  0.05120  0.18010  Biso   1.000  H
  H48      1.0000 0.38890  0.44880  0.68010  Biso   1.000  H
  H49      1.0000 0.09020  0.98140  0.71730  Biso   1.000  H
  H50      1.0000 0.59020  0.51860  0.21730  Biso   1.000  H
  H51      1.0000 0.90980  0.01860  0.28270  Biso   1.000  H
  H52      1.0000 0.40980  0.48140  0.78270  Biso   1.000  H
