data_image0
_cell_length_a       9.663
_cell_length_b       13.368
_cell_length_c       20.334
_cell_angle_alpha    90
_cell_angle_beta     90
_cell_angle_gamma    90

_symmetry_space_group_name_H-M    "P 1"
_symmetry_int_tables_number       1

loop_
  _symmetry_equiv_pos_as_xyz
  'x, y, z'

loop_
  _atom_site_label
  _atom_site_occupancy
  _atom_site_fract_x
  _atom_site_fract_y
  _atom_site_fract_z
  _atom_site_thermal_displace_type
  _atom_site_B_iso_or_equiv
  _atom_site_type_symbol
  Cu1      1.0000 0.53194  0.91700  0.00516  Biso   1.000  Cu
  Cu2      1.0000 0.46806  0.41700  0.99484  Biso   1.000  Cu
  Cu3      1.0000 0.46806  0.91700  0.50516  Biso   1.000  Cu
  Cu4      1.0000 0.53194  0.41700  0.49484  Biso   1.000  Cu
  Cu5      1.0000 0.94820  0.68196  0.23520  Biso   1.000  Cu
  Cu6      1.0000 0.05180  0.18196  0.76480  Biso   1.000  Cu
  Cu7      1.0000 0.05180  0.68196  0.73520  Biso   1.000  Cu
  Cu8      1.0000 0.94820  0.18196  0.26480  Biso   1.000  Cu
  O1       1.0000 0.50370  0.91170  0.90560  Biso   1.000  O
  O2       1.0000 0.49630  0.41170  0.09440  Biso   1.000  O
  O3       1.0000 0.49630  0.91170  0.40560  Biso   1.000  O
  O4       1.0000 0.50370  0.41170  0.59440  Biso   1.000  O
  O5       1.0000 0.33620  0.89420  0.97340  Biso   1.000  O
  O6       1.0000 0.66380  0.39420  0.02660  Biso   1.000  O
  O7       1.0000 0.66380  0.89420  0.47340  Biso   1.000  O
  O8       1.0000 0.33620  0.39420  0.52660  Biso   1.000  O
  O9       1.0000 0.29380  0.89450  0.86780  Biso   1.000  O
  O10      1.0000 0.70620  0.39450  0.13220  Biso   1.000  O
  O11      1.0000 0.70620  0.89450  0.36780  Biso   1.000  O
  O12      1.0000 0.29380  0.39450  0.63220  Biso   1.000  O
  O13      1.0000 0.46110  0.08210  0.98880  Biso   1.000  O
  O14      1.0000 0.53890  0.58210  0.01120  Biso   1.000  O
  O15      1.0000 0.53890  0.08210  0.48880  Biso   1.000  O
  O16      1.0000 0.46110  0.58210  0.51120  Biso   1.000  O
  O17      1.0000 0.58940  0.16120  0.05750  Biso   1.000  O
  O18      1.0000 0.41060  0.66120  0.94250  Biso   1.000  O
  O19      1.0000 0.41060  0.16120  0.55750  Biso   1.000  O
  O20      1.0000 0.58940  0.66120  0.44250  Biso   1.000  O
  O21      1.0000 0.43630  0.23640  0.99600  Biso   1.000  O
  O22      1.0000 0.56370  0.73640  0.00400  Biso   1.000  O
  O23      1.0000 0.56370  0.23640  0.49600  Biso   1.000  O
  O24      1.0000 0.43630  0.73640  0.50400  Biso   1.000  O
  O25      1.0000 0.14450  0.68250  0.26674  Biso   1.000  O
  O26      1.0000 0.85550  0.18250  0.73326  Biso   1.000  O
  O27      1.0000 0.85550  0.68250  0.76674  Biso   1.000  O
  O28      1.0000 0.14450  0.18250  0.23326  Biso   1.000  O
  O29      1.0000 0.97720  0.70340  0.33520  Biso   1.000  O
  O30      1.0000 0.02280  0.20340  0.66480  Biso   1.000  O
  O31      1.0000 0.02280  0.70340  0.83520  Biso   1.000  O
  O32      1.0000 0.97720  0.20340  0.16480  Biso   1.000  O
  O33      1.0000 0.18920  0.70350  0.37140  Biso   1.000  O
  O34      1.0000 0.81080  0.20350  0.62860  Biso   1.000  O
  O35      1.0000 0.81080  0.70350  0.87140  Biso   1.000  O
  O36      1.0000 0.18920  0.20350  0.12860  Biso   1.000  O
  O37      1.0000 0.91740  0.51470  0.26430  Biso   1.000  O
  O38      1.0000 0.08260  0.01470  0.73570  Biso   1.000  O
  O39      1.0000 0.08260  0.51470  0.76430  Biso   1.000  O
  O40      1.0000 0.91740  0.01470  0.23570  Biso   1.000  O
  O41      1.0000 0.07930  0.44650  0.20580  Biso   1.000  O
  O42      1.0000 0.92070  0.94650  0.79420  Biso   1.000  O
  O43      1.0000 0.92070  0.44650  0.70580  Biso   1.000  O
  O44      1.0000 0.07930  0.94650  0.29420  Biso   1.000  O
  O45      1.0000 0.96910  0.36310  0.27910  Biso   1.000  O
  O46      1.0000 0.03090  0.86310  0.72090  Biso   1.000  O
  O47      1.0000 0.03090  0.36310  0.77910  Biso   1.000  O
  O48      1.0000 0.96910  0.86310  0.22090  Biso   1.000  O
  N1       1.0000 0.73330  0.92920  0.01030  Biso   1.000  N
  N2       1.0000 0.26670  0.42920  0.98970  Biso   1.000  N
  N3       1.0000 0.26670  0.92920  0.51030  Biso   1.000  N
  N4       1.0000 0.73330  0.42920  0.48970  Biso   1.000  N
  N5       1.0000 0.50250  0.91520  0.10020  Biso   1.000  N
  N6       1.0000 0.49750  0.41520  0.89980  Biso   1.000  N
  N7       1.0000 0.49750  0.91520  0.60020  Biso   1.000  N
  N8       1.0000 0.50250  0.41520  0.39980  Biso   1.000  N
  N9       1.0000 0.73770  0.94290  0.12670  Biso   1.000  N
  N10      1.0000 0.26230  0.44290  0.87330  Biso   1.000  N
  N11      1.0000 0.26230  0.94290  0.62670  Biso   1.000  N
  N12      1.0000 0.73770  0.44290  0.37330  Biso   1.000  N
  H1       1.0000 0.79270  0.95620  0.16010  Biso   1.000  H
  H2       1.0000 0.20730  0.45620  0.83990  Biso   1.000  H
  H3       1.0000 0.20730  0.95620  0.66010  Biso   1.000  H
  H4       1.0000 0.79270  0.45620  0.33990  Biso   1.000  H
  N13      1.0000 0.37210  0.90010  0.91350  Biso   1.000  N
  N14      1.0000 0.62790  0.40010  0.08650  Biso   1.000  N
  N15      1.0000 0.62790  0.90010  0.41350  Biso   1.000  N
  N16      1.0000 0.37210  0.40010  0.58650  Biso   1.000  N
  N17      1.0000 0.49660  0.16150  0.01600  Biso   1.000  N
  N18      1.0000 0.50340  0.66150  0.98400  Biso   1.000  N
  N19      1.0000 0.50340  0.16150  0.51600  Biso   1.000  N
  N20      1.0000 0.49660  0.66150  0.48400  Biso   1.000  N
  N21      1.0000 0.98120  0.68050  0.14090  Biso   1.000  N
  N22      1.0000 0.01880  0.18050  0.85910  Biso   1.000  N
  N23      1.0000 0.01880  0.68050  0.64090  Biso   1.000  N
  N24      1.0000 0.98120  0.18050  0.35910  Biso   1.000  N
  N25      1.0000 0.74790  0.68120  0.22940  Biso   1.000  N
  N26      1.0000 0.25210  0.18120  0.77060  Biso   1.000  N
  N27      1.0000 0.25210  0.68120  0.72940  Biso   1.000  N
  N28      1.0000 0.74790  0.18120  0.27060  Biso   1.000  N
  N29      1.0000 0.74440  0.67110  0.11260  Biso   1.000  N
  N30      1.0000 0.25560  0.17110  0.88740  Biso   1.000  N
  N31      1.0000 0.25560  0.67110  0.61260  Biso   1.000  N
  N32      1.0000 0.74440  0.17110  0.38740  Biso   1.000  N
  H5       1.0000 0.68840  0.66430  0.07870  Biso   1.000  H
  H6       1.0000 0.31160  0.16430  0.92130  Biso   1.000  H
  H7       1.0000 0.31160  0.66430  0.57870  Biso   1.000  H
  H8       1.0000 0.68840  0.16430  0.42130  Biso   1.000  H
  N33      1.0000 0.10890  0.69800  0.32690  Biso   1.000  N
  N34      1.0000 0.89110  0.19800  0.67310  Biso   1.000  N
  N35      1.0000 0.89110  0.69800  0.82690  Biso   1.000  N
  N36      1.0000 0.10890  0.19800  0.17310  Biso   1.000  N
  N37      1.0000 0.99060  0.44080  0.24680  Biso   1.000  N
  N38      1.0000 0.00940  0.94080  0.75320  Biso   1.000  N
  N39      1.0000 0.00940  0.44080  0.74680  Biso   1.000  N
  N40      1.0000 0.99060  0.94080  0.25320  Biso   1.000  N
  C1       1.0000 0.80560  0.92730  0.95310  Biso   1.000  C
  C2       1.0000 0.19440  0.42730  0.04690  Biso   1.000  C
  C3       1.0000 0.19440  0.92730  0.45310  Biso   1.000  C
  C4       1.0000 0.80560  0.42730  0.54690  Biso   1.000  C
  H9       1.0000 0.75630  0.91650  0.91330  Biso   1.000  H
  H10      1.0000 0.24370  0.41650  0.08670  Biso   1.000  H
  H11      1.0000 0.24370  0.91650  0.41330  Biso   1.000  H
  H12      1.0000 0.75630  0.41650  0.58670  Biso   1.000  H
  C5       1.0000 0.94580  0.94030  0.94970  Biso   1.000  C
  C6       1.0000 0.05420  0.44030  0.05030  Biso   1.000  C
  C7       1.0000 0.05420  0.94030  0.44970  Biso   1.000  C
  C8       1.0000 0.94580  0.44030  0.55030  Biso   1.000  C
  H13      1.0000 0.99340  0.93800  0.90890  Biso   1.000  H
  H14      1.0000 0.00660  0.43800  0.09110  Biso   1.000  H
  H15      1.0000 0.00660  0.93800  0.40890  Biso   1.000  H
  H16      1.0000 0.99340  0.43800  0.59110  Biso   1.000  H
  C9       1.0000 0.01700  0.95730  0.00900  Biso   1.000  C
  C10      1.0000 0.98300  0.45730  0.99100  Biso   1.000  C
  C11      1.0000 0.98300  0.95730  0.50900  Biso   1.000  C
  C12      1.0000 0.01700  0.45730  0.49100  Biso   1.000  C
  H17      1.0000 0.11430  0.96750  0.00880  Biso   1.000  H
  H18      1.0000 0.88570  0.46750  0.99120  Biso   1.000  H
  H19      1.0000 0.88570  0.96750  0.50880  Biso   1.000  H
  H20      1.0000 0.11430  0.46750  0.49120  Biso   1.000  H
  C13      1.0000 0.94650  0.95900  0.06630  Biso   1.000  C
  C14      1.0000 0.05350  0.45900  0.93370  Biso   1.000  C
  C15      1.0000 0.05350  0.95900  0.56630  Biso   1.000  C
  C16      1.0000 0.94650  0.45900  0.43370  Biso   1.000  C
  H21      1.0000 0.99430  0.97050  0.10640  Biso   1.000  H
  H22      1.0000 0.00570  0.47050  0.89360  Biso   1.000  H
  H23      1.0000 0.00570  0.97050  0.60640  Biso   1.000  H
  H24      1.0000 0.99430  0.47050  0.39360  Biso   1.000  H
  C17      1.0000 0.80510  0.94420  0.06670  Biso   1.000  C
  C18      1.0000 0.19490  0.44420  0.93330  Biso   1.000  C
  C19      1.0000 0.19490  0.94420  0.56670  Biso   1.000  C
  C20      1.0000 0.80510  0.44420  0.43330  Biso   1.000  C
  C21      1.0000 0.60310  0.92540  0.14550  Biso   1.000  C
  C22      1.0000 0.39690  0.42540  0.85450  Biso   1.000  C
  C23      1.0000 0.39690  0.92540  0.64550  Biso   1.000  C
  C24      1.0000 0.60310  0.42540  0.35450  Biso   1.000  C
  C25      1.0000 0.57450  0.91910  0.21270  Biso   1.000  C
  C26      1.0000 0.42550  0.41910  0.78730  Biso   1.000  C
  C27      1.0000 0.42550  0.91910  0.71270  Biso   1.000  C
  C28      1.0000 0.57450  0.41910  0.28730  Biso   1.000  C
  H25      1.0000 0.64730  0.92430  0.24400  Biso   1.000  H
  H26      1.0000 0.35270  0.42430  0.75600  Biso   1.000  H
  H27      1.0000 0.35270  0.92430  0.74400  Biso   1.000  H
  H28      1.0000 0.64730  0.42430  0.25600  Biso   1.000  H
  C29      1.0000 0.44180  0.90560  0.23310  Biso   1.000  C
  C30      1.0000 0.55820  0.40560  0.76690  Biso   1.000  C
  C31      1.0000 0.55820  0.90560  0.73310  Biso   1.000  C
  C32      1.0000 0.44180  0.40560  0.26690  Biso   1.000  C
  H29      1.0000 0.42060  0.90380  0.27870  Biso   1.000  H
  H30      1.0000 0.57940  0.40380  0.72130  Biso   1.000  H
  H31      1.0000 0.57940  0.90380  0.77870  Biso   1.000  H
  H32      1.0000 0.42060  0.40380  0.22130  Biso   1.000  H
  C33      1.0000 0.33760  0.89430  0.18650  Biso   1.000  C
  C34      1.0000 0.66240  0.39430  0.81350  Biso   1.000  C
  C35      1.0000 0.66240  0.89430  0.68650  Biso   1.000  C
  C36      1.0000 0.33760  0.39430  0.31350  Biso   1.000  C
  H33      1.0000 0.24430  0.88370  0.19950  Biso   1.000  H
  H34      1.0000 0.75570  0.38370  0.80050  Biso   1.000  H
  H35      1.0000 0.75570  0.88370  0.69950  Biso   1.000  H
  H36      1.0000 0.24430  0.38370  0.30050  Biso   1.000  H
  C37      1.0000 0.37320  0.89890  0.12180  Biso   1.000  C
  C38      1.0000 0.62680  0.39890  0.87820  Biso   1.000  C
  C39      1.0000 0.62680  0.89890  0.62180  Biso   1.000  C
  C40      1.0000 0.37320  0.39890  0.37820  Biso   1.000  C
  H37      1.0000 0.30220  0.89020  0.09000  Biso   1.000  H
  H38      1.0000 0.69780  0.39020  0.91000  Biso   1.000  H
  H39      1.0000 0.69780  0.89020  0.59000  Biso   1.000  H
  H40      1.0000 0.30220  0.39020  0.41000  Biso   1.000  H
  C41      1.0000 0.11260  0.69060  0.11940  Biso   1.000  C
  C42      1.0000 0.88740  0.19060  0.88060  Biso   1.000  C
  C43      1.0000 0.88740  0.69060  0.61940  Biso   1.000  C
  C44      1.0000 0.11260  0.19060  0.38060  Biso   1.000  C
  H41      1.0000 0.18490  0.69090  0.15100  Biso   1.000  H
  H42      1.0000 0.81510  0.19090  0.84900  Biso   1.000  H
  H43      1.0000 0.81510  0.69090  0.65100  Biso   1.000  H
  H44      1.0000 0.18490  0.19090  0.34900  Biso   1.000  H
  C45      1.0000 0.14770  0.70070  0.05400  Biso   1.000  C
  C46      1.0000 0.85230  0.20070  0.94600  Biso   1.000  C
  C47      1.0000 0.85230  0.70070  0.55400  Biso   1.000  C
  C48      1.0000 0.14770  0.20070  0.44600  Biso   1.000  C
  H45      1.0000 0.24180  0.70570  0.04100  Biso   1.000  H
  H46      1.0000 0.75820  0.20570  0.95900  Biso   1.000  H
  H47      1.0000 0.75820  0.70570  0.54100  Biso   1.000  H
  H48      1.0000 0.24180  0.20570  0.45900  Biso   1.000  H
  C49      1.0000 0.04340  0.70330  0.00790  Biso   1.000  C
  C50      1.0000 0.95660  0.20330  0.99210  Biso   1.000  C
  C51      1.0000 0.95660  0.70330  0.50790  Biso   1.000  C
  C52      1.0000 0.04340  0.20330  0.49210  Biso   1.000  C
  H49      1.0000 0.06490  0.71180  0.96270  Biso   1.000  H
  H50      1.0000 0.93510  0.21180  0.03730  Biso   1.000  H
  H51      1.0000 0.93510  0.71180  0.46270  Biso   1.000  H
  H52      1.0000 0.06490  0.21180  0.53730  Biso   1.000  H
  C53      1.0000 0.90950  0.69360  0.02740  Biso   1.000  C
  C54      1.0000 0.09050  0.19360  0.97260  Biso   1.000  C
  C55      1.0000 0.09050  0.69360  0.52740  Biso   1.000  C
  C56      1.0000 0.90950  0.19360  0.47260  Biso   1.000  C
  H53      1.0000 0.83610  0.69420  0.99630  Biso   1.000  H
  H54      1.0000 0.16390  0.19420  0.00370  Biso   1.000  H
  H55      1.0000 0.16390  0.69420  0.49630  Biso   1.000  H
  H56      1.0000 0.83610  0.19420  0.50370  Biso   1.000  H
  C57      1.0000 0.88290  0.68270  0.09550  Biso   1.000  C
  C58      1.0000 0.11710  0.18270  0.90450  Biso   1.000  C
  C59      1.0000 0.11710  0.68270  0.59550  Biso   1.000  C
  C60      1.0000 0.88290  0.18270  0.40450  Biso   1.000  C
  C61      1.0000 0.67880  0.66840  0.17250  Biso   1.000  C
  C62      1.0000 0.32120  0.16840  0.82750  Biso   1.000  C
  C63      1.0000 0.32120  0.66840  0.67250  Biso   1.000  C
  C64      1.0000 0.67880  0.16840  0.32750  Biso   1.000  C
  C65      1.0000 0.53490  0.64940  0.17280  Biso   1.000  C
  C66      1.0000 0.46510  0.14940  0.82720  Biso   1.000  C
  C67      1.0000 0.46510  0.64940  0.67280  Biso   1.000  C
  C68      1.0000 0.53490  0.14940  0.32720  Biso   1.000  C
  H57      1.0000 0.48750  0.63610  0.13280  Biso   1.000  H
  H58      1.0000 0.51250  0.13610  0.86720  Biso   1.000  H
  H59      1.0000 0.51250  0.63610  0.63280  Biso   1.000  H
  H60      1.0000 0.48750  0.13610  0.36720  Biso   1.000  H
  C69      1.0000 0.46460  0.65040  0.23100  Biso   1.000  C
  C70      1.0000 0.53540  0.15040  0.76900  Biso   1.000  C
  C71      1.0000 0.53540  0.65040  0.73100  Biso   1.000  C
  C72      1.0000 0.46460  0.15040  0.26900  Biso   1.000  C
  H61      1.0000 0.36760  0.63890  0.23170  Biso   1.000  H
  H62      1.0000 0.63240  0.13890  0.76830  Biso   1.000  H
  H63      1.0000 0.63240  0.63890  0.73170  Biso   1.000  H
  H64      1.0000 0.36760  0.13890  0.26830  Biso   1.000  H
  C73      1.0000 0.53570  0.66830  0.28900  Biso   1.000  C
  C74      1.0000 0.46430  0.16830  0.71100  Biso   1.000  C
  C75      1.0000 0.46430  0.66830  0.78900  Biso   1.000  C
  C76      1.0000 0.53570  0.16830  0.21100  Biso   1.000  C
  H65      1.0000 0.48800  0.67010  0.32990  Biso   1.000  H
  H66      1.0000 0.51200  0.17010  0.67010  Biso   1.000  H
  H67      1.0000 0.51200  0.67010  0.82990  Biso   1.000  H
  H68      1.0000 0.48800  0.17010  0.17010  Biso   1.000  H
  C77      1.0000 0.67610  0.68340  0.28640  Biso   1.000  C
  C78      1.0000 0.32390  0.18340  0.71360  Biso   1.000  C
  C79      1.0000 0.32390  0.68340  0.78640  Biso   1.000  C
  C80      1.0000 0.67610  0.18340  0.21360  Biso   1.000  C
  H69      1.0000 0.72460  0.69590  0.32620  Biso   1.000  H
  H70      1.0000 0.27540  0.19590  0.67380  Biso   1.000  H
  H71      1.0000 0.27540  0.69590  0.82620  Biso   1.000  H
  H72      1.0000 0.72460  0.19590  0.17380  Biso   1.000  H
