data_image0
_cell_length_a       20.6997
_cell_length_b       9.8938
_cell_length_c       13.708
_cell_angle_alpha    90
_cell_angle_beta     90
_cell_angle_gamma    90

_symmetry_space_group_name_H-M    "P 1"
_symmetry_int_tables_number       1

loop_
  _symmetry_equiv_pos_as_xyz
  'x, y, z'

loop_
  _atom_site_label
  _atom_site_occupancy
  _atom_site_fract_x
  _atom_site_fract_y
  _atom_site_fract_z
  _atom_site_thermal_displace_type
  _atom_site_B_iso_or_equiv
  _atom_site_type_symbol
  Cu1      1.0000 0.26381  0.55940  0.40509  Biso   1.000  Cu
  Cu2      1.0000 0.73619  0.44060  0.90509  Biso   1.000  Cu
  Cu3      1.0000 0.76381  0.44060  0.40509  Biso   1.000  Cu
  Cu4      1.0000 0.23619  0.55940  0.90509  Biso   1.000  Cu
  N1       1.0000 0.26901  0.75790  0.40490  Biso   1.000  N
  N2       1.0000 0.73099  0.24210  0.90490  Biso   1.000  N
  N3       1.0000 0.76901  0.24210  0.40490  Biso   1.000  N
  N4       1.0000 0.23099  0.75790  0.90490  Biso   1.000  N
  N5       1.0000 0.35867  0.52810  0.40420  Biso   1.000  N
  N6       1.0000 0.64133  0.47190  0.90420  Biso   1.000  N
  N7       1.0000 0.85867  0.47190  0.40420  Biso   1.000  N
  N8       1.0000 0.14133  0.52810  0.90420  Biso   1.000  N
  N9       1.0000 0.25440  0.52070  0.64620  Biso   1.000  N
  N10      1.0000 0.74560  0.47930  0.14620  Biso   1.000  N
  N11      1.0000 0.75440  0.47930  0.64620  Biso   1.000  N
  N12      1.0000 0.24560  0.52070  0.14620  Biso   1.000  N
  C1       1.0000 0.32520  0.82850  0.41850  Biso   1.000  C
  C2       1.0000 0.67480  0.17150  0.91850  Biso   1.000  C
  C3       1.0000 0.82520  0.17150  0.41850  Biso   1.000  C
  C4       1.0000 0.17480  0.82850  0.91850  Biso   1.000  C
  O1       1.0000 0.23377  0.36480  0.40260  Biso   1.000  O
  O2       1.0000 0.76623  0.63520  0.90260  Biso   1.000  O
  O3       1.0000 0.73377  0.63520  0.40260  Biso   1.000  O
  O4       1.0000 0.26623  0.36480  0.90260  Biso   1.000  O
  C5       1.0000 0.21160  0.82840  0.40080  Biso   1.000  C
  C6       1.0000 0.78840  0.17160  0.90080  Biso   1.000  C
  C7       1.0000 0.71160  0.17160  0.40080  Biso   1.000  C
  C8       1.0000 0.28840  0.82840  0.90080  Biso   1.000  C
  O5       1.0000 0.16371  0.52680  0.38820  Biso   1.000  O
  O6       1.0000 0.83629  0.47320  0.88820  Biso   1.000  O
  O7       1.0000 0.66371  0.47320  0.38820  Biso   1.000  O
  O8       1.0000 0.33629  0.52680  0.88820  Biso   1.000  O
  N13      1.0000 0.17314  0.39750  0.39200  Biso   1.000  N
  N14      1.0000 0.82686  0.60250  0.89200  Biso   1.000  N
  N15      1.0000 0.67314  0.60250  0.39200  Biso   1.000  N
  N16      1.0000 0.32686  0.39750  0.89200  Biso   1.000  N
  C9       1.0000 0.38090  0.39910  0.39430  Biso   1.000  C
  C10      1.0000 0.61910  0.60090  0.89430  Biso   1.000  C
  C11      1.0000 0.88090  0.60090  0.39430  Biso   1.000  C
  C12      1.0000 0.11910  0.39910  0.89430  Biso   1.000  C
  C13      1.0000 0.47105  0.60070  0.39890  Biso   1.000  C
  C14      1.0000 0.52895  0.39930  0.89890  Biso   1.000  C
  C15      1.0000 0.97105  0.39930  0.39890  Biso   1.000  C
  C16      1.0000 0.02895  0.60070  0.89890  Biso   1.000  C
  C17      1.0000 0.40329  0.62870  0.40680  Biso   1.000  C
  C18      1.0000 0.59671  0.37130  0.90680  Biso   1.000  C
  C19      1.0000 0.90329  0.37130  0.40680  Biso   1.000  C
  C20      1.0000 0.09671  0.62870  0.90680  Biso   1.000  C
  N17      1.0000 0.38515  0.76190  0.41870  Biso   1.000  N
  N18      1.0000 0.61485  0.23810  0.91870  Biso   1.000  N
  N19      1.0000 0.88515  0.23810  0.41870  Biso   1.000  N
  N20      1.0000 0.11485  0.76190  0.91870  Biso   1.000  N
  C21      1.0000 0.32470  0.96990  0.43210  Biso   1.000  C
  C22      1.0000 0.67530  0.03010  0.93210  Biso   1.000  C
  C23      1.0000 0.82470  0.03010  0.43210  Biso   1.000  C
  C24      1.0000 0.17530  0.96990  0.93210  Biso   1.000  C
  C25      1.0000 0.20780  0.96780  0.41160  Biso   1.000  C
  C26      1.0000 0.79220  0.03220  0.91160  Biso   1.000  C
  C27      1.0000 0.70780  0.03220  0.41160  Biso   1.000  C
  C28      1.0000 0.29220  0.96780  0.91160  Biso   1.000  C
  O9       1.0000 0.29440  0.43160  0.64170  Biso   1.000  O
  O10      1.0000 0.70560  0.56840  0.14170  Biso   1.000  O
  O11      1.0000 0.79440  0.56840  0.64170  Biso   1.000  O
  O12      1.0000 0.20560  0.43160  0.14170  Biso   1.000  O
  C29      1.0000 0.49140  0.46940  0.38750  Biso   1.000  C
  C30      1.0000 0.50860  0.53060  0.88750  Biso   1.000  C
  C31      1.0000 0.99140  0.53060  0.38750  Biso   1.000  C
  C32      1.0000 0.00860  0.46940  0.88750  Biso   1.000  C
  H1       1.0000 0.53520  0.44970  0.38190  Biso   1.000  H
  H2       1.0000 0.46480  0.55030  0.88190  Biso   1.000  H
  H3       1.0000 0.03520  0.55030  0.38190  Biso   1.000  H
  H4       1.0000 0.96480  0.44970  0.88190  Biso   1.000  H
  O13      1.0000 0.23610  0.58950  0.57260  Biso   1.000  O
  O14      1.0000 0.76390  0.41050  0.07260  Biso   1.000  O
  O15      1.0000 0.73610  0.41050  0.57260  Biso   1.000  O
  O16      1.0000 0.26390  0.58950  0.07260  Biso   1.000  O
  C33      1.0000 0.26620  0.03850  0.42850  Biso   1.000  C
  C34      1.0000 0.73380  0.96150  0.92850  Biso   1.000  C
  C35      1.0000 0.76620  0.96150  0.42850  Biso   1.000  C
  C36      1.0000 0.23380  0.03850  0.92850  Biso   1.000  C
  O17      1.0000 0.12870  0.31640  0.41090  Biso   1.000  O
  O18      1.0000 0.87130  0.68360  0.91090  Biso   1.000  O
  O19      1.0000 0.62870  0.68360  0.41090  Biso   1.000  O
  O20      1.0000 0.37130  0.31640  0.91090  Biso   1.000  O
  O21      1.0000 0.13080  0.31450  0.36660  Biso   1.000  O
  O22      1.0000 0.86920  0.68550  0.86660  Biso   1.000  O
  O23      1.0000 0.63080  0.68550  0.36660  Biso   1.000  O
  O24      1.0000 0.36920  0.31450  0.86660  Biso   1.000  O
  C37      1.0000 0.44560  0.36610  0.38460  Biso   1.000  C
  C38      1.0000 0.55440  0.63390  0.88460  Biso   1.000  C
  C39      1.0000 0.94560  0.63390  0.38460  Biso   1.000  C
  C40      1.0000 0.05440  0.36610  0.88460  Biso   1.000  C
  Cu5      1.0000 0.49359  0.97586  0.16613  Biso   1.000  Cu
  Cu6      1.0000 0.50641  0.02414  0.66613  Biso   1.000  Cu
  Cu7      1.0000 0.99359  0.02414  0.16613  Biso   1.000  Cu
  Cu8      1.0000 0.00641  0.97586  0.66613  Biso   1.000  Cu
  N21      1.0000 0.39866  0.00550  0.16720  Biso   1.000  N
  N22      1.0000 0.60134  0.99450  0.66720  Biso   1.000  N
  N23      1.0000 0.89866  0.99450  0.16720  Biso   1.000  N
  N24      1.0000 0.10134  0.00550  0.66720  Biso   1.000  N
  O25      1.0000 0.59305  0.00420  0.17360  Biso   1.000  O
  O26      1.0000 0.40695  0.99580  0.67360  Biso   1.000  O
  O27      1.0000 0.09305  0.99580  0.17360  Biso   1.000  O
  O28      1.0000 0.90695  0.00420  0.67360  Biso   1.000  O
  N25      1.0000 0.48899  0.77690  0.15720  Biso   1.000  N
  N26      1.0000 0.51101  0.22310  0.65720  Biso   1.000  N
  N27      1.0000 0.98899  0.22310  0.15720  Biso   1.000  N
  N28      1.0000 0.01101  0.77690  0.65720  Biso   1.000  N
  N29      1.0000 0.37250  0.77140  0.14520  Biso   1.000  N
  N30      1.0000 0.62750  0.22860  0.64520  Biso   1.000  N
  N31      1.0000 0.87250  0.22860  0.14520  Biso   1.000  N
  N32      1.0000 0.12750  0.77140  0.64520  Biso   1.000  N
  H5       1.0000 0.34050  0.71780  0.13440  Biso   1.000  H
  H6       1.0000 0.65950  0.28220  0.63440  Biso   1.000  H
  H7       1.0000 0.84050  0.28220  0.13440  Biso   1.000  H
  H8       1.0000 0.15950  0.71780  0.63440  Biso   1.000  H
  C41      1.0000 0.54590  0.70490  0.15910  Biso   1.000  C
  C42      1.0000 0.45410  0.29510  0.65910  Biso   1.000  C
  C43      1.0000 0.04590  0.29510  0.15910  Biso   1.000  C
  C44      1.0000 0.95410  0.70490  0.65910  Biso   1.000  C
  C45      1.0000 0.26630  0.06330  0.17570  Biso   1.000  C
  C46      1.0000 0.73370  0.93670  0.67570  Biso   1.000  C
  C47      1.0000 0.76630  0.93670  0.17570  Biso   1.000  C
  C48      1.0000 0.23370  0.06330  0.67570  Biso   1.000  C
  H9       1.0000 0.22230  0.08270  0.17820  Biso   1.000  H
  H10      1.0000 0.77770  0.91730  0.67820  Biso   1.000  H
  H11      1.0000 0.72230  0.91730  0.17820  Biso   1.000  H
  H12      1.0000 0.27770  0.08270  0.67820  Biso   1.000  H
  N33      1.0000 0.58500  0.13370  0.18210  Biso   1.000  N
  N34      1.0000 0.41500  0.86630  0.68210  Biso   1.000  N
  N35      1.0000 0.08500  0.86630  0.18210  Biso   1.000  N
  N36      1.0000 0.91500  0.13370  0.68210  Biso   1.000  N
  C49      1.0000 0.54960  0.56760  0.14930  Biso   1.000  C
  C50      1.0000 0.45040  0.43240  0.64930  Biso   1.000  C
  C51      1.0000 0.04960  0.43240  0.14930  Biso   1.000  C
  C52      1.0000 0.95040  0.56760  0.64930  Biso   1.000  C
  C53      1.0000 0.43390  0.56400  0.13220  Biso   1.000  C
  C54      1.0000 0.56610  0.43600  0.63220  Biso   1.000  C
  C55      1.0000 0.93390  0.43600  0.13220  Biso   1.000  C
  C56      1.0000 0.06610  0.56400  0.63220  Biso   1.000  C
  O29      1.0000 0.62980  0.21250  0.18760  Biso   1.000  O
  O30      1.0000 0.37020  0.78750  0.68760  Biso   1.000  O
  O31      1.0000 0.12980  0.78750  0.18760  Biso   1.000  O
  O32      1.0000 0.87020  0.21250  0.68760  Biso   1.000  O
  C57      1.0000 0.35453  0.90420  0.15940  Biso   1.000  C
  C58      1.0000 0.64547  0.09580  0.65940  Biso   1.000  C
  C59      1.0000 0.85453  0.09580  0.15940  Biso   1.000  C
  C60      1.0000 0.14547  0.90420  0.65940  Biso   1.000  C
  O33      1.0000 0.52501  0.16970  0.18480  Biso   1.000  O
  O34      1.0000 0.47499  0.83030  0.68480  Biso   1.000  O
  O35      1.0000 0.02501  0.83030  0.18480  Biso   1.000  O
  O36      1.0000 0.97499  0.16970  0.68480  Biso   1.000  O
  C61      1.0000 0.49100  0.49450  0.13420  Biso   1.000  C
  C62      1.0000 0.50900  0.50550  0.63420  Biso   1.000  C
  C63      1.0000 0.99100  0.50550  0.13420  Biso   1.000  C
  C64      1.0000 0.00900  0.49450  0.63420  Biso   1.000  C
  H13      1.0000 0.49160  0.40120  0.12590  Biso   1.000  H
  H14      1.0000 0.50840  0.59880  0.62590  Biso   1.000  H
  H15      1.0000 0.99160  0.59880  0.12590  Biso   1.000  H
  H16      1.0000 0.00840  0.40120  0.62590  Biso   1.000  H
  C65      1.0000 0.43310  0.70660  0.14510  Biso   1.000  C
  C66      1.0000 0.56690  0.29340  0.64510  Biso   1.000  C
  C67      1.0000 0.93310  0.29340  0.14510  Biso   1.000  C
  C68      1.0000 0.06690  0.70660  0.64510  Biso   1.000  C
  C69      1.0000 0.28710  0.93120  0.16360  Biso   1.000  C
  C70      1.0000 0.71290  0.06880  0.66360  Biso   1.000  C
  C71      1.0000 0.78710  0.06880  0.16360  Biso   1.000  C
  C72      1.0000 0.21290  0.93120  0.66360  Biso   1.000  C
  H17      1.0000 0.25730  0.86120  0.15830  Biso   1.000  H
  H18      1.0000 0.74270  0.13880  0.65830  Biso   1.000  H
  H19      1.0000 0.75730  0.13880  0.15830  Biso   1.000  H
  H20      1.0000 0.24270  0.86120  0.65830  Biso   1.000  H
  C73      1.0000 0.37620  0.13400  0.17970  Biso   1.000  C
  C74      1.0000 0.62380  0.86600  0.67970  Biso   1.000  C
  C75      1.0000 0.87620  0.86600  0.17970  Biso   1.000  C
  C76      1.0000 0.12380  0.13400  0.67970  Biso   1.000  C
  O37      1.0000 0.22490  0.55090  0.72310  Biso   1.000  O
  O38      1.0000 0.77510  0.44910  0.22310  Biso   1.000  O
  O39      1.0000 0.72490  0.44910  0.72310  Biso   1.000  O
  O40      1.0000 0.27510  0.55090  0.22310  Biso   1.000  O
  C77      1.0000 0.31240  0.16930  0.18440  Biso   1.000  C
  C78      1.0000 0.68760  0.83070  0.68440  Biso   1.000  C
  C79      1.0000 0.81240  0.83070  0.18440  Biso   1.000  C
  C80      1.0000 0.18760  0.16930  0.68440  Biso   1.000  C
  N37      1.0000 0.48661  0.99440  0.92260  Biso   1.000  N
  N38      1.0000 0.51339  0.00560  0.42260  Biso   1.000  N
  N39      1.0000 0.98661  0.00560  0.92260  Biso   1.000  N
  N40      1.0000 0.01339  0.99440  0.42260  Biso   1.000  N
  O41      1.0000 0.44635  0.90170  0.92350  Biso   1.000  O
  O42      1.0000 0.55365  0.09830  0.42350  Biso   1.000  O
  O43      1.0000 0.94635  0.09830  0.92350  Biso   1.000  O
  O44      1.0000 0.05365  0.90170  0.42350  Biso   1.000  O
  O45      1.0000 0.50540  0.05920  0.00100  Biso   1.000  O
  O46      1.0000 0.49460  0.94080  0.50100  Biso   1.000  O
  O47      1.0000 0.00540  0.94080  0.00100  Biso   1.000  O
  O48      1.0000 0.99460  0.05920  0.50100  Biso   1.000  O
  O49      1.0000 0.52280  0.00600  0.99560  Biso   1.000  O
  O50      1.0000 0.47720  0.99400  0.49560  Biso   1.000  O
  O51      1.0000 0.02280  0.99400  0.99560  Biso   1.000  O
  O52      1.0000 0.97720  0.00600  0.49560  Biso   1.000  O
  O53      1.0000 0.49690  0.06950  0.84660  Biso   1.000  O
  O54      1.0000 0.50310  0.93050  0.34660  Biso   1.000  O
  O55      1.0000 0.99690  0.93050  0.84660  Biso   1.000  O
  O56      1.0000 0.00310  0.06950  0.34660  Biso   1.000  O
  O57      1.0000 0.51940  0.02510  0.84820  Biso   1.000  O
  O58      1.0000 0.48060  0.97490  0.34820  Biso   1.000  O
  O59      1.0000 0.01940  0.97490  0.84820  Biso   1.000  O
  O60      1.0000 0.98060  0.02510  0.34820  Biso   1.000  O
  H21      1.0000 0.58110  0.75490  0.17580  Biso   1.000  H
  H22      1.0000 0.41890  0.24510  0.67580  Biso   1.000  H
  H23      1.0000 0.08110  0.24510  0.17580  Biso   1.000  H
  H24      1.0000 0.91890  0.75490  0.67580  Biso   1.000  H
  H25      1.0000 0.36700  0.00690  0.45180  Biso   1.000  H
  H26      1.0000 0.63300  0.99310  0.95180  Biso   1.000  H
  H27      1.0000 0.86700  0.99310  0.45180  Biso   1.000  H
  H28      1.0000 0.13300  0.00690  0.95180  Biso   1.000  H
  H29      1.0000 0.50190  0.69280  0.39550  Biso   1.000  H
  H30      1.0000 0.49810  0.30720  0.89550  Biso   1.000  H
  H31      1.0000 0.00190  0.30720  0.39550  Biso   1.000  H
  H32      1.0000 0.99810  0.69280  0.89550  Biso   1.000  H
  H33      1.0000 0.40590  0.20010  0.19370  Biso   1.000  H
  H34      1.0000 0.59410  0.79990  0.69370  Biso   1.000  H
  H35      1.0000 0.90590  0.79990  0.19370  Biso   1.000  H
  H36      1.0000 0.09410  0.20010  0.69370  Biso   1.000  H
  H37      1.0000 0.40750  0.50980  0.13050  Biso   1.000  H
  H38      1.0000 0.59250  0.49020  0.63050  Biso   1.000  H
  H39      1.0000 0.90750  0.49020  0.13050  Biso   1.000  H
  H40      1.0000 0.09250  0.50980  0.63050  Biso   1.000  H
  H41      1.0000 0.29780  0.25500  0.20570  Biso   1.000  H
  H42      1.0000 0.70220  0.74500  0.70570  Biso   1.000  H
  H43      1.0000 0.79780  0.74500  0.20570  Biso   1.000  H
  H44      1.0000 0.20220  0.25500  0.70570  Biso   1.000  H
  H45      1.0000 0.58820  0.52430  0.13410  Biso   1.000  H
  H46      1.0000 0.41180  0.47570  0.63410  Biso   1.000  H
  H47      1.0000 0.08820  0.47570  0.13410  Biso   1.000  H
  H48      1.0000 0.91180  0.52430  0.63410  Biso   1.000  H
  H49      1.0000 0.16730  0.01230  0.39190  Biso   1.000  H
  H50      1.0000 0.83270  0.98770  0.89190  Biso   1.000  H
  H51      1.0000 0.66730  0.98770  0.39190  Biso   1.000  H
  H52      1.0000 0.33270  0.01230  0.89190  Biso   1.000  H
  H53      1.0000 0.17060  0.76590  0.37790  Biso   1.000  H
  H54      1.0000 0.82940  0.23410  0.87790  Biso   1.000  H
  H55      1.0000 0.67060  0.23410  0.37790  Biso   1.000  H
  H56      1.0000 0.32940  0.76590  0.87790  Biso   1.000  H
  H57      1.0000 0.26410  0.12560  0.42890  Biso   1.000  H
  H58      1.0000 0.73590  0.87440  0.92890  Biso   1.000  H
  H59      1.0000 0.76410  0.87440  0.42890  Biso   1.000  H
  H60      1.0000 0.23590  0.12560  0.92890  Biso   1.000  H
  H61      1.0000 0.45640  0.24350  0.38900  Biso   1.000  H
  H62      1.0000 0.54360  0.75650  0.88900  Biso   1.000  H
  H63      1.0000 0.95640  0.75650  0.38900  Biso   1.000  H
  H64      1.0000 0.04360  0.24350  0.88900  Biso   1.000  H
  H65      1.0000 0.36720  0.35630  0.38370  Biso   1.000  H
  H66      1.0000 0.63280  0.64370  0.88370  Biso   1.000  H
  H67      1.0000 0.86720  0.64370  0.38370  Biso   1.000  H
  H68      1.0000 0.13280  0.35630  0.88370  Biso   1.000  H
  H69      1.0000 0.41720  0.80780  0.42130  Biso   1.000  H
  H70      1.0000 0.58280  0.19220  0.92130  Biso   1.000  H
  H71      1.0000 0.91720  0.19220  0.42130  Biso   1.000  H
  H72      1.0000 0.08280  0.80780  0.92130  Biso   1.000  H
