data_image0
_cell_length_a       7.0447
_cell_length_b       13.5017
_cell_length_c       13.9819
_cell_angle_alpha    65.005
_cell_angle_beta     88.326
_cell_angle_gamma    89.161

_symmetry_space_group_name_H-M    "P 1"
_symmetry_int_tables_number       1

loop_
  _symmetry_equiv_pos_as_xyz
  'x, y, z'

loop_
  _atom_site_label
  _atom_site_occupancy
  _atom_site_fract_x
  _atom_site_fract_y
  _atom_site_fract_z
  _atom_site_thermal_displace_type
  _atom_site_B_iso_or_equiv
  _atom_site_type_symbol
  C1       1.0000 0.77630  0.54651  0.53538  Biso   1.000  C
  C2       1.0000 0.22370  0.45349  0.46462  Biso   1.000  C
  C3       1.0000 0.74060  0.47496  0.40133  Biso   1.000  C
  C4       1.0000 0.25940  0.52504  0.59867  Biso   1.000  C
  C5       1.0000 0.66680  0.37763  0.48441  Biso   1.000  C
  C6       1.0000 0.33320  0.62237  0.51559  Biso   1.000  C
  H1       1.0000 0.62570  0.32010  0.47030  Biso   1.000  H
  H2       1.0000 0.37430  0.67990  0.52970  Biso   1.000  H
  C7       1.0000 0.65760  0.37059  0.58351  Biso   1.000  C
  C8       1.0000 0.34240  0.62941  0.41649  Biso   1.000  C
  C9       1.0000 0.57380  0.27103  0.67366  Biso   1.000  C
  C10      1.0000 0.42620  0.72897  0.32634  Biso   1.000  C
  C11      1.0000 0.80050  0.51620  0.88620  Biso   1.000  C
  C12      1.0000 0.19950  0.48380  0.11380  Biso   1.000  C
  H3       1.0000 0.69090  0.56320  0.87780  Biso   1.000  H
  H4       1.0000 0.30910  0.43680  0.12220  Biso   1.000  H
  H5       1.0000 0.90460  0.54510  0.91050  Biso   1.000  H
  H6       1.0000 0.09540  0.45490  0.08950  Biso   1.000  H
  C13      1.0000 0.75540  0.40310  0.96490  Biso   1.000  C
  C14      1.0000 0.24460  0.59690  0.03510  Biso   1.000  C
  H7       1.0000 0.87110  0.36020  0.98470  Biso   1.000  H
  H8       1.0000 0.12890  0.63980  0.01530  Biso   1.000  H
  H9       1.0000 0.69730  0.40510  0.02790  Biso   1.000  H
  H10      1.0000 0.30270  0.59490  0.97210  Biso   1.000  H
  C15      1.0000 0.42220  0.37290  0.93220  Biso   1.000  C
  C16      1.0000 0.57780  0.62710  0.06780  Biso   1.000  C
  H11      1.0000 0.34720  0.33760  0.89950  Biso   1.000  H
  H12      1.0000 0.65280  0.66240  0.10050  Biso   1.000  H
  H13      1.0000 0.39740  0.45010  0.90010  Biso   1.000  H
  H14      1.0000 0.60260  0.54990  0.09990  Biso   1.000  H
  H15      1.0000 0.38980  0.34400  0.00620  Biso   1.000  H
  H16      1.0000 0.61020  0.65600  0.99380  Biso   1.000  H
  C17      1.0000 0.29500  0.95816  0.97305  Biso   1.000  C
  C18      1.0000 0.70500  0.04184  0.02695  Biso   1.000  C
  C19      1.0000 0.21290  0.03410  0.10118  Biso   1.000  C
  C20      1.0000 0.78710  0.96590  0.89882  Biso   1.000  C
  C21      1.0000 0.13870  0.12701  0.01475  Biso   1.000  C
  C22      1.0000 0.86130  0.87299  0.98525  Biso   1.000  C
  H17      1.0000 0.08220  0.18420  0.02570  Biso   1.000  H
  H18      1.0000 0.91780  0.81580  0.97430  Biso   1.000  H
  C23      1.0000 0.15210  0.13028  0.91711  Biso   1.000  C
  C24      1.0000 0.84790  0.86972  0.08289  Biso   1.000  C
  C25      1.0000 0.07000  0.22505  0.82305  Biso   1.000  C
  C26      1.0000 0.93000  0.77495  0.17695  Biso   1.000  C
  C27      1.0000 0.39100  0.98080  0.62640  Biso   1.000  C
  C28      1.0000 0.60900  0.01920  0.37360  Biso   1.000  C
  H19      1.0000 0.50480  0.02210  0.59330  Biso   1.000  H
  H20      1.0000 0.49520  0.97790  0.40670  Biso   1.000  H
  H21      1.0000 0.40360  0.90960  0.62540  Biso   1.000  H
  H22      1.0000 0.59640  0.09040  0.37460  Biso   1.000  H
  C29      1.0000 0.23410  0.03470  0.56690  Biso   1.000  C
  C30      1.0000 0.76590  0.96530  0.43310  Biso   1.000  C
  H23      1.0000 0.13420  0.98180  0.57880  Biso   1.000  H
  H24      1.0000 0.86580  0.01820  0.42120  Biso   1.000  H
  H25      1.0000 0.27050  0.06480  0.49260  Biso   1.000  H
  H26      1.0000 0.72950  0.93520  0.50740  Biso   1.000  H
  C31      1.0000 0.95800  0.14180  0.56610  Biso   1.000  C
  C32      1.0000 0.04200  0.85820  0.43390  Biso   1.000  C
  H27      1.0000 0.91050  0.19990  0.58260  Biso   1.000  H
  H28      1.0000 0.08950  0.80010  0.41740  Biso   1.000  H
  H29      1.0000 0.88770  0.07620  0.60660  Biso   1.000  H
  H30      1.0000 0.11230  0.92380  0.39340  Biso   1.000  H
  H31      1.0000 0.94380  0.16140  0.49220  Biso   1.000  H
  H32      1.0000 0.05620  0.83860  0.50780  Biso   1.000  H
  N1       1.0000 0.71500  0.44993  0.61233  Biso   1.000  N
  N2       1.0000 0.28500  0.55007  0.38767  Biso   1.000  N
  N3       1.0000 0.79130  0.55392  0.43357  Biso   1.000  N
  N4       1.0000 0.20870  0.44608  0.56643  Biso   1.000  N
  N5       1.0000 0.85330  0.51409  0.78479  Biso   1.000  N
  N6       1.0000 0.14670  0.48591  0.21521  Biso   1.000  N
  N7       1.0000 0.62450  0.35318  0.91831  Biso   1.000  N
  N8       1.0000 0.37550  0.64682  0.08169  Biso   1.000  N
  N9       1.0000 0.15820  0.12326  0.59178  Biso   1.000  N
  N10      1.0000 0.84180  0.87674  0.40822  Biso   1.000  N
  N11      1.0000 0.28490  0.95431  0.07389  Biso   1.000  N
  N12      1.0000 0.71510  0.04569  0.92611  Biso   1.000  N
  N13      1.0000 0.23100  0.05111  0.89292  Biso   1.000  N
  N14      1.0000 0.76900  0.94889  0.10708  Biso   1.000  N
  N15      1.0000 0.37810  0.96650  0.73512  Biso   1.000  N
  N16      1.0000 0.62190  0.03350  0.26488  Biso   1.000  N
  O1       1.0000 0.50330  0.19892  0.65438  Biso   1.000  O
  O2       1.0000 0.49670  0.80108  0.34562  Biso   1.000  O
  O3       1.0000 0.58300  0.27037  0.76471  Biso   1.000  O
  O4       1.0000 0.41700  0.72963  0.23529  Biso   1.000  O
  O5       1.0000 0.75780  0.49167  0.30747  Biso   1.000  O
  O6       1.0000 0.24220  0.50833  0.69253  Biso   1.000  O
  O7       1.0000 0.81690  0.62652  0.55200  Biso   1.000  O
  O8       1.0000 0.18310  0.37348  0.44800  Biso   1.000  O
  O9       1.0000 0.09590  0.22155  0.73424  Biso   1.000  O
  O10      1.0000 0.90410  0.77845  0.26576  Biso   1.000  O
  O11      1.0000 0.98460  0.29734  0.83790  Biso   1.000  O
  O12      1.0000 0.01540  0.70266  0.16210  Biso   1.000  O
  O13      1.0000 0.21400  0.02260  0.19391  Biso   1.000  O
  O14      1.0000 0.78600  0.97740  0.80609  Biso   1.000  O
  O15      1.0000 0.35990  0.87966  0.95986  Biso   1.000  O
  O16      1.0000 0.64010  0.12034  0.04014  Biso   1.000  O
  Cu1      1.0000 0.70672  0.39818  0.76742  Biso   1.000  Cu
  Cu2      1.0000 0.29328  0.60182  0.23258  Biso   1.000  Cu
  Cu3      1.0000 0.23015  0.09075  0.74029  Biso   1.000  Cu
  Cu4      1.0000 0.76985  0.90925  0.25971  Biso   1.000  Cu
  H33      1.0000 0.82600  0.60900  0.38900  Biso   1.000  H
  H34      1.0000 0.17400  0.39100  0.61100  Biso   1.000  H
  H35      1.0000 0.96200  0.49000  0.78600  Biso   1.000  H
  H36      1.0000 0.03800  0.51000  0.21400  Biso   1.000  H
  H37      1.0000 0.84700  0.57000  0.74300  Biso   1.000  H
  H38      1.0000 0.15300  0.43000  0.25700  Biso   1.000  H
  H39      1.0000 0.64400  0.28700  0.94800  Biso   1.000  H
  H40      1.0000 0.35600  0.71300  0.05200  Biso   1.000  H
  H41      1.0000 0.21900  0.16800  0.56100  Biso   1.000  H
  H42      1.0000 0.78100  0.83200  0.43900  Biso   1.000  H
  H43      1.0000 0.32400  0.89600  0.12200  Biso   1.000  H
  H44      1.0000 0.67600  0.10400  0.87800  Biso   1.000  H
  H45      1.0000 0.32400  0.90900  0.77300  Biso   1.000  H
  H46      1.0000 0.67600  0.09100  0.22700  Biso   1.000  H
  H47      1.0000 0.50200  0.96900  0.75900  Biso   1.000  H
  H48      1.0000 0.49800  0.03100  0.24100  Biso   1.000  H
  O17      1.0000 0.93520  0.80290  0.75790  Biso   1.000  O
  O18      1.0000 0.06480  0.19710  0.24210  Biso   1.000  O
  H49      1.0000 0.89900  0.84400  0.77400  Biso   1.000  H
  H50      1.0000 0.10100  0.15600  0.22600  Biso   1.000  H
  H51      1.0000 0.84000  0.78700  0.73200  Biso   1.000  H
  H52      1.0000 0.16000  0.21300  0.26800  Biso   1.000  H
  O19      1.0000 0.28060  0.68010  0.75210  Biso   1.000  O
  O20      1.0000 0.71940  0.31990  0.24790  Biso   1.000  O
  H53      1.0000 0.18900  0.72200  0.74500  Biso   1.000  H
  H54      1.0000 0.81100  0.27800  0.25500  Biso   1.000  H
  H55      1.0000 0.25400  0.63400  0.72900  Biso   1.000  H
  H56      1.0000 0.74600  0.36600  0.27100  Biso   1.000  H
  O21      1.0000 0.64060  0.73970  0.65950  Biso   1.000  O
  O22      1.0000 0.35940  0.26030  0.34050  Biso   1.000  O
  H57      1.0000 0.51700  0.72000  0.69700  Biso   1.000  H
  H58      1.0000 0.48300  0.28000  0.30300  Biso   1.000  H
  H59      1.0000 0.65700  0.70500  0.62700  Biso   1.000  H
  H60      1.0000 0.34300  0.29500  0.37300  Biso   1.000  H
