data_image0
_cell_length_a       16.635
_cell_length_b       13.223
_cell_length_c       7.805
_cell_angle_alpha    90
_cell_angle_beta     102.56
_cell_angle_gamma    90

_symmetry_space_group_name_H-M    "P 1"
_symmetry_int_tables_number       1

loop_
  _symmetry_equiv_pos_as_xyz
  'x, y, z'

loop_
  _atom_site_label
  _atom_site_occupancy
  _atom_site_fract_x
  _atom_site_fract_y
  _atom_site_fract_z
  _atom_site_thermal_displace_type
  _atom_site_B_iso_or_equiv
  _atom_site_type_symbol
  Cu1      1.0000 0.00000  0.00000  0.50000  Biso   1.000  Cu
  Cu2      1.0000 0.00000  0.00000  0.00000  Biso   1.000  Cu
  Cu3      1.0000 0.50000  0.50000  0.50000  Biso   1.000  Cu
  Cu4      1.0000 0.50000  0.50000  0.00000  Biso   1.000  Cu
  N1       1.0000 0.71140  0.17360  0.67920  Biso   1.000  N
  N2       1.0000 0.28860  0.17360  0.82080  Biso   1.000  N
  N3       1.0000 0.21140  0.67360  0.67920  Biso   1.000  N
  N4       1.0000 0.78860  0.67360  0.82080  Biso   1.000  N
  N5       1.0000 0.28860  0.82640  0.32080  Biso   1.000  N
  N6       1.0000 0.71140  0.82640  0.17920  Biso   1.000  N
  N7       1.0000 0.78860  0.32640  0.32080  Biso   1.000  N
  N8       1.0000 0.21140  0.32640  0.17920  Biso   1.000  N
  H1       1.0000 0.68720  0.17890  0.76560  Biso   1.000  H
  H2       1.0000 0.31280  0.17890  0.73440  Biso   1.000  H
  H3       1.0000 0.18720  0.67890  0.76560  Biso   1.000  H
  H4       1.0000 0.81280  0.67890  0.73440  Biso   1.000  H
  H5       1.0000 0.31280  0.82110  0.23440  Biso   1.000  H
  H6       1.0000 0.68720  0.82110  0.26560  Biso   1.000  H
  H7       1.0000 0.81280  0.32110  0.23440  Biso   1.000  H
  H8       1.0000 0.18720  0.32110  0.26560  Biso   1.000  H
  H9       1.0000 0.68650  0.19250  0.57590  Biso   1.000  H
  H10      1.0000 0.31350  0.19250  0.92410  Biso   1.000  H
  H11      1.0000 0.18650  0.69250  0.57590  Biso   1.000  H
  H12      1.0000 0.81350  0.69250  0.92410  Biso   1.000  H
  H13      1.0000 0.31350  0.80750  0.42410  Biso   1.000  H
  H14      1.0000 0.68650  0.80750  0.07590  Biso   1.000  H
  H15      1.0000 0.81350  0.30750  0.42410  Biso   1.000  H
  H16      1.0000 0.18650  0.30750  0.07590  Biso   1.000  H
  N9       1.0000 0.79190  0.13360  0.70710  Biso   1.000  N
  N10      1.0000 0.20810  0.13360  0.79290  Biso   1.000  N
  N11      1.0000 0.29190  0.63360  0.70710  Biso   1.000  N
  N12      1.0000 0.70810  0.63360  0.79290  Biso   1.000  N
  N13      1.0000 0.20810  0.86640  0.29290  Biso   1.000  N
  N14      1.0000 0.79190  0.86640  0.20710  Biso   1.000  N
  N15      1.0000 0.70810  0.36640  0.29290  Biso   1.000  N
  N16      1.0000 0.29190  0.36640  0.20710  Biso   1.000  N
  N17      1.0000 0.90410  0.07190  0.64960  Biso   1.000  N
  N18      1.0000 0.09590  0.07190  0.85040  Biso   1.000  N
  N19      1.0000 0.40410  0.57190  0.64960  Biso   1.000  N
  N20      1.0000 0.59590  0.57190  0.85040  Biso   1.000  N
  N21      1.0000 0.09590  0.92810  0.35040  Biso   1.000  N
  N22      1.0000 0.90410  0.92810  0.14960  Biso   1.000  N
  N23      1.0000 0.59590  0.42810  0.35040  Biso   1.000  N
  N24      1.0000 0.40410  0.42810  0.14960  Biso   1.000  N
  N25      1.0000 0.90810  0.06490  0.82920  Biso   1.000  N
  N26      1.0000 0.09190  0.06490  0.67080  Biso   1.000  N
  N27      1.0000 0.40810  0.56490  0.82920  Biso   1.000  N
  N28      1.0000 0.59190  0.56490  0.67080  Biso   1.000  N
  N29      1.0000 0.09190  0.93510  0.17080  Biso   1.000  N
  N30      1.0000 0.90810  0.93510  0.32920  Biso   1.000  N
  N31      1.0000 0.59190  0.43510  0.17080  Biso   1.000  N
  N32      1.0000 0.40810  0.43510  0.32920  Biso   1.000  N
  C1       1.0000 0.83420  0.11370  0.58310  Biso   1.000  C
  C2       1.0000 0.16580  0.11370  0.91690  Biso   1.000  C
  C3       1.0000 0.33420  0.61370  0.58310  Biso   1.000  C
  C4       1.0000 0.66580  0.61370  0.91690  Biso   1.000  C
  C5       1.0000 0.16580  0.88630  0.41690  Biso   1.000  C
  C6       1.0000 0.83420  0.88630  0.08310  Biso   1.000  C
  C7       1.0000 0.66580  0.38630  0.41690  Biso   1.000  C
  C8       1.0000 0.33420  0.38630  0.08310  Biso   1.000  C
  H17      1.0000 0.81550  0.12820  0.46450  Biso   1.000  H
  H18      1.0000 0.18450  0.12820  0.03550  Biso   1.000  H
  H19      1.0000 0.31550  0.62820  0.46450  Biso   1.000  H
  H20      1.0000 0.68450  0.62820  0.03550  Biso   1.000  H
  H21      1.0000 0.18450  0.87180  0.53550  Biso   1.000  H
  H22      1.0000 0.81550  0.87180  0.96450  Biso   1.000  H
  H23      1.0000 0.68450  0.37180  0.53550  Biso   1.000  H
  H24      1.0000 0.31550  0.37180  0.96450  Biso   1.000  H
  C9       1.0000 0.83940  0.10070  0.85710  Biso   1.000  C
  C10      1.0000 0.16060  0.10070  0.64290  Biso   1.000  C
  C11      1.0000 0.33940  0.60070  0.85710  Biso   1.000  C
  C12      1.0000 0.66060  0.60070  0.64290  Biso   1.000  C
  C13      1.0000 0.16060  0.89930  0.14290  Biso   1.000  C
  C14      1.0000 0.83940  0.89930  0.35710  Biso   1.000  C
  C15      1.0000 0.66060  0.39930  0.14290  Biso   1.000  C
  C16      1.0000 0.33940  0.39930  0.35710  Biso   1.000  C
  H25      1.0000 0.82410  0.10330  0.97500  Biso   1.000  H
  H26      1.0000 0.17590  0.10330  0.52500  Biso   1.000  H
  H27      1.0000 0.32410  0.60330  0.97500  Biso   1.000  H
  H28      1.0000 0.67590  0.60330  0.52500  Biso   1.000  H
  H29      1.0000 0.17590  0.89670  0.02500  Biso   1.000  H
  H30      1.0000 0.82410  0.89670  0.47500  Biso   1.000  H
  H31      1.0000 0.67590  0.39670  0.02500  Biso   1.000  H
  H32      1.0000 0.32410  0.39670  0.47500  Biso   1.000  H
  N33      1.0000 0.00000  0.38710  0.25000  Biso   1.000  N
  N34      1.0000 0.50000  0.88710  0.25000  Biso   1.000  N
  N35      1.0000 0.00000  0.61290  0.75000  Biso   1.000  N
  N36      1.0000 0.50000  0.11290  0.75000  Biso   1.000  N
  H33      1.0000 0.00530  0.41970  0.15770  Biso   1.000  H
  H34      1.0000 0.99470  0.41970  0.34230  Biso   1.000  H
  H35      1.0000 0.50530  0.91970  0.15770  Biso   1.000  H
  H36      1.0000 0.49470  0.91970  0.34230  Biso   1.000  H
  H37      1.0000 0.99470  0.58030  0.84230  Biso   1.000  H
  H38      1.0000 0.00530  0.58030  0.65770  Biso   1.000  H
  H39      1.0000 0.49470  0.08030  0.84230  Biso   1.000  H
  H40      1.0000 0.50530  0.08030  0.65770  Biso   1.000  H
  N37      1.0000 0.00000  0.28110  0.25000  Biso   1.000  N
  N38      1.0000 0.50000  0.78110  0.25000  Biso   1.000  N
  N39      1.0000 0.00000  0.71890  0.75000  Biso   1.000  N
  N40      1.0000 0.50000  0.21890  0.75000  Biso   1.000  N
  N41      1.0000 0.99530  0.12500  0.33600  Biso   1.000  N
  N42      1.0000 0.00470  0.12500  0.16400  Biso   1.000  N
  N43      1.0000 0.49530  0.62500  0.33600  Biso   1.000  N
  N44      1.0000 0.50470  0.62500  0.16400  Biso   1.000  N
  N45      1.0000 0.00470  0.87500  0.66400  Biso   1.000  N
  N46      1.0000 0.99530  0.87500  0.83600  Biso   1.000  N
  N47      1.0000 0.50470  0.37500  0.66400  Biso   1.000  N
  N48      1.0000 0.49530  0.37500  0.83600  Biso   1.000  N
  C17      1.0000 0.99230  0.21950  0.38240  Biso   1.000  C
  C18      1.0000 0.00770  0.21950  0.11760  Biso   1.000  C
  C19      1.0000 0.49230  0.71950  0.38240  Biso   1.000  C
  C20      1.0000 0.50770  0.71950  0.11760  Biso   1.000  C
  C21      1.0000 0.00770  0.78050  0.61760  Biso   1.000  C
  C22      1.0000 0.99230  0.78050  0.88240  Biso   1.000  C
  C23      1.0000 0.50770  0.28050  0.61760  Biso   1.000  C
  C24      1.0000 0.49230  0.28050  0.88240  Biso   1.000  C
  H41      1.0000 0.98600  0.24040  0.48800  Biso   1.000  H
  H42      1.0000 0.01400  0.24040  0.01200  Biso   1.000  H
  H43      1.0000 0.48600  0.74040  0.48800  Biso   1.000  H
  H44      1.0000 0.51400  0.74040  0.01200  Biso   1.000  H
  H45      1.0000 0.01400  0.75960  0.51200  Biso   1.000  H
  H46      1.0000 0.98600  0.75960  0.98800  Biso   1.000  H
  H47      1.0000 0.51400  0.25960  0.51200  Biso   1.000  H
  H48      1.0000 0.48600  0.25960  0.98800  Biso   1.000  H
  N49      1.0000 0.31760  0.10350  0.37020  Biso   1.000  N
  N50      1.0000 0.68240  0.10350  0.12980  Biso   1.000  N
  N51      1.0000 0.81760  0.60350  0.37020  Biso   1.000  N
  N52      1.0000 0.18240  0.60350  0.12980  Biso   1.000  N
  N53      1.0000 0.68240  0.89650  0.62980  Biso   1.000  N
  N54      1.0000 0.31760  0.89650  0.87020  Biso   1.000  N
  N55      1.0000 0.18240  0.39650  0.62980  Biso   1.000  N
  N56      1.0000 0.81760  0.39650  0.87020  Biso   1.000  N
  O1       1.0000 0.34590  0.17380  0.46170  Biso   1.000  O
  O2       1.0000 0.65410  0.17380  0.03830  Biso   1.000  O
  O3       1.0000 0.84590  0.67380  0.46170  Biso   1.000  O
  O4       1.0000 0.15410  0.67380  0.03830  Biso   1.000  O
  O5       1.0000 0.65410  0.82620  0.53830  Biso   1.000  O
  O6       1.0000 0.34590  0.82620  0.96170  Biso   1.000  O
  O7       1.0000 0.15410  0.32620  0.53830  Biso   1.000  O
  O8       1.0000 0.84590  0.32620  0.96170  Biso   1.000  O
  O9       1.0000 0.36400  0.04590  0.32400  Biso   1.000  O
  O10      1.0000 0.63600  0.04590  0.17600  Biso   1.000  O
  O11      1.0000 0.86400  0.54590  0.32400  Biso   1.000  O
  O12      1.0000 0.13600  0.54590  0.17600  Biso   1.000  O
  O13      1.0000 0.63600  0.95410  0.67600  Biso   1.000  O
  O14      1.0000 0.36400  0.95410  0.82400  Biso   1.000  O
  O15      1.0000 0.13600  0.45410  0.67600  Biso   1.000  O
  O16      1.0000 0.86400  0.45410  0.82400  Biso   1.000  O
  O17      1.0000 0.24280  0.09720  0.31840  Biso   1.000  O
  O18      1.0000 0.75720  0.09720  0.18160  Biso   1.000  O
  O19      1.0000 0.74280  0.59720  0.31840  Biso   1.000  O
  O20      1.0000 0.25720  0.59720  0.18160  Biso   1.000  O
  O21      1.0000 0.75720  0.90280  0.68160  Biso   1.000  O
  O22      1.0000 0.24280  0.90280  0.81840  Biso   1.000  O
  O23      1.0000 0.25720  0.40280  0.68160  Biso   1.000  O
  O24      1.0000 0.74280  0.40280  0.81840  Biso   1.000  O
  O25      1.0000 0.50000  0.16710  0.25000  Biso   1.000  O
  O26      1.0000 0.00000  0.66710  0.25000  Biso   1.000  O
  O27      1.0000 0.50000  0.83290  0.75000  Biso   1.000  O
  O28      1.0000 0.00000  0.33290  0.75000  Biso   1.000  O
  H49      1.0000 0.47500  0.15000  0.31800  Biso   1.000  H
  H50      1.0000 0.52500  0.15000  0.18200  Biso   1.000  H
  H51      1.0000 0.97500  0.65000  0.31800  Biso   1.000  H
  H52      1.0000 0.02500  0.65000  0.18200  Biso   1.000  H
  H53      1.0000 0.52500  0.85000  0.68200  Biso   1.000  H
  H54      1.0000 0.47500  0.85000  0.81800  Biso   1.000  H
  H55      1.0000 0.02500  0.35000  0.68200  Biso   1.000  H
  H56      1.0000 0.97500  0.35000  0.81800  Biso   1.000  H
