data_image0
_cell_length_a       3.2574
_cell_length_b       5.9387
_cell_length_c       7.246
_cell_angle_alpha    90
_cell_angle_beta     101.805
_cell_angle_gamma    90

_symmetry_space_group_name_H-M    "P 1"
_symmetry_int_tables_number       1

loop_
  _symmetry_equiv_pos_as_xyz
  'x, y, z'

loop_
  _atom_site_label
  _atom_site_occupancy
  _atom_site_fract_x
  _atom_site_fract_y
  _atom_site_fract_z
  _atom_site_thermal_displace_type
  _atom_site_B_iso_or_equiv
  _atom_site_type_symbol
  Cu1      1.0000 0.50000  0.50000  0.50000  Biso   1.000  Cu
  Cu2      1.0000 0.50000  0.00000  0.50000  Biso   1.000  Cu
  O1       1.0000 0.10600  0.75000  0.44090  Biso   1.000  O
  O2       1.0000 0.89400  0.25000  0.55910  Biso   1.000  O
  O3       1.0000 0.42460  0.43970  0.22930  Biso   1.000  O
  O4       1.0000 0.57540  0.93970  0.77070  Biso   1.000  O
  O5       1.0000 0.57540  0.56030  0.77070  Biso   1.000  O
  O6       1.0000 0.42460  0.06030  0.22930  Biso   1.000  O
  C1       1.0000 0.41610  0.25000  0.15170  Biso   1.000  C
  C2       1.0000 0.58390  0.75000  0.84830  Biso   1.000  C
  H1       1.0000 0.40190  0.25000  0.02220  Biso   1.000  H
  H2       1.0000 0.59810  0.75000  0.97780  Biso   1.000  H
  H3       1.0000 0.04800  0.75000  0.31700  Biso   1.000  H
  H4       1.0000 0.95200  0.25000  0.68300  Biso   1.000  H
