data_image0
_cell_length_a       3.9294
_cell_length_b       12.373
_cell_length_c       7.0498
_cell_angle_alpha    90
_cell_angle_beta     91.206
_cell_angle_gamma    90

_symmetry_space_group_name_H-M    "P 1"
_symmetry_int_tables_number       1

loop_
  _symmetry_equiv_pos_as_xyz
  'x, y, z'

loop_
  _atom_site_label
  _atom_site_occupancy
  _atom_site_fract_x
  _atom_site_fract_y
  _atom_site_fract_z
  _atom_site_thermal_displace_type
  _atom_site_B_iso_or_equiv
  _atom_site_type_symbol
  Cu1      1.0000 0.00000  0.50000  0.00000  Biso   1.000  Cu
  Cu2      1.0000 0.00000  0.00000  0.00000  Biso   1.000  Cu
  Cl1      1.0000 0.36570  0.45022  0.23441  Biso   1.000  Cl
  Cl2      1.0000 0.63430  0.95022  0.76559  Biso   1.000  Cl
  Cl3      1.0000 0.63430  0.54978  0.76559  Biso   1.000  Cl
  Cl4      1.0000 0.36570  0.04978  0.23441  Biso   1.000  Cl
  N1       1.0000 0.84340  0.25000  0.13610  Biso   1.000  N
  N2       1.0000 0.15660  0.75000  0.86390  Biso   1.000  N
  H1       1.0000 0.77200  0.30300  0.17000  Biso   1.000  H
  H2       1.0000 0.22800  0.80300  0.83000  Biso   1.000  H
  H3       1.0000 0.22800  0.69700  0.83000  Biso   1.000  H
  H4       1.0000 0.77200  0.19700  0.17000  Biso   1.000  H
  N3       1.0000 0.02210  0.34650  0.87750  Biso   1.000  N
  N4       1.0000 0.97790  0.84650  0.12250  Biso   1.000  N
  N5       1.0000 0.97790  0.65350  0.12250  Biso   1.000  N
  N6       1.0000 0.02210  0.15350  0.87750  Biso   1.000  N
  C1       1.0000 0.96400  0.25000  0.96260  Biso   1.000  C
  C2       1.0000 0.03600  0.75000  0.03740  Biso   1.000  C
  C3       1.0000 0.12090  0.34453  0.69750  Biso   1.000  C
  C4       1.0000 0.87910  0.84453  0.30250  Biso   1.000  C
  C5       1.0000 0.87910  0.65547  0.30250  Biso   1.000  C
  C6       1.0000 0.12090  0.15547  0.69750  Biso   1.000  C
  H5       1.0000 0.15710  0.40970  0.63550  Biso   1.000  H
  H6       1.0000 0.84290  0.90970  0.36450  Biso   1.000  H
  H7       1.0000 0.84290  0.59030  0.36450  Biso   1.000  H
  H8       1.0000 0.15710  0.09030  0.63550  Biso   1.000  H
  C7       1.0000 0.17100  0.25000  0.60070  Biso   1.000  C
  C8       1.0000 0.82900  0.75000  0.39930  Biso   1.000  C
  H9       1.0000 0.23620  0.25000  0.47470  Biso   1.000  H
  H10      1.0000 0.76380  0.75000  0.52530  Biso   1.000  H
