data_image0
_cell_length_a       3.8773
_cell_length_b       12.384
_cell_length_c       7.0277
_cell_angle_alpha    90
_cell_angle_beta     90.27
_cell_angle_gamma    90

_symmetry_space_group_name_H-M    "P 1"
_symmetry_int_tables_number       1

loop_
  _symmetry_equiv_pos_as_xyz
  'x, y, z'

loop_
  _atom_site_label
  _atom_site_occupancy
  _atom_site_fract_x
  _atom_site_fract_y
  _atom_site_fract_z
  _atom_site_thermal_displace_type
  _atom_site_B_iso_or_equiv
  _atom_site_type_symbol
  Cu1      1.0000 0.50000  0.50000  0.50000  Biso   1.000  Cu
  Cu2      1.0000 0.50000  0.00000  0.50000  Biso   1.000  Cu
  Cl1      1.0000 0.86798  0.54919  0.73453  Biso   1.000  Cl
  Cl2      1.0000 0.13202  0.04919  0.26547  Biso   1.000  Cl
  Cl3      1.0000 0.13202  0.45081  0.26547  Biso   1.000  Cl
  Cl4      1.0000 0.86798  0.95081  0.73453  Biso   1.000  Cl
  N1       1.0000 0.52440  0.65309  0.37780  Biso   1.000  N
  N2       1.0000 0.47560  0.15309  0.62220  Biso   1.000  N
  N3       1.0000 0.47560  0.34691  0.62220  Biso   1.000  N
  N4       1.0000 0.52440  0.84691  0.37780  Biso   1.000  N
  N5       1.0000 0.34790  0.75000  0.64150  Biso   1.000  N
  N6       1.0000 0.65210  0.25000  0.35850  Biso   1.000  N
  H1       1.0000 0.26700  0.69100  0.68300  Biso   1.000  H
  H2       1.0000 0.73300  0.19100  0.31700  Biso   1.000  H
  H3       1.0000 0.73300  0.30900  0.31700  Biso   1.000  H
  H4       1.0000 0.26700  0.80900  0.68300  Biso   1.000  H
  C1       1.0000 0.46730  0.75000  0.46470  Biso   1.000  C
  C2       1.0000 0.53270  0.25000  0.53530  Biso   1.000  C
  C3       1.0000 0.62060  0.65510  0.19460  Biso   1.000  C
  C4       1.0000 0.37940  0.15510  0.80540  Biso   1.000  C
  C5       1.0000 0.37940  0.34490  0.80540  Biso   1.000  C
  C6       1.0000 0.62060  0.84490  0.19460  Biso   1.000  C
  H5       1.0000 0.65560  0.58850  0.13040  Biso   1.000  H
  H6       1.0000 0.34440  0.08850  0.86960  Biso   1.000  H
  H7       1.0000 0.34440  0.41150  0.86960  Biso   1.000  H
  H8       1.0000 0.65560  0.91150  0.13040  Biso   1.000  H
  C7       1.0000 0.67050  0.75000  0.09620  Biso   1.000  C
  C8       1.0000 0.32950  0.25000  0.90380  Biso   1.000  C
  H9       1.0000 0.73650  0.75000  0.96610  Biso   1.000  H
  H10      1.0000 0.26350  0.25000  0.03390  Biso   1.000  H
