data_image0
_cell_length_a       4.927
_cell_length_b       19.119
_cell_length_c       7.93
_cell_angle_alpha    90
_cell_angle_beta     94.77
_cell_angle_gamma    90

_symmetry_space_group_name_H-M    "P 1"
_symmetry_int_tables_number       1

loop_
  _symmetry_equiv_pos_as_xyz
  'x, y, z'

loop_
  _atom_site_label
  _atom_site_occupancy
  _atom_site_fract_x
  _atom_site_fract_y
  _atom_site_fract_z
  _atom_site_thermal_displace_type
  _atom_site_B_iso_or_equiv
  _atom_site_type_symbol
  Cu1      1.0000 0.23060  0.25000  0.15800  Biso   1.000  Cu
  Cu2      1.0000 0.76940  0.75000  0.84200  Biso   1.000  Cu
  S1       1.0000 0.60090  0.25000  0.87510  Biso   1.000  S
  S2       1.0000 0.39910  0.75000  0.12490  Biso   1.000  S
  O1       1.0000 0.31030  0.25000  0.92140  Biso   1.000  O
  O2       1.0000 0.68970  0.75000  0.07860  Biso   1.000  O
  O3       1.0000 0.63940  0.31390  0.77650  Biso   1.000  O
  O4       1.0000 0.36060  0.81390  0.22350  Biso   1.000  O
  O5       1.0000 0.36060  0.68610  0.22350  Biso   1.000  O
  O6       1.0000 0.63940  0.18610  0.77650  Biso   1.000  O
  O7       1.0000 0.78400  0.25000  0.03230  Biso   1.000  O
  O8       1.0000 0.21600  0.75000  0.96770  Biso   1.000  O
  N1       1.0000 0.33410  0.35270  0.19650  Biso   1.000  N
  N2       1.0000 0.66590  0.85270  0.80350  Biso   1.000  N
  N3       1.0000 0.66590  0.64730  0.80350  Biso   1.000  N
  N4       1.0000 0.33410  0.14730  0.19650  Biso   1.000  N
  C1       1.0000 0.64300  0.43040  0.34920  Biso   1.000  C
  C2       1.0000 0.35700  0.93040  0.65080  Biso   1.000  C
  C3       1.0000 0.35700  0.56960  0.65080  Biso   1.000  C
  C4       1.0000 0.64300  0.06960  0.34920  Biso   1.000  C
  N5       1.0000 0.00710  0.39980  0.00340  Biso   1.000  N
  N6       1.0000 0.99290  0.89980  0.99660  Biso   1.000  N
  N7       1.0000 0.99290  0.60020  0.99660  Biso   1.000  N
  N8       1.0000 0.00710  0.10020  0.00340  Biso   1.000  N
  C5       1.0000 0.51100  0.48520  0.26340  Biso   1.000  C
  C6       1.0000 0.48900  0.98520  0.73660  Biso   1.000  C
  C7       1.0000 0.48900  0.51480  0.73660  Biso   1.000  C
  C8       1.0000 0.51100  0.01480  0.26340  Biso   1.000  C
  C9       1.0000 0.54970  0.36440  0.31160  Biso   1.000  C
  C10      1.0000 0.45030  0.86440  0.68840  Biso   1.000  C
  C11      1.0000 0.45030  0.63560  0.68840  Biso   1.000  C
  C12      1.0000 0.54970  0.13560  0.31160  Biso   1.000  C
  C13      1.0000 0.21820  0.40930  0.11940  Biso   1.000  C
  C14      1.0000 0.78180  0.90930  0.88060  Biso   1.000  C
  C15      1.0000 0.78180  0.59070  0.88060  Biso   1.000  C
  C16      1.0000 0.21820  0.09070  0.11940  Biso   1.000  C
  N9       1.0000 0.29760  0.47610  0.15140  Biso   1.000  N
  N10      1.0000 0.70240  0.97610  0.84860  Biso   1.000  N
  N11      1.0000 0.70240  0.52390  0.84860  Biso   1.000  N
  N12      1.0000 0.29760  0.02390  0.15140  Biso   1.000  N
  O9       1.0000 0.10310  0.25000  0.38250  Biso   1.000  O
  O10      1.0000 0.89690  0.75000  0.61750  Biso   1.000  O
  O11      1.0000 0.11680  0.35200  0.60960  Biso   1.000  O
  O12      1.0000 0.88320  0.85200  0.39040  Biso   1.000  O
  O13      1.0000 0.88320  0.64800  0.39040  Biso   1.000  O
  O14      1.0000 0.11680  0.14800  0.60960  Biso   1.000  O
  H1       1.0000 0.58597  0.53205  0.30169  Biso   1.000  H
  H2       1.0000 0.41403  0.03205  0.69831  Biso   1.000  H
  H3       1.0000 0.41403  0.46795  0.69831  Biso   1.000  H
  H4       1.0000 0.58597  0.96795  0.30169  Biso   1.000  H
  H5       1.0000 0.78473  0.43770  0.42068  Biso   1.000  H
  H6       1.0000 0.21527  0.93770  0.57932  Biso   1.000  H
  H7       1.0000 0.21527  0.56230  0.57932  Biso   1.000  H
  H8       1.0000 0.78473  0.06230  0.42068  Biso   1.000  H
  H9       1.0000 0.63860  0.32170  0.37717  Biso   1.000  H
  H10      1.0000 0.36140  0.82170  0.62283  Biso   1.000  H
  H11      1.0000 0.36140  0.67830  0.62283  Biso   1.000  H
  H12      1.0000 0.63860  0.17830  0.37717  Biso   1.000  H
  H13      1.0000 0.98361  0.36269  0.95471  Biso   1.000  H
  H14      1.0000 0.01639  0.86269  0.04529  Biso   1.000  H
  H15      1.0000 0.01639  0.63731  0.04529  Biso   1.000  H
  H16      1.0000 0.98361  0.13731  0.95471  Biso   1.000  H
  H17      1.0000 0.94328  0.43494  0.95162  Biso   1.000  H
  H18      1.0000 0.05672  0.93494  0.04838  Biso   1.000  H
  H19      1.0000 0.05672  0.56506  0.04838  Biso   1.000  H
  H20      1.0000 0.94328  0.06506  0.95162  Biso   1.000  H
  H21      1.0000 0.14807  0.25000  0.49401  Biso   1.000  H
  H22      1.0000 0.85193  0.75000  0.50599  Biso   1.000  H
  H23      1.0000 0.94740  0.25000  0.44070  Biso   1.000  H
  H24      1.0000 0.05260  0.75000  0.55930  Biso   1.000  H
  H25      1.0000 0.01422  0.33485  0.68512  Biso   1.000  H
  H26      1.0000 0.98578  0.83485  0.31488  Biso   1.000  H
  H27      1.0000 0.98578  0.66515  0.31488  Biso   1.000  H
  H28      1.0000 0.01422  0.16515  0.68512  Biso   1.000  H
  H29      1.0000 0.28698  0.33528  0.68126  Biso   1.000  H
  H30      1.0000 0.71302  0.83528  0.31874  Biso   1.000  H
  H31      1.0000 0.71302  0.66472  0.31874  Biso   1.000  H
  H32      1.0000 0.28698  0.16472  0.68126  Biso   1.000  H
