data_image0
_cell_length_a       8.6495
_cell_length_b       17.118
_cell_length_c       10.568
_cell_angle_alpha    90
_cell_angle_beta     113.85
_cell_angle_gamma    90

_symmetry_space_group_name_H-M    "P 1"
_symmetry_int_tables_number       1

loop_
  _symmetry_equiv_pos_as_xyz
  'x, y, z'

loop_
  _atom_site_label
  _atom_site_occupancy
  _atom_site_fract_x
  _atom_site_fract_y
  _atom_site_fract_z
  _atom_site_thermal_displace_type
  _atom_site_B_iso_or_equiv
  _atom_site_type_symbol
  Cu1      1.0000 0.92605  0.81637  0.28194  Biso   1.000  Cu
  Cu2      1.0000 0.92605  0.18363  0.78194  Biso   1.000  Cu
  Cu3      1.0000 0.42605  0.31637  0.28194  Biso   1.000  Cu
  Cu4      1.0000 0.42605  0.68363  0.78194  Biso   1.000  Cu
  N1       1.0000 0.67100  0.81335  0.20130  Biso   1.000  N
  N2       1.0000 0.67100  0.18665  0.70130  Biso   1.000  N
  N3       1.0000 0.17100  0.31335  0.20130  Biso   1.000  N
  N4       1.0000 0.17100  0.68665  0.70130  Biso   1.000  N
  N5       1.0000 0.89080  0.69922  0.27340  Biso   1.000  N
  N6       1.0000 0.89080  0.30078  0.77340  Biso   1.000  N
  N7       1.0000 0.39080  0.19922  0.27340  Biso   1.000  N
  N8       1.0000 0.39080  0.80078  0.77340  Biso   1.000  N
  C1       1.0000 0.60160  0.74133  0.18420  Biso   1.000  C
  C2       1.0000 0.60160  0.25867  0.68420  Biso   1.000  C
  C3       1.0000 0.10160  0.24133  0.18420  Biso   1.000  C
  C4       1.0000 0.10160  0.75867  0.68420  Biso   1.000  C
  C5       1.0000 0.57230  0.87566  0.15790  Biso   1.000  C
  C6       1.0000 0.57230  0.12434  0.65790  Biso   1.000  C
  C7       1.0000 0.07230  0.37566  0.15790  Biso   1.000  C
  C8       1.0000 0.07230  0.62434  0.65790  Biso   1.000  C
  H1       1.0000 0.62150  0.92480  0.16740  Biso   1.000  H
  H2       1.0000 0.62150  0.07520  0.66740  Biso   1.000  H
  H3       1.0000 0.12150  0.42480  0.16740  Biso   1.000  H
  H4       1.0000 0.12150  0.57520  0.66740  Biso   1.000  H
  C9       1.0000 0.39690  0.86928  0.09860  Biso   1.000  C
  C10      1.0000 0.39690  0.13072  0.59860  Biso   1.000  C
  C11      1.0000 0.89690  0.36928  0.09860  Biso   1.000  C
  C12      1.0000 0.89690  0.63072  0.59860  Biso   1.000  C
  H5       1.0000 0.32960  0.91360  0.06930  Biso   1.000  H
  H6       1.0000 0.32960  0.08640  0.56930  Biso   1.000  H
  H7       1.0000 0.82960  0.41360  0.06930  Biso   1.000  H
  H8       1.0000 0.82960  0.58640  0.56930  Biso   1.000  H
  C13      1.0000 0.32510  0.79680  0.08390  Biso   1.000  C
  C14      1.0000 0.32510  0.20320  0.58390  Biso   1.000  C
  C15      1.0000 0.82510  0.29680  0.08390  Biso   1.000  C
  C16      1.0000 0.82510  0.70320  0.58390  Biso   1.000  C
  H9       1.0000 0.20810  0.79150  0.04580  Biso   1.000  H
  H10      1.0000 0.20810  0.20850  0.54580  Biso   1.000  H
  H11      1.0000 0.70810  0.29150  0.04580  Biso   1.000  H
  H12      1.0000 0.70810  0.70850  0.54580  Biso   1.000  H
  C17      1.0000 0.42750  0.73131  0.12600  Biso   1.000  C
  C18      1.0000 0.42750  0.26869  0.62600  Biso   1.000  C
  C19      1.0000 0.92750  0.23131  0.12600  Biso   1.000  C
  C20      1.0000 0.92750  0.76869  0.62600  Biso   1.000  C
  H13      1.0000 0.38050  0.68160  0.11550  Biso   1.000  H
  H14      1.0000 0.38050  0.31840  0.61550  Biso   1.000  H
  H15      1.0000 0.88050  0.18160  0.11550  Biso   1.000  H
  H16      1.0000 0.88050  0.81840  0.61550  Biso   1.000  H
  C21      1.0000 0.72640  0.67648  0.22910  Biso   1.000  C
  C22      1.0000 0.72640  0.32352  0.72910  Biso   1.000  C
  C23      1.0000 0.22640  0.17648  0.22910  Biso   1.000  C
  C24      1.0000 0.22640  0.82352  0.72910  Biso   1.000  C
  C25      1.0000 0.01260  0.64493  0.31240  Biso   1.000  C
  C26      1.0000 0.01260  0.35507  0.81240  Biso   1.000  C
  C27      1.0000 0.51260  0.14493  0.31240  Biso   1.000  C
  C28      1.0000 0.51260  0.85507  0.81240  Biso   1.000  C
  H17      1.0000 0.12480  0.66050  0.34280  Biso   1.000  H
  H18      1.0000 0.12480  0.33950  0.84280  Biso   1.000  H
  H19      1.0000 0.62480  0.16050  0.34280  Biso   1.000  H
  H20      1.0000 0.62480  0.83950  0.84280  Biso   1.000  H
  C29      1.0000 0.97490  0.56582  0.30850  Biso   1.000  C
  C30      1.0000 0.97490  0.43418  0.80850  Biso   1.000  C
  C31      1.0000 0.47490  0.06582  0.30850  Biso   1.000  C
  C32      1.0000 0.47490  0.93418  0.80850  Biso   1.000  C
  H21      1.0000 0.06110  0.52890  0.33390  Biso   1.000  H
  H22      1.0000 0.06110  0.47110  0.83390  Biso   1.000  H
  H23      1.0000 0.56110  0.02890  0.33390  Biso   1.000  H
  H24      1.0000 0.56110  0.97110  0.83390  Biso   1.000  H
  C33      1.0000 0.81140  0.54256  0.26750  Biso   1.000  C
  C34      1.0000 0.81140  0.45744  0.76750  Biso   1.000  C
  C35      1.0000 0.31140  0.04256  0.26750  Biso   1.000  C
  C36      1.0000 0.31140  0.95744  0.76750  Biso   1.000  C
  H25      1.0000 0.78580  0.48980  0.26790  Biso   1.000  H
  H26      1.0000 0.78580  0.51020  0.76790  Biso   1.000  H
  H27      1.0000 0.28580  0.98980  0.26790  Biso   1.000  H
  H28      1.0000 0.28580  0.01020  0.76790  Biso   1.000  H
  C37      1.0000 0.68170  0.59828  0.22470  Biso   1.000  C
  C38      1.0000 0.68170  0.40172  0.72470  Biso   1.000  C
  C39      1.0000 0.18170  0.09828  0.22470  Biso   1.000  C
  C40      1.0000 0.18170  0.90172  0.72470  Biso   1.000  C
  H29      1.0000 0.56900  0.58340  0.19420  Biso   1.000  H
  H30      1.0000 0.56900  0.41660  0.69420  Biso   1.000  H
  H31      1.0000 0.06900  0.08340  0.19420  Biso   1.000  H
  H32      1.0000 0.06900  0.91660  0.69420  Biso   1.000  H
  C41      1.0000 0.31820  0.82022  0.41940  Biso   1.000  C
  C42      1.0000 0.31820  0.17978  0.91940  Biso   1.000  C
  C43      1.0000 0.81820  0.32022  0.41940  Biso   1.000  C
  C44      1.0000 0.81820  0.67978  0.91940  Biso   1.000  C
  N9       1.0000 0.17280  0.80818  0.37830  Biso   1.000  N
  N10      1.0000 0.17280  0.19182  0.87830  Biso   1.000  N
  N11      1.0000 0.67280  0.30818  0.37830  Biso   1.000  N
  N12      1.0000 0.67280  0.69182  0.87830  Biso   1.000  N
  N13      1.0000 0.47900  0.82500  0.45870  Biso   1.000  N
  N14      1.0000 0.47900  0.17500  0.95870  Biso   1.000  N
  N15      1.0000 0.97900  0.32500  0.45870  Biso   1.000  N
  N16      1.0000 0.97900  0.67500  0.95870  Biso   1.000  N
  C45      1.0000 0.56850  0.88742  0.51660  Biso   1.000  C
  C46      1.0000 0.56850  0.11258  0.01660  Biso   1.000  C
  C47      1.0000 0.06850  0.38742  0.51660  Biso   1.000  C
  C48      1.0000 0.06850  0.61258  0.01660  Biso   1.000  C
  N17      1.0000 0.66170  0.93782  0.56700  Biso   1.000  N
  N18      1.0000 0.66170  0.06218  0.06700  Biso   1.000  N
  N19      1.0000 0.16170  0.43782  0.56700  Biso   1.000  N
  N20      1.0000 0.16170  0.56218  0.06700  Biso   1.000  N
  C49      1.0000 0.95280  0.98589  0.39860  Biso   1.000  C
  C50      1.0000 0.95280  0.01411  0.89860  Biso   1.000  C
  C51      1.0000 0.45280  0.48589  0.39860  Biso   1.000  C
  C52      1.0000 0.45280  0.51411  0.89860  Biso   1.000  C
  N21      1.0000 0.93200  0.92223  0.36410  Biso   1.000  N
  N22      1.0000 0.93200  0.07777  0.86410  Biso   1.000  N
  N23      1.0000 0.43200  0.42223  0.36410  Biso   1.000  N
  N24      1.0000 0.43200  0.57777  0.86410  Biso   1.000  N
  N25      1.0000 0.98790  0.05849  0.42930  Biso   1.000  N
  N26      1.0000 0.98790  0.94151  0.92930  Biso   1.000  N
  N27      1.0000 0.48790  0.55849  0.42930  Biso   1.000  N
  N28      1.0000 0.48790  0.44151  0.92930  Biso   1.000  N
  C53      1.0000 0.95090  0.09740  0.51790  Biso   1.000  C
  C54      1.0000 0.95090  0.90260  0.01790  Biso   1.000  C
  C55      1.0000 0.45090  0.59740  0.51790  Biso   1.000  C
  C56      1.0000 0.45090  0.40260  0.01790  Biso   1.000  C
  N29      1.0000 0.92780  0.13972  0.59100  Biso   1.000  N
  N30      1.0000 0.92780  0.86028  0.09100  Biso   1.000  N
  N31      1.0000 0.42780  0.63972  0.59100  Biso   1.000  N
  N32      1.0000 0.42780  0.36028  0.09100  Biso   1.000  N
