data_image0
_cell_length_a       8.6391
_cell_length_b       17.165
_cell_length_c       10.4638
_cell_angle_alpha    90
_cell_angle_beta     114.307
_cell_angle_gamma    90

_symmetry_space_group_name_H-M    "P 1"
_symmetry_int_tables_number       1

loop_
  _symmetry_equiv_pos_as_xyz
  'x, y, z'

loop_
  _atom_site_label
  _atom_site_occupancy
  _atom_site_fract_x
  _atom_site_fract_y
  _atom_site_fract_z
  _atom_site_thermal_displace_type
  _atom_site_B_iso_or_equiv
  _atom_site_type_symbol
  Cu1      1.0000 0.02749  0.18392  0.51052  Biso   1.000  Cu
  Cu2      1.0000 0.02749  0.81608  0.01052  Biso   1.000  Cu
  Cu3      1.0000 0.52749  0.68392  0.51052  Biso   1.000  Cu
  Cu4      1.0000 0.52749  0.31608  0.01052  Biso   1.000  Cu
  N1       1.0000 0.77330  0.18705  0.43060  Biso   1.000  N
  N2       1.0000 0.77330  0.81295  0.93060  Biso   1.000  N
  N3       1.0000 0.27330  0.68705  0.43060  Biso   1.000  N
  N4       1.0000 0.27330  0.31295  0.93060  Biso   1.000  N
  N5       1.0000 0.99230  0.30056  0.50140  Biso   1.000  N
  N6       1.0000 0.99230  0.69944  0.00140  Biso   1.000  N
  N7       1.0000 0.49230  0.80056  0.50140  Biso   1.000  N
  N8       1.0000 0.49230  0.19944  0.00140  Biso   1.000  N
  N9       1.0000 0.27570  0.19158  0.60780  Biso   1.000  N
  N10      1.0000 0.27570  0.80842  0.10780  Biso   1.000  N
  N11      1.0000 0.77570  0.69158  0.60780  Biso   1.000  N
  N12      1.0000 0.77570  0.30842  0.10780  Biso   1.000  N
  N13      1.0000 0.58280  0.17499  0.68890  Biso   1.000  N
  N14      1.0000 0.58280  0.82501  0.18890  Biso   1.000  N
  N15      1.0000 0.08280  0.67499  0.68890  Biso   1.000  N
  N16      1.0000 0.08280  0.32501  0.18890  Biso   1.000  N
  N17      1.0000 0.76270  0.06135  0.79560  Biso   1.000  N
  N18      1.0000 0.76270  0.93865  0.29560  Biso   1.000  N
  N19      1.0000 0.26270  0.56135  0.79560  Biso   1.000  N
  N20      1.0000 0.26270  0.43865  0.29560  Biso   1.000  N
  N21      1.0000 0.03390  0.07805  0.59150  Biso   1.000  N
  N22      1.0000 0.03390  0.92195  0.09150  Biso   1.000  N
  N23      1.0000 0.53390  0.57805  0.59150  Biso   1.000  N
  N24      1.0000 0.53390  0.42195  0.09150  Biso   1.000  N
  N25      1.0000 0.09630  0.94211  0.65850  Biso   1.000  N
  N26      1.0000 0.09630  0.05789  0.15850  Biso   1.000  N
  N27      1.0000 0.59630  0.44211  0.65850  Biso   1.000  N
  N28      1.0000 0.59630  0.55789  0.15850  Biso   1.000  N
  N29      1.0000 0.02530  0.85878  0.81490  Biso   1.000  N
  N30      1.0000 0.02530  0.14122  0.31490  Biso   1.000  N
  N31      1.0000 0.52530  0.35878  0.81490  Biso   1.000  N
  N32      1.0000 0.52530  0.64122  0.31490  Biso   1.000  N
  C1       1.0000 0.67310  0.12514  0.38750  Biso   1.000  C
  C2       1.0000 0.67310  0.87486  0.88750  Biso   1.000  C
  C3       1.0000 0.17310  0.62514  0.38750  Biso   1.000  C
  C4       1.0000 0.17310  0.37486  0.88750  Biso   1.000  C
  H1       1.0000 0.72320  0.07494  0.39810  Biso   1.000  H
  H2       1.0000 0.72320  0.92506  0.89810  Biso   1.000  H
  H3       1.0000 0.22320  0.57494  0.39810  Biso   1.000  H
  H4       1.0000 0.22320  0.42506  0.89810  Biso   1.000  H
  C5       1.0000 0.49710  0.13153  0.32740  Biso   1.000  C
  C6       1.0000 0.49710  0.86847  0.82740  Biso   1.000  C
  C7       1.0000 0.99710  0.63153  0.32740  Biso   1.000  C
  C8       1.0000 0.99710  0.36847  0.82740  Biso   1.000  C
  H5       1.0000 0.42790  0.08638  0.29740  Biso   1.000  H
  H6       1.0000 0.42790  0.91362  0.79740  Biso   1.000  H
  H7       1.0000 0.92790  0.58638  0.29740  Biso   1.000  H
  H8       1.0000 0.92790  0.41362  0.79740  Biso   1.000  H
  C9       1.0000 0.42440  0.20472  0.31230  Biso   1.000  C
  C10      1.0000 0.42440  0.79528  0.81230  Biso   1.000  C
  C11      1.0000 0.92440  0.70472  0.31230  Biso   1.000  C
  C12      1.0000 0.92440  0.29528  0.81230  Biso   1.000  C
  H9       1.0000 0.30440  0.21038  0.27320  Biso   1.000  H
  H10      1.0000 0.30440  0.78962  0.77320  Biso   1.000  H
  H11      1.0000 0.80440  0.71038  0.27320  Biso   1.000  H
  H12      1.0000 0.80440  0.28962  0.77320  Biso   1.000  H
  C13      1.0000 0.52890  0.26976  0.35500  Biso   1.000  C
  C14      1.0000 0.52890  0.73024  0.85500  Biso   1.000  C
  C15      1.0000 0.02890  0.76976  0.35500  Biso   1.000  C
  C16      1.0000 0.02890  0.23024  0.85500  Biso   1.000  C
  H13      1.0000 0.48180  0.32060  0.34460  Biso   1.000  H
  H14      1.0000 0.48180  0.67940  0.84460  Biso   1.000  H
  H15      1.0000 0.98180  0.82060  0.34460  Biso   1.000  H
  H16      1.0000 0.98180  0.17940  0.84460  Biso   1.000  H
  C17      1.0000 0.70320  0.25927  0.41300  Biso   1.000  C
  C18      1.0000 0.70320  0.74073  0.91300  Biso   1.000  C
  C19      1.0000 0.20320  0.75927  0.41300  Biso   1.000  C
  C20      1.0000 0.20320  0.24073  0.91300  Biso   1.000  C
  C21      1.0000 0.82860  0.32357  0.45680  Biso   1.000  C
  C22      1.0000 0.82860  0.67643  0.95680  Biso   1.000  C
  C23      1.0000 0.32860  0.82357  0.45680  Biso   1.000  C
  C24      1.0000 0.32860  0.17643  0.95680  Biso   1.000  C
  C25      1.0000 0.78450  0.40181  0.45300  Biso   1.000  C
  C26      1.0000 0.78450  0.59819  0.95300  Biso   1.000  C
  C27      1.0000 0.28450  0.90181  0.45300  Biso   1.000  C
  C28      1.0000 0.28450  0.09819  0.95300  Biso   1.000  C
  H17      1.0000 0.66920  0.41715  0.42280  Biso   1.000  H
  H18      1.0000 0.66920  0.58285  0.92280  Biso   1.000  H
  H19      1.0000 0.16920  0.91715  0.42280  Biso   1.000  H
  H20      1.0000 0.16920  0.08285  0.92280  Biso   1.000  H
  C29      1.0000 0.91410  0.45705  0.49500  Biso   1.000  C
  C30      1.0000 0.91410  0.54295  0.99500  Biso   1.000  C
  C31      1.0000 0.41410  0.95705  0.49500  Biso   1.000  C
  C32      1.0000 0.41410  0.04295  0.99500  Biso   1.000  C
  H21      1.0000 0.88780  0.51087  0.49360  Biso   1.000  H
  H22      1.0000 0.88780  0.48913  0.99360  Biso   1.000  H
  H23      1.0000 0.38780  0.01087  0.49360  Biso   1.000  H
  H24      1.0000 0.38780  0.98913  0.99360  Biso   1.000  H
  C33      1.0000 0.07890  0.43375  0.53770  Biso   1.000  C
  C34      1.0000 0.07890  0.56625  0.03770  Biso   1.000  C
  C35      1.0000 0.57890  0.93375  0.53770  Biso   1.000  C
  C36      1.0000 0.57890  0.06625  0.03770  Biso   1.000  C
  H25      1.0000 0.16790  0.47113  0.56570  Biso   1.000  H
  H26      1.0000 0.16790  0.52887  0.06570  Biso   1.000  H
  H27      1.0000 0.66790  0.97113  0.56570  Biso   1.000  H
  H28      1.0000 0.66790  0.02887  0.06570  Biso   1.000  H
  C37      1.0000 0.11530  0.35421  0.54030  Biso   1.000  C
  C38      1.0000 0.11530  0.64579  0.04030  Biso   1.000  C
  C39      1.0000 0.61530  0.85421  0.54030  Biso   1.000  C
  C40      1.0000 0.61530  0.14579  0.04030  Biso   1.000  C
  H29      1.0000 0.23000  0.33792  0.57030  Biso   1.000  H
  H30      1.0000 0.23000  0.66208  0.07030  Biso   1.000  H
  H31      1.0000 0.73000  0.83792  0.57030  Biso   1.000  H
  H32      1.0000 0.73000  0.16208  0.07030  Biso   1.000  H
  C41      1.0000 0.42010  0.17973  0.64800  Biso   1.000  C
  C42      1.0000 0.42010  0.82027  0.14800  Biso   1.000  C
  C43      1.0000 0.92010  0.67973  0.64800  Biso   1.000  C
  C44      1.0000 0.92010  0.32027  0.14800  Biso   1.000  C
  C45      1.0000 0.67020  0.11206  0.74500  Biso   1.000  C
  C46      1.0000 0.67020  0.88794  0.24500  Biso   1.000  C
  C47      1.0000 0.17020  0.61206  0.74500  Biso   1.000  C
  C48      1.0000 0.17020  0.38794  0.24500  Biso   1.000  C
  C49      1.0000 0.05700  0.01453  0.62680  Biso   1.000  C
  C50      1.0000 0.05700  0.98547  0.12680  Biso   1.000  C
  C51      1.0000 0.55700  0.51453  0.62680  Biso   1.000  C
  C52      1.0000 0.55700  0.48547  0.12680  Biso   1.000  C
  C53      1.0000 0.05240  0.90172  0.74370  Biso   1.000  C
  C54      1.0000 0.05240  0.09828  0.24370  Biso   1.000  C
  C55      1.0000 0.55240  0.40172  0.74370  Biso   1.000  C
  C56      1.0000 0.55240  0.59828  0.24370  Biso   1.000  C
