data_image0
_cell_length_a       7.0884
_cell_length_b       11.1739
_cell_length_c       23.9893
_cell_angle_alpha    90
_cell_angle_beta     92.168
_cell_angle_gamma    90

_symmetry_space_group_name_H-M    "P 1"
_symmetry_int_tables_number       1

loop_
  _symmetry_equiv_pos_as_xyz
  'x, y, z'

loop_
  _atom_site_label
  _atom_site_occupancy
  _atom_site_fract_x
  _atom_site_fract_y
  _atom_site_fract_z
  _atom_site_thermal_displace_type
  _atom_site_B_iso_or_equiv
  _atom_site_type_symbol
  Cu1      1.0000 0.37829  0.14358  0.37802  Biso   1.000  Cu
  Cu2      1.0000 0.62171  0.64358  0.12198  Biso   1.000  Cu
  Cu3      1.0000 0.62171  0.85642  0.62198  Biso   1.000  Cu
  Cu4      1.0000 0.37829  0.35642  0.87802  Biso   1.000  Cu
  O1       1.0000 0.58960  0.14939  0.43440  Biso   1.000  O
  O2       1.0000 0.41040  0.64939  0.06560  Biso   1.000  O
  O3       1.0000 0.41040  0.85061  0.56560  Biso   1.000  O
  O4       1.0000 0.58960  0.35061  0.93440  Biso   1.000  O
  H1       1.0000 0.68610  0.18790  0.42170  Biso   1.000  H
  H2       1.0000 0.31390  0.68790  0.07830  Biso   1.000  H
  H3       1.0000 0.31390  0.81210  0.57830  Biso   1.000  H
  H4       1.0000 0.68610  0.31210  0.92170  Biso   1.000  H
  H5       1.0000 0.62700  0.07730  0.44340  Biso   1.000  H
  H6       1.0000 0.37300  0.57730  0.05660  Biso   1.000  H
  H7       1.0000 0.37300  0.92270  0.55660  Biso   1.000  H
  H8       1.0000 0.62700  0.42270  0.94340  Biso   1.000  H
  O5       1.0000 0.15520  0.14419  0.32712  Biso   1.000  O
  O6       1.0000 0.84480  0.64419  0.17288  Biso   1.000  O
  O7       1.0000 0.84480  0.85581  0.67288  Biso   1.000  O
  O8       1.0000 0.15520  0.35581  0.82712  Biso   1.000  O
  H9       1.0000 0.07160  0.09150  0.33720  Biso   1.000  H
  H10      1.0000 0.92840  0.59150  0.16280  Biso   1.000  H
  H11      1.0000 0.92840  0.90850  0.66280  Biso   1.000  H
  H12      1.0000 0.07160  0.40850  0.83720  Biso   1.000  H
  H13      1.0000 0.18590  0.12670  0.29300  Biso   1.000  H
  H14      1.0000 0.81410  0.62670  0.20700  Biso   1.000  H
  H15      1.0000 0.81410  0.87330  0.70700  Biso   1.000  H
  H16      1.0000 0.18590  0.37330  0.79300  Biso   1.000  H
  O9       1.0000 0.60370  0.15241  0.30448  Biso   1.000  O
  O10      1.0000 0.39630  0.65241  0.19552  Biso   1.000  O
  O11      1.0000 0.39630  0.84759  0.69552  Biso   1.000  O
  O12      1.0000 0.60370  0.34759  0.80448  Biso   1.000  O
  H17      1.0000 0.71120  0.15300  0.31830  Biso   1.000  H
  H18      1.0000 0.28880  0.65300  0.18170  Biso   1.000  H
  H19      1.0000 0.28880  0.84700  0.68170  Biso   1.000  H
  H20      1.0000 0.71120  0.34700  0.81830  Biso   1.000  H
  O13      1.0000 0.17410  0.16105  0.45673  Biso   1.000  O
  O14      1.0000 0.82590  0.66105  0.04327  Biso   1.000  O
  O15      1.0000 0.82590  0.83895  0.54327  Biso   1.000  O
  O16      1.0000 0.17410  0.33895  0.95673  Biso   1.000  O
  O17      1.0000 0.21830  0.04504  0.53229  Biso   1.000  O
  O18      1.0000 0.78170  0.54504  0.96771  Biso   1.000  O
  O19      1.0000 0.78170  0.95496  0.46771  Biso   1.000  O
  O20      1.0000 0.21830  0.45496  0.03229  Biso   1.000  O
  O21      1.0000 0.15340  0.21998  0.60097  Biso   1.000  O
  O22      1.0000 0.84660  0.71998  0.89903  Biso   1.000  O
  O23      1.0000 0.84660  0.78002  0.39903  Biso   1.000  O
  O24      1.0000 0.15340  0.28002  0.10097  Biso   1.000  O
  O25      1.0000 0.11380  0.20960  0.71096  Biso   1.000  O
  O26      1.0000 0.88620  0.70960  0.78904  Biso   1.000  O
  O27      1.0000 0.88620  0.79040  0.28904  Biso   1.000  O
  O28      1.0000 0.11380  0.29040  0.21096  Biso   1.000  O
  H21      1.0000 0.10580  0.16060  0.68550  Biso   1.000  H
  H22      1.0000 0.89420  0.66060  0.81450  Biso   1.000  H
  H23      1.0000 0.89420  0.83940  0.31450  Biso   1.000  H
  H24      1.0000 0.10580  0.33940  0.18550  Biso   1.000  H
  O29      1.0000 0.14440  0.40672  0.71908  Biso   1.000  O
  O30      1.0000 0.85560  0.90672  0.78092  Biso   1.000  O
  O31      1.0000 0.85560  0.59328  0.28092  Biso   1.000  O
  O32      1.0000 0.14440  0.09328  0.21908  Biso   1.000  O
  N1       1.0000 0.37830  0.96167  0.37646  Biso   1.000  N
  N2       1.0000 0.62170  0.46167  0.12354  Biso   1.000  N
  N3       1.0000 0.62170  0.03833  0.62354  Biso   1.000  N
  N4       1.0000 0.37830  0.53833  0.87646  Biso   1.000  N
  N5       1.0000 0.37950  0.32610  0.37595  Biso   1.000  N
  N6       1.0000 0.62050  0.82610  0.12405  Biso   1.000  N
  N7       1.0000 0.62050  0.67390  0.62405  Biso   1.000  N
  N8       1.0000 0.37950  0.17390  0.87595  Biso   1.000  N
  C1       1.0000 0.18220  0.14200  0.50829  Biso   1.000  C
  C2       1.0000 0.81780  0.64200  0.99171  Biso   1.000  C
  C3       1.0000 0.81780  0.85800  0.49171  Biso   1.000  C
  C4       1.0000 0.18220  0.35800  0.00829  Biso   1.000  C
  C5       1.0000 0.14610  0.24570  0.54554  Biso   1.000  C
  C6       1.0000 0.85390  0.74570  0.95446  Biso   1.000  C
  C7       1.0000 0.85390  0.75430  0.45446  Biso   1.000  C
  C8       1.0000 0.14610  0.25430  0.04554  Biso   1.000  C
  C9       1.0000 0.11520  0.36460  0.53818  Biso   1.000  C
  C10      1.0000 0.88480  0.86460  0.96182  Biso   1.000  C
  C11      1.0000 0.88480  0.63540  0.46182  Biso   1.000  C
  C12      1.0000 0.11520  0.13540  0.03818  Biso   1.000  C
  H25      1.0000 0.10270  0.40480  0.50430  Biso   1.000  H
  H26      1.0000 0.89730  0.90480  0.99570  Biso   1.000  H
  H27      1.0000 0.89730  0.59520  0.49570  Biso   1.000  H
  H28      1.0000 0.10270  0.09520  0.00430  Biso   1.000  H
  C13      1.0000 0.10530  0.41600  0.59257  Biso   1.000  C
  C14      1.0000 0.89470  0.91600  0.90743  Biso   1.000  C
  C15      1.0000 0.89470  0.58400  0.40743  Biso   1.000  C
  C16      1.0000 0.10530  0.08400  0.09257  Biso   1.000  C
  H29      1.0000 0.08710  0.49630  0.60110  Biso   1.000  H
  H30      1.0000 0.91290  0.99630  0.89890  Biso   1.000  H
  H31      1.0000 0.91290  0.50370  0.39890  Biso   1.000  H
  H32      1.0000 0.08710  0.00370  0.10110  Biso   1.000  H
  C17      1.0000 0.12790  0.32460  0.62928  Biso   1.000  C
  C18      1.0000 0.87210  0.82460  0.87072  Biso   1.000  C
  C19      1.0000 0.87210  0.67540  0.37072  Biso   1.000  C
  C20      1.0000 0.12790  0.17540  0.12928  Biso   1.000  C
  C21      1.0000 0.12830  0.31220  0.69102  Biso   1.000  C
  C22      1.0000 0.87170  0.81220  0.80898  Biso   1.000  C
  C23      1.0000 0.87170  0.68780  0.30898  Biso   1.000  C
  C24      1.0000 0.12830  0.18780  0.19102  Biso   1.000  C
  C25      1.0000 0.33930  0.89860  0.42230  Biso   1.000  C
  C26      1.0000 0.66070  0.39860  0.07770  Biso   1.000  C
  C27      1.0000 0.66070  0.10140  0.57770  Biso   1.000  C
  C28      1.0000 0.33930  0.60140  0.92230  Biso   1.000  C
  H33      1.0000 0.31350  0.93990  0.45480  Biso   1.000  H
  H34      1.0000 0.68650  0.43990  0.04520  Biso   1.000  H
  H35      1.0000 0.68650  0.06010  0.54520  Biso   1.000  H
  H36      1.0000 0.31350  0.56010  0.95480  Biso   1.000  H
  C29      1.0000 0.33610  0.77520  0.42317  Biso   1.000  C
  C30      1.0000 0.66390  0.27520  0.07683  Biso   1.000  C
  C31      1.0000 0.66390  0.22480  0.57683  Biso   1.000  C
  C32      1.0000 0.33610  0.72480  0.92317  Biso   1.000  C
  H37      1.0000 0.30770  0.73510  0.45580  Biso   1.000  H
  H38      1.0000 0.69230  0.23510  0.04420  Biso   1.000  H
  H39      1.0000 0.69230  0.26490  0.54420  Biso   1.000  H
  H40      1.0000 0.30770  0.76490  0.95580  Biso   1.000  H
  C33      1.0000 0.37540  0.71010  0.37515  Biso   1.000  C
  C34      1.0000 0.62460  0.21010  0.12485  Biso   1.000  C
  C35      1.0000 0.62460  0.28990  0.62485  Biso   1.000  C
  C36      1.0000 0.37540  0.78990  0.87515  Biso   1.000  C
  C37      1.0000 0.41360  0.77660  0.32780  Biso   1.000  C
  C38      1.0000 0.58640  0.27660  0.17220  Biso   1.000  C
  C39      1.0000 0.58640  0.22340  0.67220  Biso   1.000  C
  C40      1.0000 0.41360  0.72340  0.82780  Biso   1.000  C
  H41      1.0000 0.43900  0.73780  0.29460  Biso   1.000  H
  H42      1.0000 0.56100  0.23780  0.20540  Biso   1.000  H
  H43      1.0000 0.56100  0.26220  0.70540  Biso   1.000  H
  H44      1.0000 0.43900  0.76220  0.79460  Biso   1.000  H
  C41      1.0000 0.41370  0.89980  0.33003  Biso   1.000  C
  C42      1.0000 0.58630  0.39980  0.16997  Biso   1.000  C
  C43      1.0000 0.58630  0.10020  0.66997  Biso   1.000  C
  C44      1.0000 0.41370  0.60020  0.83003  Biso   1.000  C
  H45      1.0000 0.43960  0.94220  0.29780  Biso   1.000  H
  H46      1.0000 0.56040  0.44220  0.20220  Biso   1.000  H
  H47      1.0000 0.56040  0.05780  0.70220  Biso   1.000  H
  H48      1.0000 0.43960  0.55780  0.79780  Biso   1.000  H
  C45      1.0000 0.37660  0.57790  0.37506  Biso   1.000  C
  C46      1.0000 0.62340  0.07790  0.12494  Biso   1.000  C
  C47      1.0000 0.62340  0.42210  0.62494  Biso   1.000  C
  C48      1.0000 0.37660  0.92210  0.87506  Biso   1.000  C
  C49      1.0000 0.41110  0.39000  0.42279  Biso   1.000  C
  C50      1.0000 0.58890  0.89000  0.07721  Biso   1.000  C
  C51      1.0000 0.58890  0.61000  0.57721  Biso   1.000  C
  C52      1.0000 0.41110  0.11000  0.92279  Biso   1.000  C
  H49      1.0000 0.43510  0.34910  0.45610  Biso   1.000  H
  H50      1.0000 0.56490  0.84910  0.04390  Biso   1.000  H
  H51      1.0000 0.56490  0.65090  0.54390  Biso   1.000  H
  H52      1.0000 0.43510  0.15090  0.95610  Biso   1.000  H
  C53      1.0000 0.34370  0.51110  0.32658  Biso   1.000  C
  C54      1.0000 0.65630  0.01110  0.17342  Biso   1.000  C
  C55      1.0000 0.65630  0.48890  0.67342  Biso   1.000  C
  C56      1.0000 0.34370  0.98890  0.82658  Biso   1.000  C
  H53      1.0000 0.32010  0.54980  0.29270  Biso   1.000  H
  H54      1.0000 0.67990  0.04980  0.20730  Biso   1.000  H
  H55      1.0000 0.67990  0.45020  0.70730  Biso   1.000  H
  H56      1.0000 0.32010  0.95020  0.79270  Biso   1.000  H
  C57      1.0000 0.40980  0.51250  0.42381  Biso   1.000  C
  C58      1.0000 0.59020  0.01250  0.07619  Biso   1.000  C
  C59      1.0000 0.59020  0.48750  0.57619  Biso   1.000  C
  C60      1.0000 0.40980  0.98750  0.92381  Biso   1.000  C
  H57      1.0000 0.43130  0.55240  0.45750  Biso   1.000  H
  H58      1.0000 0.56870  0.05240  0.04250  Biso   1.000  H
  H59      1.0000 0.56870  0.44760  0.54250  Biso   1.000  H
  H60      1.0000 0.43130  0.94760  0.95750  Biso   1.000  H
  C61      1.0000 0.34600  0.38840  0.32873  Biso   1.000  C
  C62      1.0000 0.65400  0.88840  0.17127  Biso   1.000  C
  C63      1.0000 0.65400  0.61160  0.67127  Biso   1.000  C
  C64      1.0000 0.34600  0.11160  0.82873  Biso   1.000  C
  H61      1.0000 0.32320  0.34620  0.29580  Biso   1.000  H
  H62      1.0000 0.67680  0.84620  0.20420  Biso   1.000  H
  H63      1.0000 0.67680  0.65380  0.70420  Biso   1.000  H
  H64      1.0000 0.32320  0.15380  0.79580  Biso   1.000  H
  O33      1.0000 0.87130  0.99932  0.34993  Biso   1.000  O
  O34      1.0000 0.12870  0.49932  0.15007  Biso   1.000  O
  O35      1.0000 0.12870  0.00068  0.65007  Biso   1.000  O
  O36      1.0000 0.87130  0.50068  0.84993  Biso   1.000  O
  O37      1.0000 0.12140  0.71476  0.58954  Biso   1.000  O
  O38      1.0000 0.87860  0.21476  0.91046  Biso   1.000  O
  O39      1.0000 0.87860  0.28524  0.41046  Biso   1.000  O
  O40      1.0000 0.12140  0.78524  0.08954  Biso   1.000  O
  H65      1.0000 0.11290  0.69900  0.62400  Biso   1.000  H
  H66      1.0000 0.88710  0.19900  0.87600  Biso   1.000  H
  H67      1.0000 0.88710  0.30100  0.37600  Biso   1.000  H
  H68      1.0000 0.11290  0.80100  0.12400  Biso   1.000  H
  H69      1.0000 0.02690  0.75640  0.57850  Biso   1.000  H
  H70      1.0000 0.97310  0.25640  0.92150  Biso   1.000  H
  H71      1.0000 0.97310  0.24360  0.42150  Biso   1.000  H
  H72      1.0000 0.02690  0.74360  0.07850  Biso   1.000  H
  O41      1.0000 0.14650  0.64905  0.70366  Biso   1.000  O
  O42      1.0000 0.85350  0.14905  0.79634  Biso   1.000  O
  O43      1.0000 0.85350  0.35095  0.29634  Biso   1.000  O
  O44      1.0000 0.14650  0.85095  0.20366  Biso   1.000  O
