data_image0
_cell_length_a       11.055
_cell_length_b       11.055
_cell_length_c       47.6676
_cell_angle_alpha    90
_cell_angle_beta     90
_cell_angle_gamma    120

_symmetry_space_group_name_H-M    "P 1"
_symmetry_int_tables_number       1

loop_
  _symmetry_equiv_pos_as_xyz
  'x, y, z'

loop_
  _atom_site_label
  _atom_site_occupancy
  _atom_site_fract_x
  _atom_site_fract_y
  _atom_site_fract_z
  _atom_site_thermal_displace_type
  _atom_site_B_iso_or_equiv
  _atom_site_type_symbol
  C1       1.0000 0.53440  0.98850  0.72976  Biso   1.000  C
  C2       1.0000 0.54590  0.53440  0.56309  Biso   1.000  C
  C3       1.0000 0.98850  0.45410  0.89643  Biso   1.000  C
  C4       1.0000 0.01150  0.54590  0.39643  Biso   1.000  C
  C5       1.0000 0.45410  0.46560  0.06309  Biso   1.000  C
  C6       1.0000 0.46560  0.01150  0.22976  Biso   1.000  C
  C7       1.0000 0.56330  0.05490  0.70176  Biso   1.000  C
  C8       1.0000 0.50840  0.56330  0.53509  Biso   1.000  C
  C9       1.0000 0.05490  0.49160  0.86843  Biso   1.000  C
  C10      1.0000 0.94510  0.50840  0.36843  Biso   1.000  C
  C11      1.0000 0.49160  0.43670  0.03509  Biso   1.000  C
  C12      1.0000 0.43670  0.94510  0.20176  Biso   1.000  C
  O1       1.0000 0.56950  0.18110  0.70004  Biso   1.000  O
  O2       1.0000 0.38840  0.56950  0.53337  Biso   1.000  O
  O3       1.0000 0.18110  0.61160  0.86671  Biso   1.000  O
  O4       1.0000 0.81890  0.38840  0.36671  Biso   1.000  O
  O5       1.0000 0.61160  0.43050  0.03337  Biso   1.000  O
  O6       1.0000 0.43050  0.81890  0.20004  Biso   1.000  O
  C13      1.0000 0.59120  0.21890  0.67227  Biso   1.000  C
  C14      1.0000 0.37230  0.59120  0.50560  Biso   1.000  C
  C15      1.0000 0.21890  0.62770  0.83894  Biso   1.000  C
  C16      1.0000 0.78110  0.37230  0.33894  Biso   1.000  C
  C17      1.0000 0.62770  0.40880  0.00560  Biso   1.000  C
  C18      1.0000 0.40880  0.78110  0.17227  Biso   1.000  C
  C19      1.0000 0.59520  0.11980  0.65740  Biso   1.000  C
  C20      1.0000 0.47540  0.59520  0.49073  Biso   1.000  C
  C21      1.0000 0.11980  0.52460  0.82407  Biso   1.000  C
  C22      1.0000 0.88020  0.47540  0.32407  Biso   1.000  C
  C23      1.0000 0.52460  0.40480  0.99073  Biso   1.000  C
  C24      1.0000 0.40480  0.88020  0.15740  Biso   1.000  C
  H1       1.0000 0.60720  0.11970  0.63810  Biso   1.000  H
  H2       1.0000 0.48750  0.60720  0.47143  Biso   1.000  H
  H3       1.0000 0.11970  0.51250  0.80477  Biso   1.000  H
  H4       1.0000 0.88030  0.48750  0.30477  Biso   1.000  H
  H5       1.0000 0.51250  0.39280  0.97143  Biso   1.000  H
  H6       1.0000 0.39280  0.88030  0.13810  Biso   1.000  H
  C25      1.0000 0.57800  0.01460  0.67633  Biso   1.000  C
  C26      1.0000 0.56340  0.57800  0.50966  Biso   1.000  C
  C27      1.0000 0.01460  0.43660  0.84300  Biso   1.000  C
  C28      1.0000 0.98540  0.56340  0.34300  Biso   1.000  C
  C29      1.0000 0.43660  0.42200  0.00966  Biso   1.000  C
  C30      1.0000 0.42200  0.98540  0.17633  Biso   1.000  C
  H7       1.0000 0.57720  0.93230  0.67190  Biso   1.000  H
  H8       1.0000 0.64490  0.57720  0.50523  Biso   1.000  H
  H9       1.0000 0.93230  0.35510  0.83857  Biso   1.000  H
  H10      1.0000 0.06770  0.64490  0.33857  Biso   1.000  H
  H11      1.0000 0.35510  0.42280  0.00523  Biso   1.000  H
  H12      1.0000 0.42280  0.06770  0.17190  Biso   1.000  H
  C31      1.0000 0.78090  0.04720  0.78180  Biso   1.000  C
  C32      1.0000 0.73370  0.78090  0.61513  Biso   1.000  C
  C33      1.0000 0.04720  0.26630  0.94847  Biso   1.000  C
  C34      1.0000 0.95280  0.73370  0.44847  Biso   1.000  C
  C35      1.0000 0.26630  0.21910  0.11513  Biso   1.000  C
  C36      1.0000 0.21910  0.95280  0.28180  Biso   1.000  C
  H13      1.0000 0.77970  0.13050  0.78050  Biso   1.000  H
  H14      1.0000 0.64920  0.77970  0.61383  Biso   1.000  H
  H15      1.0000 0.13050  0.35080  0.94717  Biso   1.000  H
  H16      1.0000 0.86950  0.64920  0.44717  Biso   1.000  H
  H17      1.0000 0.35080  0.22030  0.11383  Biso   1.000  H
  H18      1.0000 0.22030  0.86950  0.28050  Biso   1.000  H
  C37      1.0000 0.90830  0.05050  0.78010  Biso   1.000  C
  C38      1.0000 0.85780  0.90830  0.61343  Biso   1.000  C
  C39      1.0000 0.05050  0.14220  0.94677  Biso   1.000  C
  C40      1.0000 0.94950  0.85780  0.44677  Biso   1.000  C
  C41      1.0000 0.14220  0.09170  0.11343  Biso   1.000  C
  C42      1.0000 0.09170  0.94950  0.28010  Biso   1.000  C
  H19      1.0000 0.99020  0.13530  0.77760  Biso   1.000  H
  H20      1.0000 0.85490  0.99020  0.61093  Biso   1.000  H
  H21      1.0000 0.13530  0.14510  0.94427  Biso   1.000  H
  H22      1.0000 0.86470  0.85490  0.44427  Biso   1.000  H
  H23      1.0000 0.14510  0.00980  0.11093  Biso   1.000  H
  H24      1.0000 0.00980  0.86470  0.27760  Biso   1.000  H
  C43      1.0000 0.91420  0.92900  0.78215  Biso   1.000  C
  C44      1.0000 0.98520  0.91420  0.61548  Biso   1.000  C
  C45      1.0000 0.92900  0.01480  0.94882  Biso   1.000  C
  C46      1.0000 0.07100  0.98520  0.44882  Biso   1.000  C
  C47      1.0000 0.01480  0.08580  0.11548  Biso   1.000  C
  C48      1.0000 0.08580  0.07100  0.28215  Biso   1.000  C
  C49      1.0000 0.78970  0.80920  0.78630  Biso   1.000  C
  C50      1.0000 0.98050  0.78970  0.61963  Biso   1.000  C
  C51      1.0000 0.80920  0.01950  0.95297  Biso   1.000  C
  C52      1.0000 0.19080  0.98050  0.45297  Biso   1.000  C
  C53      1.0000 0.01950  0.21030  0.11963  Biso   1.000  C
  C54      1.0000 0.21030  0.19080  0.28630  Biso   1.000  C
  H25      1.0000 0.78810  0.72460  0.78810  Biso   1.000  H
  H26      1.0000 0.06350  0.78810  0.62143  Biso   1.000  H
  H27      1.0000 0.72460  0.93650  0.95477  Biso   1.000  H
  H28      1.0000 0.27540  0.06350  0.45477  Biso   1.000  H
  H29      1.0000 0.93650  0.21190  0.12143  Biso   1.000  H
  H30      1.0000 0.21190  0.27540  0.28810  Biso   1.000  H
  C55      1.0000 0.66610  0.81150  0.78793  Biso   1.000  C
  C56      1.0000 0.85460  0.66610  0.62126  Biso   1.000  C
  C57      1.0000 0.81150  0.14540  0.95460  Biso   1.000  C
  C58      1.0000 0.18850  0.85460  0.45460  Biso   1.000  C
  C59      1.0000 0.14540  0.33390  0.12126  Biso   1.000  C
  C60      1.0000 0.33390  0.18850  0.28793  Biso   1.000  C
  H31      1.0000 0.58320  0.72830  0.79100  Biso   1.000  H
  H32      1.0000 0.85490  0.58320  0.62433  Biso   1.000  H
  H33      1.0000 0.72830  0.14510  0.95767  Biso   1.000  H
  H34      1.0000 0.27170  0.85490  0.45767  Biso   1.000  H
  H35      1.0000 0.14510  0.41680  0.12433  Biso   1.000  H
  H36      1.0000 0.41680  0.27170  0.29100  Biso   1.000  H
  C61      1.0000 0.29760  0.04800  0.78210  Biso   1.000  C
  C62      1.0000 0.24960  0.29760  0.61543  Biso   1.000  C
  C63      1.0000 0.04800  0.75040  0.94877  Biso   1.000  C
  C64      1.0000 0.95200  0.24960  0.44877  Biso   1.000  C
  C65      1.0000 0.75040  0.70240  0.11543  Biso   1.000  C
  C66      1.0000 0.70240  0.95200  0.28210  Biso   1.000  C
  H37      1.0000 0.38180  0.13180  0.78300  Biso   1.000  H
  H38      1.0000 0.25000  0.38180  0.61633  Biso   1.000  H
  H39      1.0000 0.13180  0.75000  0.94967  Biso   1.000  H
  H40      1.0000 0.86820  0.25000  0.44967  Biso   1.000  H
  H41      1.0000 0.75000  0.61820  0.11633  Biso   1.000  H
  H42      1.0000 0.61820  0.86820  0.28300  Biso   1.000  H
  C67      1.0000 0.17530  0.05180  0.78250  Biso   1.000  C
  C68      1.0000 0.12350  0.17530  0.61583  Biso   1.000  C
  C69      1.0000 0.05180  0.87650  0.94917  Biso   1.000  C
  C70      1.0000 0.94820  0.12350  0.44917  Biso   1.000  C
  C71      1.0000 0.87650  0.82470  0.11583  Biso   1.000  C
  C72      1.0000 0.82470  0.94820  0.28250  Biso   1.000  C
  H43      1.0000 0.17830  0.13700  0.78410  Biso   1.000  H
  H44      1.0000 0.04130  0.17830  0.61743  Biso   1.000  H
  H45      1.0000 0.13700  0.95870  0.95077  Biso   1.000  H
  H46      1.0000 0.86300  0.04130  0.45077  Biso   1.000  H
  H47      1.0000 0.95870  0.82170  0.11743  Biso   1.000  H
  H48      1.0000 0.82170  0.86300  0.28410  Biso   1.000  H
  C73      1.0000 0.04890  0.93080  0.78062  Biso   1.000  C
  C74      1.0000 0.11810  0.04890  0.61395  Biso   1.000  C
  C75      1.0000 0.93080  0.88190  0.94729  Biso   1.000  C
  C76      1.0000 0.06920  0.11810  0.44729  Biso   1.000  C
  C77      1.0000 0.88190  0.95110  0.11395  Biso   1.000  C
  C78      1.0000 0.95110  0.06920  0.28062  Biso   1.000  C
  C79      1.0000 0.05370  0.81000  0.77740  Biso   1.000  C
  C80      1.0000 0.24370  0.05370  0.61073  Biso   1.000  C
  C81      1.0000 0.81000  0.75630  0.94407  Biso   1.000  C
  C82      1.0000 0.19000  0.24370  0.44407  Biso   1.000  C
  C83      1.0000 0.75630  0.94630  0.11073  Biso   1.000  C
  C84      1.0000 0.94630  0.19000  0.27740  Biso   1.000  C
  H49      1.0000 0.97080  0.72570  0.77520  Biso   1.000  H
  H50      1.0000 0.24510  0.97080  0.60853  Biso   1.000  H
  H51      1.0000 0.72570  0.75490  0.94187  Biso   1.000  H
  H52      1.0000 0.27430  0.24510  0.44187  Biso   1.000  H
  H53      1.0000 0.75490  0.02920  0.10853  Biso   1.000  H
  H54      1.0000 0.02920  0.27430  0.27520  Biso   1.000  H
  C85      1.0000 0.17870  0.81150  0.77720  Biso   1.000  C
  C86      1.0000 0.36720  0.17870  0.61053  Biso   1.000  C
  C87      1.0000 0.81150  0.63280  0.94387  Biso   1.000  C
  C88      1.0000 0.18850  0.36720  0.44387  Biso   1.000  C
  C89      1.0000 0.63280  0.82130  0.11053  Biso   1.000  C
  C90      1.0000 0.82130  0.18850  0.27720  Biso   1.000  C
  H55      1.0000 0.17810  0.72780  0.77480  Biso   1.000  H
  H56      1.0000 0.45030  0.17810  0.60813  Biso   1.000  H
  H57      1.0000 0.72780  0.54970  0.94147  Biso   1.000  H
  H58      1.0000 0.27220  0.45030  0.44147  Biso   1.000  H
  H59      1.0000 0.54970  0.82190  0.10813  Biso   1.000  H
  H60      1.0000 0.82190  0.27220  0.27480  Biso   1.000  H
  C91      1.0000 0.58650  0.34600  0.66395  Biso   1.000  C
  C92      1.0000 0.24050  0.58650  0.49728  Biso   1.000  C
  C93      1.0000 0.34600  0.75950  0.83062  Biso   1.000  C
  C94      1.0000 0.65400  0.24050  0.33062  Biso   1.000  C
  C95      1.0000 0.75950  0.41350  0.99728  Biso   1.000  C
  C96      1.0000 0.41350  0.65400  0.16395  Biso   1.000  C
  O7       1.0000 0.54850  0.05900  0.75111  Biso   1.000  O
  O8       1.0000 0.48950  0.54850  0.58444  Biso   1.000  O
  O9       1.0000 0.05900  0.51050  0.91778  Biso   1.000  O
  O10      1.0000 0.94100  0.48950  0.41778  Biso   1.000  O
  O11      1.0000 0.51050  0.45150  0.08444  Biso   1.000  O
  O12      1.0000 0.45150  0.94100  0.25111  Biso   1.000  O
  O13      1.0000 0.49980  0.86170  0.73004  Biso   1.000  O
  O14      1.0000 0.63810  0.49980  0.56337  Biso   1.000  O
  O15      1.0000 0.86170  0.36190  0.89671  Biso   1.000  O
  O16      1.0000 0.13830  0.63810  0.39671  Biso   1.000  O
  O17      1.0000 0.36190  0.50020  0.06337  Biso   1.000  O
  O18      1.0000 0.50020  0.13830  0.23004  Biso   1.000  O
  O19      1.0000 0.62480  0.38360  0.63873  Biso   1.000  O
  O20      1.0000 0.24120  0.62480  0.47206  Biso   1.000  O
  O21      1.0000 0.38360  0.75880  0.80540  Biso   1.000  O
  O22      1.0000 0.61640  0.24120  0.30540  Biso   1.000  O
  O23      1.0000 0.75880  0.37520  0.97206  Biso   1.000  O
  O24      1.0000 0.37520  0.61640  0.13873  Biso   1.000  O
  O25      1.0000 0.57430  0.10100  0.81966  Biso   1.000  O
  O26      1.0000 0.47330  0.57430  0.65299  Biso   1.000  O
  O27      1.0000 0.10100  0.52670  0.98633  Biso   1.000  O
  O28      1.0000 0.89900  0.47330  0.48633  Biso   1.000  O
  O29      1.0000 0.52670  0.42570  0.15299  Biso   1.000  O
  O30      1.0000 0.42570  0.89900  0.31966  Biso   1.000  O
  H61      1.0000 0.59880  0.18800  0.81260  Biso   1.000  H
  H62      1.0000 0.41080  0.59880  0.64593  Biso   1.000  H
  H63      1.0000 0.18800  0.58920  0.97927  Biso   1.000  H
  H64      1.0000 0.81200  0.41080  0.47927  Biso   1.000  H
  H65      1.0000 0.58920  0.40120  0.14593  Biso   1.000  H
  H66      1.0000 0.40120  0.81200  0.31260  Biso   1.000  H
  H67      1.0000 0.63380  0.12820  0.83610  Biso   1.000  H
  H68      1.0000 0.50560  0.63380  0.66943  Biso   1.000  H
  H69      1.0000 0.12820  0.49440  0.00277  Biso   1.000  H
  H70      1.0000 0.87180  0.50560  0.50277  Biso   1.000  H
  H71      1.0000 0.49440  0.36620  0.16943  Biso   1.000  H
  H72      1.0000 0.36620  0.87180  0.33610  Biso   1.000  H
  O31      1.0000 0.53910  0.39740  0.68057  Biso   1.000  O
  O32      1.0000 0.14170  0.53910  0.51390  Biso   1.000  O
  O33      1.0000 0.39740  0.85830  0.84724  Biso   1.000  O
  O34      1.0000 0.60260  0.14170  0.34724  Biso   1.000  O
  O35      1.0000 0.85830  0.46090  0.01390  Biso   1.000  O
  O36      1.0000 0.46090  0.60260  0.18057  Biso   1.000  O
  Cu1      1.0000 0.48219  0.92975  0.78334  Biso   1.000  Cu
  Cu2      1.0000 0.55244  0.48219  0.61667  Biso   1.000  Cu
  Cu3      1.0000 0.92975  0.44756  0.95001  Biso   1.000  Cu
  Cu4      1.0000 0.07025  0.55244  0.45001  Biso   1.000  Cu
  Cu5      1.0000 0.44756  0.51781  0.11667  Biso   1.000  Cu
  Cu6      1.0000 0.51781  0.07025  0.28334  Biso   1.000  Cu
  N1       1.0000 0.30080  0.92920  0.78030  Biso   1.000  N
  N2       1.0000 0.37160  0.30080  0.61363  Biso   1.000  N
  N3       1.0000 0.92920  0.62840  0.94697  Biso   1.000  N
  N4       1.0000 0.07080  0.37160  0.44697  Biso   1.000  N
  N5       1.0000 0.62840  0.69920  0.11363  Biso   1.000  N
  N6       1.0000 0.69920  0.07080  0.28030  Biso   1.000  N
  N7       1.0000 0.66190  0.92920  0.78521  Biso   1.000  N
  N8       1.0000 0.73270  0.66190  0.61854  Biso   1.000  N
  N9       1.0000 0.92920  0.26730  0.95188  Biso   1.000  N
  N10      1.0000 0.07080  0.73270  0.45188  Biso   1.000  N
  N11      1.0000 0.26730  0.33810  0.11854  Biso   1.000  N
  N12      1.0000 0.33810  0.07080  0.28521  Biso   1.000  N
  C97      1.0000 0.19910  0.80520  0.69590  Biso   1.000  C
  C98      1.0000 0.39390  0.19910  0.52923  Biso   1.000  C
  C99      1.0000 0.80520  0.60610  0.86257  Biso   1.000  C
  C100     1.0000 0.19480  0.39390  0.36257  Biso   1.000  C
  C101     1.0000 0.60610  0.80090  0.02923  Biso   1.000  C
  C102     1.0000 0.80090  0.19480  0.19590  Biso   1.000  C
  H73      1.0000 0.28280  0.80460  0.69450  Biso   1.000  H
  H74      1.0000 0.47820  0.28280  0.52783  Biso   1.000  H
  H75      1.0000 0.80460  0.52180  0.86117  Biso   1.000  H
  H76      1.0000 0.19540  0.47820  0.36117  Biso   1.000  H
  H77      1.0000 0.52180  0.71720  0.02783  Biso   1.000  H
  H78      1.0000 0.71720  0.19540  0.19450  Biso   1.000  H
  C103     1.0000 0.20300  0.93380  0.69590  Biso   1.000  C
  C104     1.0000 0.26920  0.20300  0.52923  Biso   1.000  C
  C105     1.0000 0.93380  0.73080  0.86257  Biso   1.000  C
  C106     1.0000 0.06620  0.26920  0.36257  Biso   1.000  C
  C107     1.0000 0.73080  0.79700  0.02923  Biso   1.000  C
  C108     1.0000 0.79700  0.06620  0.19590  Biso   1.000  C
  H79      1.0000 0.28840  0.01640  0.69510  Biso   1.000  H
  H80      1.0000 0.27200  0.28840  0.52843  Biso   1.000  H
  H81      1.0000 0.01640  0.72800  0.86177  Biso   1.000  H
  H82      1.0000 0.98360  0.27200  0.36177  Biso   1.000  H
  H83      1.0000 0.72800  0.71160  0.02843  Biso   1.000  H
  H84      1.0000 0.71160  0.98360  0.19510  Biso   1.000  H
  C109     1.0000 0.08110  0.93850  0.69714  Biso   1.000  C
  C110     1.0000 0.14260  0.08110  0.53047  Biso   1.000  C
  C111     1.0000 0.93850  0.85740  0.86381  Biso   1.000  C
  C112     1.0000 0.06150  0.14260  0.36381  Biso   1.000  C
  C113     1.0000 0.85740  0.91890  0.03047  Biso   1.000  C
  C114     1.0000 0.91890  0.06150  0.19714  Biso   1.000  C
  C115     1.0000 0.96030  0.81170  0.69740  Biso   1.000  C
  C116     1.0000 0.14860  0.96030  0.53073  Biso   1.000  C
  C117     1.0000 0.81170  0.85140  0.86407  Biso   1.000  C
  C118     1.0000 0.18830  0.14860  0.36407  Biso   1.000  C
  C119     1.0000 0.85140  0.03970  0.03073  Biso   1.000  C
  C120     1.0000 0.03970  0.18830  0.19740  Biso   1.000  C
  H85      1.0000 0.87450  0.80820  0.69730  Biso   1.000  H
  H86      1.0000 0.06630  0.87450  0.53063  Biso   1.000  H
  H87      1.0000 0.80820  0.93370  0.86397  Biso   1.000  H
  H88      1.0000 0.19180  0.06630  0.36397  Biso   1.000  H
  H89      1.0000 0.93370  0.12550  0.03063  Biso   1.000  H
  H90      1.0000 0.12550  0.19180  0.19730  Biso   1.000  H
  C121     1.0000 0.96480  0.69020  0.69800  Biso   1.000  C
  C122     1.0000 0.27460  0.96480  0.53133  Biso   1.000  C
  C123     1.0000 0.69020  0.72540  0.86467  Biso   1.000  C
  C124     1.0000 0.30980  0.27460  0.36467  Biso   1.000  C
  C125     1.0000 0.72540  0.03520  0.03133  Biso   1.000  C
  C126     1.0000 0.03520  0.30980  0.19800  Biso   1.000  C
  H91      1.0000 0.88060  0.60630  0.69860  Biso   1.000  H
  H92      1.0000 0.27430  0.88060  0.53193  Biso   1.000  H
  H93      1.0000 0.60630  0.72570  0.86527  Biso   1.000  H
  H94      1.0000 0.39370  0.27430  0.36527  Biso   1.000  H
  H95      1.0000 0.72570  0.11940  0.03193  Biso   1.000  H
  H96      1.0000 0.11940  0.39370  0.19860  Biso   1.000  H
  C127     1.0000 0.89480  0.41480  0.74898  Biso   1.000  C
  C128     1.0000 0.48000  0.89480  0.58231  Biso   1.000  C
  C129     1.0000 0.41480  0.52000  0.91565  Biso   1.000  C
  C130     1.0000 0.58520  0.48000  0.41565  Biso   1.000  C
  C131     1.0000 0.52000  0.10520  0.08231  Biso   1.000  C
  C132     1.0000 0.10520  0.58520  0.24898  Biso   1.000  C
  C133     1.0000 0.76480  0.41650  0.75710  Biso   1.000  C
  C134     1.0000 0.34830  0.76480  0.59043  Biso   1.000  C
  C135     1.0000 0.41650  0.65170  0.92377  Biso   1.000  C
  C136     1.0000 0.58350  0.34830  0.42377  Biso   1.000  C
  C137     1.0000 0.65170  0.23520  0.09043  Biso   1.000  C
  C138     1.0000 0.23520  0.58350  0.25710  Biso   1.000  C
  C139     1.0000 0.67540  0.43490  0.74167  Biso   1.000  C
  C140     1.0000 0.24050  0.67540  0.57500  Biso   1.000  C
  C141     1.0000 0.43490  0.75950  0.90834  Biso   1.000  C
  C142     1.0000 0.56510  0.24050  0.40834  Biso   1.000  C
  C143     1.0000 0.75950  0.32460  0.07500  Biso   1.000  C
  C144     1.0000 0.32460  0.56510  0.24167  Biso   1.000  C
  H97      1.0000 0.67900  0.44660  0.72230  Biso   1.000  H
  H98      1.0000 0.23240  0.67900  0.55563  Biso   1.000  H
  H99      1.0000 0.44660  0.76760  0.88897  Biso   1.000  H
  H100     1.0000 0.55340  0.23240  0.38897  Biso   1.000  H
  H101     1.0000 0.76760  0.32100  0.05563  Biso   1.000  H
  H102     1.0000 0.32100  0.55340  0.22230  Biso   1.000  H
  C145     1.0000 0.57370  0.43360  0.75986  Biso   1.000  C
  C146     1.0000 0.14010  0.57370  0.59319  Biso   1.000  C
  C147     1.0000 0.43360  0.85990  0.92653  Biso   1.000  C
  C148     1.0000 0.56640  0.14010  0.42653  Biso   1.000  C
  C149     1.0000 0.85990  0.42630  0.09319  Biso   1.000  C
  C150     1.0000 0.42630  0.56640  0.25986  Biso   1.000  C
  H103     1.0000 0.49820  0.44460  0.75500  Biso   1.000  H
  H104     1.0000 0.05360  0.49820  0.58833  Biso   1.000  H
  H105     1.0000 0.44460  0.94640  0.92167  Biso   1.000  H
  H106     1.0000 0.55540  0.05360  0.42167  Biso   1.000  H
  H107     1.0000 0.94640  0.50180  0.08833  Biso   1.000  H
  H108     1.0000 0.50180  0.55540  0.25500  Biso   1.000  H
  C151     1.0000 0.60950  0.41300  0.78562  Biso   1.000  C
  C152     1.0000 0.19650  0.60950  0.61895  Biso   1.000  C
  C153     1.0000 0.41300  0.80350  0.95229  Biso   1.000  C
  C154     1.0000 0.58700  0.19650  0.45229  Biso   1.000  C
  C155     1.0000 0.80350  0.39050  0.11895  Biso   1.000  C
  C156     1.0000 0.39050  0.58700  0.28562  Biso   1.000  C
  O37      1.0000 0.72620  0.40220  0.78486  Biso   1.000  O
  O38      1.0000 0.32400  0.72620  0.61819  Biso   1.000  O
  O39      1.0000 0.40220  0.67600  0.95153  Biso   1.000  O
  O40      1.0000 0.59780  0.32400  0.45153  Biso   1.000  O
  O41      1.0000 0.67600  0.27380  0.11819  Biso   1.000  O
  O42      1.0000 0.27380  0.59780  0.28486  Biso   1.000  O
  C157     1.0000 0.54100  0.40690  0.81302  Biso   1.000  C
  C158     1.0000 0.13410  0.54100  0.64635  Biso   1.000  C
  C159     1.0000 0.40690  0.86590  0.97969  Biso   1.000  C
  C160     1.0000 0.59310  0.13410  0.47969  Biso   1.000  C
  C161     1.0000 0.86590  0.45900  0.14635  Biso   1.000  C
  C162     1.0000 0.45900  0.59310  0.31302  Biso   1.000  C
  C163     1.0000 0.96810  0.20480  0.69830  Biso   1.000  C
  C164     1.0000 0.76330  0.96810  0.53163  Biso   1.000  C
  C165     1.0000 0.20480  0.23670  0.86497  Biso   1.000  C
  C166     1.0000 0.79520  0.76330  0.36497  Biso   1.000  C
  C167     1.0000 0.23670  0.03190  0.03163  Biso   1.000  C
  C168     1.0000 0.03190  0.79520  0.19830  Biso   1.000  C
  H109     1.0000 0.88460  0.20610  0.69790  Biso   1.000  H
  H110     1.0000 0.67850  0.88460  0.53123  Biso   1.000  H
  H111     1.0000 0.20610  0.32150  0.86457  Biso   1.000  H
  H112     1.0000 0.79390  0.67850  0.36457  Biso   1.000  H
  H113     1.0000 0.32150  0.11540  0.03123  Biso   1.000  H
  H114     1.0000 0.11540  0.79390  0.19790  Biso   1.000  H
  C169     1.0000 0.96190  0.07980  0.69680  Biso   1.000  C
  C170     1.0000 0.88210  0.96190  0.53013  Biso   1.000  C
  C171     1.0000 0.07980  0.11790  0.86347  Biso   1.000  C
  C172     1.0000 0.92020  0.88210  0.36347  Biso   1.000  C
  C173     1.0000 0.11790  0.03810  0.03013  Biso   1.000  C
  C174     1.0000 0.03810  0.92020  0.19680  Biso   1.000  C
  H115     1.0000 0.87600  0.99820  0.69510  Biso   1.000  H
  H116     1.0000 0.87780  0.87600  0.52843  Biso   1.000  H
  H117     1.0000 0.99820  0.12220  0.86177  Biso   1.000  H
  H118     1.0000 0.00180  0.87780  0.36177  Biso   1.000  H
  H119     1.0000 0.12220  0.12400  0.02843  Biso   1.000  H
  H120     1.0000 0.12400  0.00180  0.19510  Biso   1.000  H
  C175     1.0000 0.08200  0.07380  0.69770  Biso   1.000  C
  C176     1.0000 0.00820  0.08200  0.53103  Biso   1.000  C
  C177     1.0000 0.07380  0.99180  0.86437  Biso   1.000  C
  C178     1.0000 0.92620  0.00820  0.36437  Biso   1.000  C
  C179     1.0000 0.99180  0.91800  0.03103  Biso   1.000  C
  C180     1.0000 0.91800  0.92620  0.19770  Biso   1.000  C
  C181     1.0000 0.20760  0.19900  0.70000  Biso   1.000  C
  C182     1.0000 0.00860  0.20760  0.53333  Biso   1.000  C
  C183     1.0000 0.19900  0.99140  0.86667  Biso   1.000  C
  C184     1.0000 0.80100  0.00860  0.36667  Biso   1.000  C
  C185     1.0000 0.99140  0.79240  0.03333  Biso   1.000  C
  C186     1.0000 0.79240  0.80100  0.20000  Biso   1.000  C
  H121     1.0000 0.29250  0.20080  0.70070  Biso   1.000  H
  H122     1.0000 0.09170  0.29250  0.53403  Biso   1.000  H
  H123     1.0000 0.20080  0.90830  0.86737  Biso   1.000  H
  H124     1.0000 0.79920  0.09170  0.36737  Biso   1.000  H
  H125     1.0000 0.90830  0.70750  0.03403  Biso   1.000  H
  H126     1.0000 0.70750  0.79920  0.20070  Biso   1.000  H
  O43      1.0000 0.91640  0.42900  0.72294  Biso   1.000  O
  O44      1.0000 0.48740  0.91640  0.55627  Biso   1.000  O
  O45      1.0000 0.42900  0.51260  0.88961  Biso   1.000  O
  O46      1.0000 0.57100  0.48740  0.38961  Biso   1.000  O
  O47      1.0000 0.51260  0.08360  0.05627  Biso   1.000  O
  O48      1.0000 0.08360  0.57100  0.22294  Biso   1.000  O
  O49      1.0000 0.96460  0.39520  0.76674  Biso   1.000  O
  O50      1.0000 0.56940  0.96460  0.60007  Biso   1.000  O
  O51      1.0000 0.39520  0.43060  0.93341  Biso   1.000  O
  O52      1.0000 0.60480  0.56940  0.43341  Biso   1.000  O
  O53      1.0000 0.43060  0.03540  0.10007  Biso   1.000  O
  O54      1.0000 0.03540  0.60480  0.26674  Biso   1.000  O
  O55      1.0000 0.26500  0.59910  0.73345  Biso   1.000  O
  O56      1.0000 0.66590  0.26500  0.56678  Biso   1.000  O
  O57      1.0000 0.59910  0.33410  0.90012  Biso   1.000  O
  O58      1.0000 0.40090  0.66590  0.40012  Biso   1.000  O
  O59      1.0000 0.33410  0.73500  0.06678  Biso   1.000  O
  O60      1.0000 0.73500  0.40090  0.23345  Biso   1.000  O
  H127     1.0000 0.34500  0.66140  0.72570  Biso   1.000  H
  H128     1.0000 0.68360  0.34500  0.55903  Biso   1.000  H
  H129     1.0000 0.66140  0.31640  0.89237  Biso   1.000  H
  H130     1.0000 0.33860  0.68360  0.39237  Biso   1.000  H
  H131     1.0000 0.31640  0.65500  0.05903  Biso   1.000  H
  H132     1.0000 0.65500  0.33860  0.22570  Biso   1.000  H
  H133     1.0000 0.27780  0.53310  0.74100  Biso   1.000  H
  H134     1.0000 0.74470  0.27780  0.57433  Biso   1.000  H
  H135     1.0000 0.53310  0.25530  0.90767  Biso   1.000  H
  H136     1.0000 0.46690  0.74470  0.40767  Biso   1.000  H
  H137     1.0000 0.25530  0.72220  0.07433  Biso   1.000  H
  H138     1.0000 0.72220  0.46690  0.24100  Biso   1.000  H
  O61      1.0000 0.57620  0.35900  0.83395  Biso   1.000  O
  O62      1.0000 0.21720  0.57620  0.66728  Biso   1.000  O
  O63      1.0000 0.35900  0.78280  0.00062  Biso   1.000  O
  O64      1.0000 0.64100  0.21720  0.50062  Biso   1.000  O
  O65      1.0000 0.78280  0.42380  0.16728  Biso   1.000  O
  O66      1.0000 0.42380  0.64100  0.33395  Biso   1.000  O
  O67      1.0000 0.45690  0.44830  0.81413  Biso   1.000  O
  O68      1.0000 0.00860  0.45690  0.64746  Biso   1.000  O
  O69      1.0000 0.44830  0.99140  0.98080  Biso   1.000  O
  O70      1.0000 0.55170  0.00860  0.48080  Biso   1.000  O
  O71      1.0000 0.99140  0.54310  0.14746  Biso   1.000  O
  O72      1.0000 0.54310  0.55170  0.31413  Biso   1.000  O
  Cu7      1.0000 0.08612  0.50622  0.70046  Biso   1.000  Cu
  Cu8      1.0000 0.57990  0.08612  0.53379  Biso   1.000  Cu
  Cu9      1.0000 0.50622  0.42010  0.86713  Biso   1.000  Cu
  Cu10     1.0000 0.49378  0.57990  0.36713  Biso   1.000  Cu
  Cu11     1.0000 0.42010  0.91388  0.03379  Biso   1.000  Cu
  Cu12     1.0000 0.91388  0.49378  0.20046  Biso   1.000  Cu
  N13      1.0000 0.08190  0.68530  0.69769  Biso   1.000  N
  N14      1.0000 0.39660  0.08190  0.53102  Biso   1.000  N
  N15      1.0000 0.68530  0.60340  0.86436  Biso   1.000  N
  N16      1.0000 0.31470  0.39660  0.36436  Biso   1.000  N
  N17      1.0000 0.60340  0.91810  0.03102  Biso   1.000  N
  N18      1.0000 0.91810  0.31470  0.19769  Biso   1.000  N
  N19      1.0000 0.08690  0.32660  0.70033  Biso   1.000  N
  N20      1.0000 0.76030  0.08690  0.53366  Biso   1.000  N
  N21      1.0000 0.32660  0.23970  0.86700  Biso   1.000  N
  N22      1.0000 0.67340  0.76030  0.36700  Biso   1.000  N
  N23      1.0000 0.23970  0.91310  0.03366  Biso   1.000  N
  N24      1.0000 0.91310  0.67340  0.20033  Biso   1.000  N
  C187     1.0000 0.20150  0.32040  0.70120  Biso   1.000  C
  C188     1.0000 0.88110  0.20150  0.53453  Biso   1.000  C
  C189     1.0000 0.32040  0.11890  0.86787  Biso   1.000  C
  C190     1.0000 0.67960  0.88110  0.36787  Biso   1.000  C
  C191     1.0000 0.11890  0.79850  0.03453  Biso   1.000  C
  C192     1.0000 0.79850  0.67960  0.20120  Biso   1.000  C
  H139     1.0000 0.28540  0.40420  0.70270  Biso   1.000  H
  H140     1.0000 0.88120  0.28540  0.53603  Biso   1.000  H
  H141     1.0000 0.40420  0.11880  0.86937  Biso   1.000  H
  H142     1.0000 0.59580  0.88120  0.36937  Biso   1.000  H
  H143     1.0000 0.11880  0.71460  0.03603  Biso   1.000  H
  H144     1.0000 0.71460  0.59580  0.20270  Biso   1.000  H
  O73      1.0000 0.24000  0.39250  0.77118  Biso   1.000  O
  O74      1.0000 0.84750  0.24000  0.60451  Biso   1.000  O
  O75      1.0000 0.39250  0.15250  0.93785  Biso   1.000  O
  O76      1.0000 0.60750  0.84750  0.43785  Biso   1.000  O
  O77      1.0000 0.15250  0.76000  0.10451  Biso   1.000  O
  O78      1.0000 0.76000  0.60750  0.27118  Biso   1.000  O
  H145     1.0000 0.29100  0.42500  0.78550  Biso   1.000  H
  H146     1.0000 0.86600  0.29100  0.61883  Biso   1.000  H
  H147     1.0000 0.42500  0.13400  0.95217  Biso   1.000  H
  H148     1.0000 0.57500  0.86600  0.45217  Biso   1.000  H
  H149     1.0000 0.13400  0.70900  0.11883  Biso   1.000  H
  H150     1.0000 0.70900  0.57500  0.28550  Biso   1.000  H
  H151     1.0000 0.17100  0.40300  0.77400  Biso   1.000  H
  H152     1.0000 0.76800  0.17100  0.60733  Biso   1.000  H
  H153     1.0000 0.40300  0.23200  0.94067  Biso   1.000  H
  H154     1.0000 0.59700  0.76800  0.44067  Biso   1.000  H
  H155     1.0000 0.23200  0.82900  0.10733  Biso   1.000  H
  H156     1.0000 0.82900  0.59700  0.27400  Biso   1.000  H
  O79      1.0000 0.74750  0.10190  0.86800  Biso   1.000  O
  O80      1.0000 0.64560  0.74750  0.70133  Biso   1.000  O
  O81      1.0000 0.10190  0.35440  0.03467  Biso   1.000  O
  O82      1.0000 0.89810  0.64560  0.53467  Biso   1.000  O
  O83      1.0000 0.35440  0.25250  0.20133  Biso   1.000  O
  O84      1.0000 0.25250  0.89810  0.36800  Biso   1.000  O
