data_image0
_cell_length_a       4.941
_cell_length_b       25.029
_cell_length_c       10.96
_cell_angle_alpha    90
_cell_angle_beta     97.834
_cell_angle_gamma    90

_symmetry_space_group_name_H-M    "P 1"
_symmetry_int_tables_number       1

loop_
  _symmetry_equiv_pos_as_xyz
  'x, y, z'

loop_
  _atom_site_label
  _atom_site_occupancy
  _atom_site_fract_x
  _atom_site_fract_y
  _atom_site_fract_z
  _atom_site_thermal_displace_type
  _atom_site_B_iso_or_equiv
  _atom_site_type_symbol
  Cu1      1.0000 0.50262  0.11321  0.44296  Biso   1.000  Cu
  Cu2      1.0000 0.50262  0.88679  0.94296  Biso   1.000  Cu
  Cu3      1.0000 0.00262  0.61321  0.44296  Biso   1.000  Cu
  Cu4      1.0000 0.00262  0.38679  0.94296  Biso   1.000  Cu
  N1       1.0000 0.65860  0.17410  0.54970  Biso   1.000  N
  N2       1.0000 0.65860  0.82590  0.04970  Biso   1.000  N
  N3       1.0000 0.15860  0.67410  0.54970  Biso   1.000  N
  N4       1.0000 0.15860  0.32590  0.04970  Biso   1.000  N
  C1       1.0000 0.94090  0.31670  0.74650  Biso   1.000  C
  C2       1.0000 0.94090  0.68330  0.24650  Biso   1.000  C
  C3       1.0000 0.44090  0.81670  0.74650  Biso   1.000  C
  C4       1.0000 0.44090  0.18330  0.24650  Biso   1.000  C
  O1       1.0000 0.82140  0.32930  0.83750  Biso   1.000  O
  O2       1.0000 0.82140  0.67070  0.33750  Biso   1.000  O
  O3       1.0000 0.32140  0.82930  0.83750  Biso   1.000  O
  O4       1.0000 0.32140  0.17070  0.33750  Biso   1.000  O
  O5       1.0000 0.14020  0.34147  0.71450  Biso   1.000  O
  O6       1.0000 0.14020  0.65853  0.21450  Biso   1.000  O
  O7       1.0000 0.64020  0.84147  0.71450  Biso   1.000  O
  O8       1.0000 0.64020  0.15853  0.21450  Biso   1.000  O
  C5       1.0000 0.55270  0.18900  0.65190  Biso   1.000  C
  C6       1.0000 0.55270  0.81100  0.15190  Biso   1.000  C
  C7       1.0000 0.05270  0.68900  0.65190  Biso   1.000  C
  C8       1.0000 0.05270  0.31100  0.15190  Biso   1.000  C
  H1       1.0000 0.42000  0.16760  0.67990  Biso   1.000  H
  H2       1.0000 0.42000  0.83240  0.17990  Biso   1.000  H
  H3       1.0000 0.92000  0.66760  0.67990  Biso   1.000  H
  H4       1.0000 0.92000  0.33240  0.17990  Biso   1.000  H
  C9       1.0000 0.63640  0.23530  0.71630  Biso   1.000  C
  C10      1.0000 0.63640  0.76470  0.21630  Biso   1.000  C
  C11      1.0000 0.13640  0.73530  0.71630  Biso   1.000  C
  C12      1.0000 0.13640  0.26470  0.21630  Biso   1.000  C
  H5       1.0000 0.55940  0.24480  0.78600  Biso   1.000  H
  H6       1.0000 0.55940  0.75520  0.28600  Biso   1.000  H
  H7       1.0000 0.05940  0.74480  0.78600  Biso   1.000  H
  H8       1.0000 0.05940  0.25520  0.28600  Biso   1.000  H
  C13      1.0000 0.83500  0.26720  0.67590  Biso   1.000  C
  C14      1.0000 0.83500  0.73280  0.17590  Biso   1.000  C
  C15      1.0000 0.33500  0.76720  0.67590  Biso   1.000  C
  C16      1.0000 0.33500  0.23280  0.17590  Biso   1.000  C
  C17      1.0000 0.94710  0.25190  0.57140  Biso   1.000  C
  C18      1.0000 0.94710  0.74810  0.07140  Biso   1.000  C
  C19      1.0000 0.44710  0.75190  0.57140  Biso   1.000  C
  C20      1.0000 0.44710  0.24810  0.07140  Biso   1.000  C
  H9       1.0000 0.08260  0.27230  0.54280  Biso   1.000  H
  H10      1.0000 0.08260  0.72770  0.04280  Biso   1.000  H
  H11      1.0000 0.58260  0.77230  0.54280  Biso   1.000  H
  H12      1.0000 0.58260  0.22770  0.04280  Biso   1.000  H
  C21      1.0000 0.85220  0.20560  0.51100  Biso   1.000  C
  C22      1.0000 0.85220  0.79440  0.01100  Biso   1.000  C
  C23      1.0000 0.35220  0.70560  0.51100  Biso   1.000  C
  C24      1.0000 0.35220  0.29440  0.01100  Biso   1.000  C
  H13      1.0000 0.92520  0.19570  0.44050  Biso   1.000  H
  H14      1.0000 0.92520  0.80430  0.94050  Biso   1.000  H
  H15      1.0000 0.42520  0.69570  0.44050  Biso   1.000  H
  H16      1.0000 0.42520  0.30430  0.94050  Biso   1.000  H
  N5       1.0000 0.34680  0.05580  0.32530  Biso   1.000  N
  N6       1.0000 0.34680  0.94420  0.82530  Biso   1.000  N
  N7       1.0000 0.84680  0.55580  0.32530  Biso   1.000  N
  N8       1.0000 0.84680  0.44420  0.82530  Biso   1.000  N
  C25      1.0000 0.99450  0.93370  0.07440  Biso   1.000  C
  C26      1.0000 0.99450  0.06630  0.57440  Biso   1.000  C
  C27      1.0000 0.49450  0.43370  0.07440  Biso   1.000  C
  C28      1.0000 0.49450  0.56630  0.57440  Biso   1.000  C
  O9       1.0000 0.74040  0.93980  0.03690  Biso   1.000  O
  O10      1.0000 0.74040  0.06020  0.53690  Biso   1.000  O
  O11      1.0000 0.24040  0.43980  0.03690  Biso   1.000  O
  O12      1.0000 0.24040  0.56020  0.53690  Biso   1.000  O
  O13      1.0000 0.14490  0.89663  0.04830  Biso   1.000  O
  O14      1.0000 0.14490  0.10337  0.54830  Biso   1.000  O
  O15      1.0000 0.64490  0.39663  0.04830  Biso   1.000  O
  O16      1.0000 0.64490  0.60337  0.54830  Biso   1.000  O
  C29      1.0000 0.11480  0.06450  0.24880  Biso   1.000  C
  C30      1.0000 0.11480  0.93550  0.74880  Biso   1.000  C
  C31      1.0000 0.61480  0.56450  0.24880  Biso   1.000  C
  C32      1.0000 0.61480  0.43550  0.74880  Biso   1.000  C
  H17      1.0000 0.03100  0.09770  0.25040  Biso   1.000  H
  H18      1.0000 0.03100  0.90230  0.75040  Biso   1.000  H
  H19      1.0000 0.53100  0.59770  0.25040  Biso   1.000  H
  H20      1.0000 0.53100  0.40230  0.75040  Biso   1.000  H
  C33      1.0000 0.99540  0.02640  0.16800  Biso   1.000  C
  C34      1.0000 0.99540  0.97360  0.66800  Biso   1.000  C
  C35      1.0000 0.49540  0.52640  0.16800  Biso   1.000  C
  C36      1.0000 0.49540  0.47360  0.66800  Biso   1.000  C
  H21      1.0000 0.83240  0.03390  0.11790  Biso   1.000  H
  H22      1.0000 0.83240  0.96610  0.61790  Biso   1.000  H
  H23      1.0000 0.33240  0.53390  0.11790  Biso   1.000  H
  H24      1.0000 0.33240  0.46610  0.61790  Biso   1.000  H
  C37      1.0000 0.11790  0.97680  0.16130  Biso   1.000  C
  C38      1.0000 0.11790  0.02320  0.66130  Biso   1.000  C
  C39      1.0000 0.61790  0.47680  0.16130  Biso   1.000  C
  C40      1.0000 0.61790  0.52320  0.66130  Biso   1.000  C
  C41      1.0000 0.35870  0.96770  0.23940  Biso   1.000  C
  C42      1.0000 0.35870  0.03230  0.73940  Biso   1.000  C
  C43      1.0000 0.85870  0.46770  0.23940  Biso   1.000  C
  C44      1.0000 0.85870  0.53230  0.73940  Biso   1.000  C
  H25      1.0000 0.44900  0.93520  0.23680  Biso   1.000  H
  H26      1.0000 0.44900  0.06480  0.73680  Biso   1.000  H
  H27      1.0000 0.94900  0.43520  0.23680  Biso   1.000  H
  H28      1.0000 0.94900  0.56480  0.73680  Biso   1.000  H
  C45      1.0000 0.46480  0.00680  0.32120  Biso   1.000  C
  C46      1.0000 0.46480  0.99320  0.82120  Biso   1.000  C
  C47      1.0000 0.96480  0.50680  0.32120  Biso   1.000  C
  C48      1.0000 0.96480  0.49320  0.82120  Biso   1.000  C
  H29      1.0000 0.62220  0.99940  0.37540  Biso   1.000  H
  H30      1.0000 0.62220  0.00060  0.87540  Biso   1.000  H
  H31      1.0000 0.12220  0.49940  0.37540  Biso   1.000  H
  H32      1.0000 0.12220  0.50060  0.87540  Biso   1.000  H
  O17      1.0000 0.63640  0.11900  0.97140  Biso   1.000  O
  O18      1.0000 0.63640  0.88100  0.47140  Biso   1.000  O
  O19      1.0000 0.13640  0.61900  0.97140  Biso   1.000  O
  O20      1.0000 0.13640  0.38100  0.47140  Biso   1.000  O
  H33      1.0000 0.49920  0.13110  0.92440  Biso   1.000  H
  H34      1.0000 0.49920  0.86890  0.42440  Biso   1.000  H
  H35      1.0000 0.99920  0.63110  0.92440  Biso   1.000  H
  H36      1.0000 0.99920  0.36890  0.42440  Biso   1.000  H
  H37      1.0000 0.64100  0.13400  0.04120  Biso   1.000  H
  H38      1.0000 0.64100  0.86600  0.54120  Biso   1.000  H
  H39      1.0000 0.14100  0.63400  0.04120  Biso   1.000  H
  H40      1.0000 0.14100  0.36600  0.54120  Biso   1.000  H
  O21      1.0000 0.09710  0.14290  0.86500  Biso   1.000  O
  O22      1.0000 0.09710  0.85710  0.36500  Biso   1.000  O
  O23      1.0000 0.59710  0.64290  0.86500  Biso   1.000  O
  O24      1.0000 0.59710  0.35710  0.36500  Biso   1.000  O
  H41      1.0000 0.95880  0.13590  0.90060  Biso   1.000  H
  H42      1.0000 0.95880  0.86410  0.40060  Biso   1.000  H
  H43      1.0000 0.45880  0.63590  0.90060  Biso   1.000  H
  H44      1.0000 0.45880  0.36410  0.40060  Biso   1.000  H
  H45      1.0000 0.08400  0.17600  0.84820  Biso   1.000  H
  H46      1.0000 0.08400  0.82400  0.34820  Biso   1.000  H
  H47      1.0000 0.58400  0.67600  0.84820  Biso   1.000  H
  H48      1.0000 0.58400  0.32400  0.34820  Biso   1.000  H
  H49      1.0000 0.06760  0.12670  0.79620  Biso   1.000  H
  H50      1.0000 0.06760  0.87330  0.29620  Biso   1.000  H
  H51      1.0000 0.56760  0.62670  0.79620  Biso   1.000  H
  H52      1.0000 0.56760  0.37330  0.29620  Biso   1.000  H
