data_image0
_cell_length_a       4.9579
_cell_length_b       25.0785
_cell_length_c       10.9881
_cell_angle_alpha    90
_cell_angle_beta     98.068
_cell_angle_gamma    90

_symmetry_space_group_name_H-M    "P 1"
_symmetry_int_tables_number       1

loop_
  _symmetry_equiv_pos_as_xyz
  'x, y, z'

loop_
  _atom_site_label
  _atom_site_occupancy
  _atom_site_fract_x
  _atom_site_fract_y
  _atom_site_fract_z
  _atom_site_thermal_displace_type
  _atom_site_B_iso_or_equiv
  _atom_site_type_symbol
  Cu1      1.0000 0.05679  0.11327  0.78373  Biso   1.000  Cu
  Cu2      1.0000 0.05679  0.88673  0.28373  Biso   1.000  Cu
  Cu3      1.0000 0.55679  0.61327  0.78373  Biso   1.000  Cu
  Cu4      1.0000 0.55679  0.38673  0.28373  Biso   1.000  Cu
  O1       1.0000 0.87210  0.17062  0.67850  Biso   1.000  O
  O2       1.0000 0.87210  0.82938  0.17850  Biso   1.000  O
  O3       1.0000 0.37210  0.67062  0.67850  Biso   1.000  O
  O4       1.0000 0.37210  0.32938  0.17850  Biso   1.000  O
  O5       1.0000 0.18840  0.15860  0.55510  Biso   1.000  O
  O6       1.0000 0.18840  0.84140  0.05510  Biso   1.000  O
  O7       1.0000 0.68840  0.65860  0.55510  Biso   1.000  O
  O8       1.0000 0.68840  0.34140  0.05510  Biso   1.000  O
  O9       1.0000 0.29380  0.06069  0.87844  Biso   1.000  O
  O10      1.0000 0.29380  0.93931  0.37844  Biso   1.000  O
  O11      1.0000 0.79380  0.56069  0.87844  Biso   1.000  O
  O12      1.0000 0.79380  0.43931  0.37844  Biso   1.000  O
  O13      1.0000 0.69450  0.10303  0.88772  Biso   1.000  O
  O14      1.0000 0.69450  0.89697  0.38772  Biso   1.000  O
  O15      1.0000 0.19450  0.60303  0.88772  Biso   1.000  O
  O16      1.0000 0.19450  0.39697  0.38772  Biso   1.000  O
  O17      1.0000 0.68520  0.38037  0.81420  Biso   1.000  O
  O18      1.0000 0.68520  0.61963  0.31420  Biso   1.000  O
  O19      1.0000 0.18520  0.88037  0.81420  Biso   1.000  O
  O20      1.0000 0.18520  0.11963  0.31420  Biso   1.000  O
  H1       1.0000 0.70500  0.36600  0.89500  Biso   1.000  H
  H2       1.0000 0.70500  0.63400  0.39500  Biso   1.000  H
  H3       1.0000 0.20500  0.86600  0.89500  Biso   1.000  H
  H4       1.0000 0.20500  0.13400  0.39500  Biso   1.000  H
  H5       1.0000 0.50850  0.37510  0.76980  Biso   1.000  H
  H6       1.0000 0.50850  0.62490  0.26980  Biso   1.000  H
  H7       1.0000 0.00850  0.87510  0.76980  Biso   1.000  H
  H8       1.0000 0.00850  0.12490  0.26980  Biso   1.000  H
  O21      1.0000 0.14790  0.35694  0.70710  Biso   1.000  O
  O22      1.0000 0.14790  0.64306  0.20710  Biso   1.000  O
  O23      1.0000 0.64790  0.85694  0.70710  Biso   1.000  O
  O24      1.0000 0.64790  0.14306  0.20710  Biso   1.000  O
  H9       1.0000 0.01040  0.35960  0.75900  Biso   1.000  H
  H10      1.0000 0.01040  0.64040  0.25900  Biso   1.000  H
  H11      1.0000 0.51040  0.85960  0.75900  Biso   1.000  H
  H12      1.0000 0.51040  0.14040  0.25900  Biso   1.000  H
  H13      1.0000 0.12070  0.38070  0.63910  Biso   1.000  H
  H14      1.0000 0.12070  0.61930  0.13910  Biso   1.000  H
  H15      1.0000 0.62070  0.88070  0.63910  Biso   1.000  H
  H16      1.0000 0.62070  0.11930  0.13910  Biso   1.000  H
  N1       1.0000 0.70720  0.32529  0.39150  Biso   1.000  N
  N2       1.0000 0.70720  0.67471  0.89150  Biso   1.000  N
  N3       1.0000 0.20720  0.82529  0.39150  Biso   1.000  N
  N4       1.0000 0.20720  0.17471  0.89150  Biso   1.000  N
  N5       1.0000 0.89870  0.94455  0.16610  Biso   1.000  N
  N6       1.0000 0.89870  0.05545  0.66610  Biso   1.000  N
  N7       1.0000 0.39870  0.44455  0.16610  Biso   1.000  N
  N8       1.0000 0.39870  0.55545  0.66610  Biso   1.000  N
  C1       1.0000 0.60480  0.31016  0.49290  Biso   1.000  C
  C2       1.0000 0.60480  0.68984  0.99290  Biso   1.000  C
  C3       1.0000 0.10480  0.81016  0.49290  Biso   1.000  C
  C4       1.0000 0.10480  0.18984  0.99290  Biso   1.000  C
  H17      1.0000 0.47010  0.33150  0.52070  Biso   1.000  H
  H18      1.0000 0.47010  0.66850  0.02070  Biso   1.000  H
  H19      1.0000 0.97010  0.83150  0.52070  Biso   1.000  H
  H20      1.0000 0.97010  0.16850  0.02070  Biso   1.000  H
  C5       1.0000 0.68800  0.26481  0.55790  Biso   1.000  C
  C6       1.0000 0.68800  0.73519  0.05790  Biso   1.000  C
  C7       1.0000 0.18800  0.76481  0.55790  Biso   1.000  C
  C8       1.0000 0.18800  0.23519  0.05790  Biso   1.000  C
  H21      1.0000 0.61120  0.25560  0.62850  Biso   1.000  H
  H22      1.0000 0.61120  0.74440  0.12850  Biso   1.000  H
  H23      1.0000 0.11120  0.75560  0.62850  Biso   1.000  H
  H24      1.0000 0.11120  0.24440  0.12850  Biso   1.000  H
  C9       1.0000 0.88720  0.23276  0.51780  Biso   1.000  C
  C10      1.0000 0.88720  0.76724  0.01780  Biso   1.000  C
  C11      1.0000 0.38720  0.73276  0.51780  Biso   1.000  C
  C12      1.0000 0.38720  0.26724  0.01780  Biso   1.000  C
  C13      1.0000 0.99570  0.24837  0.41310  Biso   1.000  C
  C14      1.0000 0.99570  0.75163  0.91310  Biso   1.000  C
  C15      1.0000 0.49570  0.74837  0.41310  Biso   1.000  C
  C16      1.0000 0.49570  0.25163  0.91310  Biso   1.000  C
  H25      1.0000 0.13090  0.22770  0.38370  Biso   1.000  H
  H26      1.0000 0.13090  0.77230  0.88370  Biso   1.000  H
  H27      1.0000 0.63090  0.72770  0.38370  Biso   1.000  H
  H28      1.0000 0.63090  0.27230  0.88370  Biso   1.000  H
  C17      1.0000 0.90230  0.29469  0.35280  Biso   1.000  C
  C18      1.0000 0.90230  0.70531  0.85280  Biso   1.000  C
  C19      1.0000 0.40230  0.79469  0.35280  Biso   1.000  C
  C20      1.0000 0.40230  0.20531  0.85280  Biso   1.000  C
  H29      1.0000 0.97730  0.30520  0.28250  Biso   1.000  H
  H30      1.0000 0.97730  0.69480  0.78250  Biso   1.000  H
  H31      1.0000 0.47730  0.80520  0.28250  Biso   1.000  H
  H32      1.0000 0.47730  0.19480  0.78250  Biso   1.000  H
  C21      1.0000 0.99190  0.18285  0.58790  Biso   1.000  C
  C22      1.0000 0.99190  0.81715  0.08790  Biso   1.000  C
  C23      1.0000 0.49190  0.68285  0.58790  Biso   1.000  C
  C24      1.0000 0.49190  0.31715  0.08790  Biso   1.000  C
  C25      1.0000 0.66680  0.93559  0.09020  Biso   1.000  C
  C26      1.0000 0.66680  0.06441  0.59020  Biso   1.000  C
  C27      1.0000 0.16680  0.43559  0.09020  Biso   1.000  C
  C28      1.0000 0.16680  0.56441  0.59020  Biso   1.000  C
  H33      1.0000 0.58260  0.90210  0.09260  Biso   1.000  H
  H34      1.0000 0.58260  0.09790  0.59260  Biso   1.000  H
  H35      1.0000 0.08260  0.40210  0.09260  Biso   1.000  H
  H36      1.0000 0.08260  0.59790  0.59260  Biso   1.000  H
  C29      1.0000 0.54610  0.97347  0.00850  Biso   1.000  C
  C30      1.0000 0.54610  0.02653  0.50850  Biso   1.000  C
  C31      1.0000 0.04610  0.47347  0.00850  Biso   1.000  C
  C32      1.0000 0.04610  0.52653  0.50850  Biso   1.000  C
  H37      1.0000 0.38150  0.96580  0.95790  Biso   1.000  H
  H38      1.0000 0.38150  0.03420  0.45790  Biso   1.000  H
  H39      1.0000 0.88150  0.46580  0.95790  Biso   1.000  H
  H40      1.0000 0.88150  0.53420  0.45790  Biso   1.000  H
  C33      1.0000 0.67050  0.02297  0.00190  Biso   1.000  C
  C34      1.0000 0.67050  0.97703  0.50190  Biso   1.000  C
  C35      1.0000 0.17050  0.52297  0.00190  Biso   1.000  C
  C36      1.0000 0.17050  0.47703  0.50190  Biso   1.000  C
  C37      1.0000 0.91170  0.03222  0.08040  Biso   1.000  C
  C38      1.0000 0.91170  0.96778  0.58040  Biso   1.000  C
  C39      1.0000 0.41170  0.53222  0.08040  Biso   1.000  C
  C40      1.0000 0.41170  0.46778  0.58040  Biso   1.000  C
  H41      1.0000 0.00310  0.06500  0.07810  Biso   1.000  H
  H42      1.0000 0.00310  0.93500  0.57810  Biso   1.000  H
  H43      1.0000 0.50310  0.56500  0.07810  Biso   1.000  H
  H44      1.0000 0.50310  0.43500  0.57810  Biso   1.000  H
  C41      1.0000 0.01540  0.99280  0.16150  Biso   1.000  C
  C42      1.0000 0.01540  0.00720  0.66150  Biso   1.000  C
  C43      1.0000 0.51540  0.49280  0.16150  Biso   1.000  C
  C44      1.0000 0.51540  0.50720  0.66150  Biso   1.000  C
  H45      1.0000 0.17480  0.00000  0.21610  Biso   1.000  H
  H46      1.0000 0.17480  0.00000  0.71610  Biso   1.000  H
  H47      1.0000 0.67480  0.50000  0.21610  Biso   1.000  H
  H48      1.0000 0.67480  0.50000  0.71610  Biso   1.000  H
  C45      1.0000 0.54780  0.06609  0.91560  Biso   1.000  C
  C46      1.0000 0.54780  0.93391  0.41560  Biso   1.000  C
  C47      1.0000 0.04780  0.56609  0.91560  Biso   1.000  C
  C48      1.0000 0.04780  0.43391  0.41560  Biso   1.000  C
