data_image0
_cell_length_a       4.981
_cell_length_b       25.067
_cell_length_c       11.019
_cell_angle_alpha    90
_cell_angle_beta     98.57
_cell_angle_gamma    90

_symmetry_space_group_name_H-M    "P 1"
_symmetry_int_tables_number       1

loop_
  _symmetry_equiv_pos_as_xyz
  'x, y, z'

loop_
  _atom_site_label
  _atom_site_occupancy
  _atom_site_fract_x
  _atom_site_fract_y
  _atom_site_fract_z
  _atom_site_thermal_displace_type
  _atom_site_B_iso_or_equiv
  _atom_site_type_symbol
  Cu1      1.0000 0.78732  0.61339  0.30450  Biso   1.000  Cu
  Cu2      1.0000 0.78732  0.38661  0.80450  Biso   1.000  Cu
  Cu3      1.0000 0.28732  0.11339  0.30450  Biso   1.000  Cu
  Cu4      1.0000 0.28732  0.88661  0.80450  Biso   1.000  Cu
  N1       1.0000 0.94630  0.55560  0.42190  Biso   1.000  N
  N2       1.0000 0.94630  0.44440  0.92190  Biso   1.000  N
  N3       1.0000 0.44630  0.05560  0.42190  Biso   1.000  N
  N4       1.0000 0.44630  0.94440  0.92190  Biso   1.000  N
  N5       1.0000 0.63700  0.67461  0.19660  Biso   1.000  N
  N6       1.0000 0.63700  0.32539  0.69660  Biso   1.000  N
  N7       1.0000 0.13700  0.17461  0.19660  Biso   1.000  N
  N8       1.0000 0.13700  0.82539  0.69660  Biso   1.000  N
  O1       1.0000 0.54990  0.43919  0.71010  Biso   1.000  O
  O2       1.0000 0.54990  0.56081  0.21010  Biso   1.000  O
  O3       1.0000 0.04990  0.93919  0.71010  Biso   1.000  O
  O4       1.0000 0.04990  0.06081  0.21010  Biso   1.000  O
  O5       1.0000 0.15000  0.39754  0.70120  Biso   1.000  O
  O6       1.0000 0.15000  0.60246  0.20120  Biso   1.000  O
  O7       1.0000 0.65000  0.89754  0.70120  Biso   1.000  O
  O8       1.0000 0.65000  0.10246  0.20120  Biso   1.000  O
  O9       1.0000 0.47310  0.82911  0.90970  Biso   1.000  O
  O10      1.0000 0.47310  0.17089  0.40970  Biso   1.000  O
  O11      1.0000 0.97310  0.32911  0.90970  Biso   1.000  O
  O12      1.0000 0.97310  0.67089  0.40970  Biso   1.000  O
  O13      1.0000 0.15910  0.84126  0.03090  Biso   1.000  O
  O14      1.0000 0.15910  0.15874  0.53090  Biso   1.000  O
  O15      1.0000 0.65910  0.34126  0.03090  Biso   1.000  O
  O16      1.0000 0.65910  0.65874  0.53090  Biso   1.000  O
  C1       1.0000 0.29690  0.43397  0.67330  Biso   1.000  C
  C2       1.0000 0.29690  0.56603  0.17330  Biso   1.000  C
  C3       1.0000 0.79690  0.93397  0.67330  Biso   1.000  C
  C4       1.0000 0.79690  0.06603  0.17330  Biso   1.000  C
  C5       1.0000 0.17340  0.47712  0.58660  Biso   1.000  C
  C6       1.0000 0.17340  0.52288  0.08660  Biso   1.000  C
  C7       1.0000 0.67340  0.97712  0.58660  Biso   1.000  C
  C8       1.0000 0.67340  0.02288  0.08660  Biso   1.000  C
  C9       1.0000 0.93300  0.46832  0.50870  Biso   1.000  C
  C10      1.0000 0.93300  0.53168  0.00870  Biso   1.000  C
  C11      1.0000 0.43300  0.96832  0.50870  Biso   1.000  C
  C12      1.0000 0.43300  0.03168  0.00870  Biso   1.000  C
  H1       1.0000 0.84220  0.43600  0.51110  Biso   1.000  H
  H2       1.0000 0.84220  0.56400  0.01110  Biso   1.000  H
  H3       1.0000 0.34220  0.93600  0.51110  Biso   1.000  H
  H4       1.0000 0.34220  0.06400  0.01110  Biso   1.000  H
  C13      1.0000 0.82850  0.50746  0.42750  Biso   1.000  C
  C14      1.0000 0.82850  0.49254  0.92750  Biso   1.000  C
  C15      1.0000 0.32850  0.00746  0.42750  Biso   1.000  C
  C16      1.0000 0.32850  0.99254  0.92750  Biso   1.000  C
  H5       1.0000 0.66950  0.50040  0.37430  Biso   1.000  H
  H6       1.0000 0.66950  0.49960  0.87430  Biso   1.000  H
  H7       1.0000 0.16950  0.00040  0.37430  Biso   1.000  H
  H8       1.0000 0.16950  0.99960  0.87430  Biso   1.000  H
  C17      1.0000 0.17870  0.56411  0.49710  Biso   1.000  C
  C18      1.0000 0.17870  0.43589  0.99710  Biso   1.000  C
  C19      1.0000 0.67870  0.06411  0.49710  Biso   1.000  C
  C20      1.0000 0.67870  0.93589  0.99710  Biso   1.000  C
  H9       1.0000 0.26320  0.59710  0.49450  Biso   1.000  H
  H10      1.0000 0.26320  0.40290  0.99450  Biso   1.000  H
  H11      1.0000 0.76320  0.09710  0.49450  Biso   1.000  H
  H12      1.0000 0.76320  0.90290  0.99450  Biso   1.000  H
  C21      1.0000 0.29920  0.52625  0.57840  Biso   1.000  C
  C22      1.0000 0.29920  0.47375  0.07840  Biso   1.000  C
  C23      1.0000 0.79920  0.02625  0.57840  Biso   1.000  C
  C24      1.0000 0.79920  0.97375  0.07840  Biso   1.000  C
  H13      1.0000 0.46370  0.53350  0.62750  Biso   1.000  H
  H14      1.0000 0.46370  0.46650  0.12750  Biso   1.000  H
  H15      1.0000 0.96370  0.03350  0.62750  Biso   1.000  H
  H16      1.0000 0.96370  0.96650  0.12750  Biso   1.000  H
  C25      1.0000 0.35480  0.81711  0.00020  Biso   1.000  C
  C26      1.0000 0.35480  0.18289  0.50020  Biso   1.000  C
  C27      1.0000 0.85480  0.31711  0.00020  Biso   1.000  C
  C28      1.0000 0.85480  0.68289  0.50020  Biso   1.000  C
  C29      1.0000 0.45900  0.76718  0.06900  Biso   1.000  C
  C30      1.0000 0.45900  0.23282  0.56900  Biso   1.000  C
  C31      1.0000 0.95900  0.26718  0.06900  Biso   1.000  C
  C32      1.0000 0.95900  0.73282  0.56900  Biso   1.000  C
  C33      1.0000 0.65380  0.73507  0.03020  Biso   1.000  C
  C34      1.0000 0.65380  0.26493  0.53020  Biso   1.000  C
  C35      1.0000 0.15380  0.23507  0.03020  Biso   1.000  C
  C36      1.0000 0.15380  0.76493  0.53020  Biso   1.000  C
  H17      1.0000 0.72770  0.74370  0.96010  Biso   1.000  H
  H18      1.0000 0.72770  0.25630  0.46010  Biso   1.000  H
  H19      1.0000 0.22770  0.24370  0.96010  Biso   1.000  H
  H20      1.0000 0.22770  0.75630  0.46010  Biso   1.000  H
  C37      1.0000 0.73710  0.69025  0.09620  Biso   1.000  C
  C38      1.0000 0.73710  0.30975  0.59620  Biso   1.000  C
  C39      1.0000 0.23710  0.19025  0.09620  Biso   1.000  C
  C40      1.0000 0.23710  0.80975  0.59620  Biso   1.000  C
  H21      1.0000 0.87150  0.66940  0.06960  Biso   1.000  H
  H22      1.0000 0.87150  0.33060  0.56960  Biso   1.000  H
  H23      1.0000 0.37150  0.16940  0.06960  Biso   1.000  H
  H24      1.0000 0.37150  0.83060  0.56960  Biso   1.000  H
  C41      1.0000 0.44270  0.70548  0.23400  Biso   1.000  C
  C42      1.0000 0.44270  0.29452  0.73400  Biso   1.000  C
  C43      1.0000 0.94270  0.20548  0.23400  Biso   1.000  C
  C44      1.0000 0.94270  0.79452  0.73400  Biso   1.000  C
  H25      1.0000 0.36850  0.69520  0.30300  Biso   1.000  H
  H26      1.0000 0.36850  0.30480  0.80300  Biso   1.000  H
  H27      1.0000 0.86850  0.19520  0.30300  Biso   1.000  H
  H28      1.0000 0.86850  0.80480  0.80300  Biso   1.000  H
  C45      1.0000 0.34990  0.75180  0.17360  Biso   1.000  C
  C46      1.0000 0.34990  0.24820  0.67360  Biso   1.000  C
  C47      1.0000 0.84990  0.25180  0.17360  Biso   1.000  C
  C48      1.0000 0.84990  0.74820  0.67360  Biso   1.000  C
  H29      1.0000 0.21700  0.77240  0.20200  Biso   1.000  H
  H30      1.0000 0.21700  0.22760  0.70200  Biso   1.000  H
  H31      1.0000 0.71700  0.27240  0.20200  Biso   1.000  H
  H32      1.0000 0.71700  0.72760  0.70200  Biso   1.000  H
  O17      1.0000 0.66820  0.61990  0.77310  Biso   1.000  O
  O18      1.0000 0.66820  0.38010  0.27310  Biso   1.000  O
  O19      1.0000 0.16820  0.11990  0.77310  Biso   1.000  O
  O20      1.0000 0.16820  0.88010  0.27310  Biso   1.000  O
  H33      1.0000 0.92000  0.61400  0.77900  Biso   1.000  H
  H34      1.0000 0.92000  0.38600  0.27900  Biso   1.000  H
  H35      1.0000 0.42000  0.11400  0.77900  Biso   1.000  H
  H36      1.0000 0.42000  0.88600  0.27900  Biso   1.000  H
  H37      1.0000 0.71000  0.63000  0.66500  Biso   1.000  H
  H38      1.0000 0.71000  0.37000  0.16500  Biso   1.000  H
  H39      1.0000 0.21000  0.13000  0.66500  Biso   1.000  H
  H40      1.0000 0.21000  0.87000  0.16500  Biso   1.000  H
  O21      1.0000 0.20460  0.64030  0.88040  Biso   1.000  O
  O22      1.0000 0.20460  0.35970  0.38040  Biso   1.000  O
  O23      1.0000 0.70460  0.14030  0.88040  Biso   1.000  O
  O24      1.0000 0.70460  0.85970  0.38040  Biso   1.000  O
  H41      1.0000 0.29000  0.59700  0.83800  Biso   1.000  H
  H42      1.0000 0.29000  0.40300  0.33800  Biso   1.000  H
  H43      1.0000 0.79000  0.09700  0.83800  Biso   1.000  H
  H44      1.0000 0.79000  0.90300  0.33800  Biso   1.000  H
  H45      1.0000 0.36000  0.65500  0.80500  Biso   1.000  H
  H46      1.0000 0.36000  0.34500  0.30500  Biso   1.000  H
  H47      1.0000 0.86000  0.15500  0.80500  Biso   1.000  H
  H48      1.0000 0.86000  0.84500  0.30500  Biso   1.000  H
