data_image0
_cell_length_a       4.9967
_cell_length_b       24.971
_cell_length_c       11.1001
_cell_angle_alpha    90
_cell_angle_beta     98.862
_cell_angle_gamma    90

_symmetry_space_group_name_H-M    "P 1"
_symmetry_int_tables_number       1

loop_
  _symmetry_equiv_pos_as_xyz
  'x, y, z'

loop_
  _atom_site_label
  _atom_site_occupancy
  _atom_site_fract_x
  _atom_site_fract_y
  _atom_site_fract_z
  _atom_site_thermal_displace_type
  _atom_site_B_iso_or_equiv
  _atom_site_type_symbol
  Cu1      1.0000 0.26276  0.61352  0.10480  Biso   1.000  Cu
  Cu2      1.0000 0.26276  0.38648  0.60480  Biso   1.000  Cu
  Cu3      1.0000 0.76276  0.11352  0.10480  Biso   1.000  Cu
  Cu4      1.0000 0.76276  0.88648  0.60480  Biso   1.000  Cu
  O1       1.0000 0.44630  0.67058  0.21010  Biso   1.000  O
  O2       1.0000 0.44630  0.32942  0.71010  Biso   1.000  O
  O3       1.0000 0.94630  0.17058  0.21010  Biso   1.000  O
  O4       1.0000 0.94630  0.82942  0.71010  Biso   1.000  O
  N1       1.0000 0.61120  0.82477  0.49730  Biso   1.000  N
  N2       1.0000 0.61120  0.17523  0.99730  Biso   1.000  N
  N3       1.0000 0.11120  0.32477  0.49730  Biso   1.000  N
  N4       1.0000 0.11120  0.67523  0.99730  Biso   1.000  N
  C1       1.0000 0.71230  0.80993  0.39820  Biso   1.000  C
  C2       1.0000 0.71230  0.19007  0.89820  Biso   1.000  C
  C3       1.0000 0.21230  0.30993  0.39820  Biso   1.000  C
  C4       1.0000 0.21230  0.69007  0.89820  Biso   1.000  C
  H1       1.0000 0.84680  0.83090  0.37260  Biso   1.000  H
  H2       1.0000 0.84680  0.16910  0.87260  Biso   1.000  H
  H3       1.0000 0.34680  0.33090  0.37260  Biso   1.000  H
  H4       1.0000 0.34680  0.66910  0.87260  Biso   1.000  H
  O5       1.0000 0.13700  0.65788  0.33120  Biso   1.000  O
  O6       1.0000 0.13700  0.34212  0.83120  Biso   1.000  O
  O7       1.0000 0.63700  0.15788  0.33120  Biso   1.000  O
  O8       1.0000 0.63700  0.84212  0.83120  Biso   1.000  O
  N5       1.0000 0.42430  0.55513  0.22070  Biso   1.000  N
  N6       1.0000 0.42430  0.44487  0.72070  Biso   1.000  N
  N7       1.0000 0.92430  0.05513  0.22070  Biso   1.000  N
  N8       1.0000 0.92430  0.94487  0.72070  Biso   1.000  N
  C5       1.0000 0.62590  0.76477  0.33200  Biso   1.000  C
  C6       1.0000 0.62590  0.23523  0.83200  Biso   1.000  C
  C7       1.0000 0.12590  0.26477  0.33200  Biso   1.000  C
  C8       1.0000 0.12590  0.73523  0.83200  Biso   1.000  C
  H5       1.0000 0.69800  0.75620  0.26210  Biso   1.000  H
  H6       1.0000 0.69800  0.24380  0.76210  Biso   1.000  H
  H7       1.0000 0.19800  0.25620  0.26210  Biso   1.000  H
  H8       1.0000 0.19800  0.74380  0.76210  Biso   1.000  H
  O9       1.0000 0.02530  0.43925  0.51016  Biso   1.000  O
  O10      1.0000 0.02530  0.56075  0.01016  Biso   1.000  O
  O11      1.0000 0.52530  0.93925  0.51016  Biso   1.000  O
  O12      1.0000 0.52530  0.06075  0.01016  Biso   1.000  O
  C9       1.0000 0.43220  0.73255  0.37030  Biso   1.000  C
  C10      1.0000 0.43220  0.26745  0.87030  Biso   1.000  C
  C11      1.0000 0.93220  0.23255  0.37030  Biso   1.000  C
  C12      1.0000 0.93220  0.76745  0.87030  Biso   1.000  C
  O13      1.0000 0.62590  0.39778  0.50175  Biso   1.000  O
  O14      1.0000 0.62590  0.60222  0.00175  Biso   1.000  O
  O15      1.0000 0.12590  0.89778  0.50175  Biso   1.000  O
  O16      1.0000 0.12590  0.10222  0.00175  Biso   1.000  O
  C13      1.0000 0.32450  0.74784  0.47310  Biso   1.000  C
  C14      1.0000 0.32450  0.25216  0.97310  Biso   1.000  C
  C15      1.0000 0.82450  0.24784  0.47310  Biso   1.000  C
  C16      1.0000 0.82450  0.75216  0.97310  Biso   1.000  C
  H9       1.0000 0.19110  0.72730  0.50080  Biso   1.000  H
  H10      1.0000 0.19110  0.27270  0.00080  Biso   1.000  H
  H11      1.0000 0.69110  0.22730  0.50080  Biso   1.000  H
  H12      1.0000 0.69110  0.77270  0.00080  Biso   1.000  H
  O17      1.0000 0.13460  0.62230  0.57340  Biso   1.000  O
  O18      1.0000 0.13460  0.37770  0.07340  Biso   1.000  O
  O19      1.0000 0.63460  0.12230  0.57340  Biso   1.000  O
  O20      1.0000 0.63460  0.87770  0.07340  Biso   1.000  O
  C17      1.0000 0.41850  0.79417  0.53390  Biso   1.000  C
  C18      1.0000 0.41850  0.20583  0.03390  Biso   1.000  C
  C19      1.0000 0.91850  0.29417  0.53390  Biso   1.000  C
  C20      1.0000 0.91850  0.70583  0.03390  Biso   1.000  C
  H13      1.0000 0.34550  0.80440  0.60260  Biso   1.000  H
  H14      1.0000 0.34550  0.19560  0.10260  Biso   1.000  H
  H15      1.0000 0.84550  0.30440  0.60260  Biso   1.000  H
  H16      1.0000 0.84550  0.69560  0.10260  Biso   1.000  H
  O21      1.0000 0.68820  0.64060  0.66610  Biso   1.000  O
  O22      1.0000 0.68820  0.35940  0.16610  Biso   1.000  O
  O23      1.0000 0.18820  0.14060  0.66610  Biso   1.000  O
  O24      1.0000 0.18820  0.85940  0.16610  Biso   1.000  O
  C21      1.0000 0.32840  0.68252  0.30040  Biso   1.000  C
  C22      1.0000 0.32840  0.31748  0.80040  Biso   1.000  C
  C23      1.0000 0.82840  0.18252  0.30040  Biso   1.000  C
  C24      1.0000 0.82840  0.81748  0.80040  Biso   1.000  C
  C25      1.0000 0.30440  0.50760  0.22770  Biso   1.000  C
  C26      1.0000 0.30440  0.49240  0.72770  Biso   1.000  C
  C27      1.0000 0.80440  0.00760  0.22770  Biso   1.000  C
  C28      1.0000 0.80440  0.99240  0.72770  Biso   1.000  C
  H17      1.0000 0.14360  0.50080  0.17570  Biso   1.000  H
  H18      1.0000 0.14360  0.49920  0.67570  Biso   1.000  H
  H19      1.0000 0.64360  0.00080  0.17570  Biso   1.000  H
  H20      1.0000 0.64360  0.99920  0.67570  Biso   1.000  H
  C29      1.0000 0.41020  0.46798  0.30930  Biso   1.000  C
  C30      1.0000 0.41020  0.53202  0.80930  Biso   1.000  C
  C31      1.0000 0.91020  0.96798  0.30930  Biso   1.000  C
  C32      1.0000 0.91020  0.03202  0.80930  Biso   1.000  C
  H21      1.0000 0.31900  0.43570  0.31250  Biso   1.000  H
  H22      1.0000 0.31900  0.56430  0.81250  Biso   1.000  H
  H23      1.0000 0.81900  0.93570  0.31250  Biso   1.000  H
  H24      1.0000 0.81900  0.06430  0.81250  Biso   1.000  H
  C33      1.0000 0.65110  0.47687  0.38560  Biso   1.000  C
  C34      1.0000 0.65110  0.52313  0.88560  Biso   1.000  C
  C35      1.0000 0.15110  0.97687  0.38560  Biso   1.000  C
  C36      1.0000 0.15110  0.02313  0.88560  Biso   1.000  C
  C37      1.0000 0.77930  0.52596  0.37610  Biso   1.000  C
  C38      1.0000 0.77930  0.47404  0.87610  Biso   1.000  C
  C39      1.0000 0.27930  0.02596  0.37610  Biso   1.000  C
  C40      1.0000 0.27930  0.97404  0.87610  Biso   1.000  C
  H25      1.0000 0.94480  0.53310  0.42420  Biso   1.000  H
  H26      1.0000 0.94480  0.46690  0.92420  Biso   1.000  H
  H27      1.0000 0.44480  0.03310  0.42420  Biso   1.000  H
  H28      1.0000 0.44480  0.96690  0.92420  Biso   1.000  H
  C41      1.0000 0.77370  0.43400  0.47330  Biso   1.000  C
  C42      1.0000 0.77370  0.56600  0.97330  Biso   1.000  C
  C43      1.0000 0.27370  0.93400  0.47330  Biso   1.000  C
  C44      1.0000 0.27370  0.06600  0.97330  Biso   1.000  C
  C45      1.0000 0.65790  0.56416  0.29430  Biso   1.000  C
  C46      1.0000 0.65790  0.43584  0.79430  Biso   1.000  C
  C47      1.0000 0.15790  0.06416  0.29430  Biso   1.000  C
  C48      1.0000 0.15790  0.93584  0.79430  Biso   1.000  C
  H29      1.0000 0.74230  0.59720  0.29060  Biso   1.000  H
  H30      1.0000 0.74230  0.40280  0.79060  Biso   1.000  H
  H31      1.0000 0.24230  0.09720  0.29060  Biso   1.000  H
  H32      1.0000 0.24230  0.90280  0.79060  Biso   1.000  H
