data_image0
_cell_length_a       5.006
_cell_length_b       25.157
_cell_length_c       11.052
_cell_angle_alpha    90
_cell_angle_beta     98.66
_cell_angle_gamma    90

_symmetry_space_group_name_H-M    "P 1"
_symmetry_int_tables_number       1

loop_
  _symmetry_equiv_pos_as_xyz
  'x, y, z'

loop_
  _atom_site_label
  _atom_site_occupancy
  _atom_site_fract_x
  _atom_site_fract_y
  _atom_site_fract_z
  _atom_site_thermal_displace_type
  _atom_site_B_iso_or_equiv
  _atom_site_type_symbol
  Cu1      1.0000 0.78737  0.61338  0.30453  Biso   1.000  Cu
  Cu2      1.0000 0.78737  0.38663  0.80453  Biso   1.000  Cu
  Cu3      1.0000 0.28737  0.11338  0.30453  Biso   1.000  Cu
  Cu4      1.0000 0.28737  0.88663  0.80453  Biso   1.000  Cu
  N1       1.0000 0.94540  0.55543  0.42270  Biso   1.000  N
  N2       1.0000 0.94540  0.44457  0.92270  Biso   1.000  N
  N3       1.0000 0.44540  0.05543  0.42270  Biso   1.000  N
  N4       1.0000 0.44540  0.94457  0.92270  Biso   1.000  N
  N5       1.0000 0.63750  0.67445  0.19640  Biso   1.000  N
  N6       1.0000 0.63750  0.32555  0.69640  Biso   1.000  N
  N7       1.0000 0.13750  0.17445  0.19640  Biso   1.000  N
  N8       1.0000 0.13750  0.82555  0.69640  Biso   1.000  N
  O1       1.0000 0.54930  0.43903  0.70990  Biso   1.000  O
  O2       1.0000 0.54930  0.56097  0.20990  Biso   1.000  O
  O3       1.0000 0.04930  0.93903  0.70990  Biso   1.000  O
  O4       1.0000 0.04930  0.06097  0.20990  Biso   1.000  O
  O5       1.0000 0.14920  0.39747  0.70120  Biso   1.000  O
  O6       1.0000 0.14920  0.60253  0.20120  Biso   1.000  O
  O7       1.0000 0.64920  0.89747  0.70120  Biso   1.000  O
  O8       1.0000 0.64920  0.10253  0.20120  Biso   1.000  O
  O9       1.0000 0.47410  0.82918  0.90950  Biso   1.000  O
  O10      1.0000 0.47410  0.17082  0.40950  Biso   1.000  O
  O11      1.0000 0.97410  0.32918  0.90950  Biso   1.000  O
  O12      1.0000 0.97410  0.67082  0.40950  Biso   1.000  O
  O13      1.0000 0.15860  0.84116  0.03050  Biso   1.000  O
  O14      1.0000 0.15860  0.15884  0.53050  Biso   1.000  O
  O15      1.0000 0.65860  0.34116  0.03050  Biso   1.000  O
  O16      1.0000 0.65860  0.65884  0.53050  Biso   1.000  O
  C1       1.0000 0.29610  0.43428  0.67280  Biso   1.000  C
  C2       1.0000 0.29610  0.56572  0.17280  Biso   1.000  C
  C3       1.0000 0.79610  0.93428  0.67280  Biso   1.000  C
  C4       1.0000 0.79610  0.06572  0.17280  Biso   1.000  C
  C5       1.0000 0.17310  0.47718  0.58700  Biso   1.000  C
  C6       1.0000 0.17310  0.52282  0.08700  Biso   1.000  C
  C7       1.0000 0.67310  0.97718  0.58700  Biso   1.000  C
  C8       1.0000 0.67310  0.02282  0.08700  Biso   1.000  C
  C9       1.0000 0.93180  0.46828  0.50840  Biso   1.000  C
  C10      1.0000 0.93180  0.53172  0.00840  Biso   1.000  C
  C11      1.0000 0.43180  0.96828  0.50840  Biso   1.000  C
  C12      1.0000 0.43180  0.03172  0.00840  Biso   1.000  C
  H1       1.0000 0.84150  0.43610  0.51040  Biso   1.000  H
  H2       1.0000 0.84150  0.56390  0.01040  Biso   1.000  H
  H3       1.0000 0.34150  0.93610  0.51040  Biso   1.000  H
  H4       1.0000 0.34150  0.06390  0.01040  Biso   1.000  H
  C13      1.0000 0.82840  0.50755  0.42790  Biso   1.000  C
  C14      1.0000 0.82840  0.49245  0.92790  Biso   1.000  C
  C15      1.0000 0.32840  0.00755  0.42790  Biso   1.000  C
  C16      1.0000 0.32840  0.99245  0.92790  Biso   1.000  C
  H5       1.0000 0.67010  0.50060  0.37460  Biso   1.000  H
  H6       1.0000 0.67010  0.49940  0.87460  Biso   1.000  H
  H7       1.0000 0.17010  0.00060  0.37460  Biso   1.000  H
  H8       1.0000 0.17010  0.99940  0.87460  Biso   1.000  H
  C17      1.0000 0.17820  0.56405  0.49780  Biso   1.000  C
  C18      1.0000 0.17820  0.43595  0.99780  Biso   1.000  C
  C19      1.0000 0.67820  0.06405  0.49780  Biso   1.000  C
  C20      1.0000 0.67820  0.93595  0.99780  Biso   1.000  C
  H9       1.0000 0.26280  0.59680  0.49450  Biso   1.000  H
  H10      1.0000 0.26280  0.40320  0.99450  Biso   1.000  H
  H11      1.0000 0.76280  0.09680  0.49450  Biso   1.000  H
  H12      1.0000 0.76280  0.90320  0.99450  Biso   1.000  H
  C21      1.0000 0.29740  0.52650  0.57940  Biso   1.000  C
  C22      1.0000 0.29740  0.47350  0.07940  Biso   1.000  C
  C23      1.0000 0.79740  0.02650  0.57940  Biso   1.000  C
  C24      1.0000 0.79740  0.97350  0.07940  Biso   1.000  C
  H13      1.0000 0.45990  0.53400  0.62910  Biso   1.000  H
  H14      1.0000 0.45990  0.46600  0.12910  Biso   1.000  H
  H15      1.0000 0.95990  0.03400  0.62910  Biso   1.000  H
  H16      1.0000 0.95990  0.96600  0.12910  Biso   1.000  H
  C25      1.0000 0.35460  0.81713  0.99880  Biso   1.000  C
  C26      1.0000 0.35460  0.18287  0.49880  Biso   1.000  C
  C27      1.0000 0.85460  0.31713  0.99880  Biso   1.000  C
  C28      1.0000 0.85460  0.68287  0.49880  Biso   1.000  C
  C29      1.0000 0.45810  0.76712  0.06810  Biso   1.000  C
  C30      1.0000 0.45810  0.23288  0.56810  Biso   1.000  C
  C31      1.0000 0.95810  0.26712  0.06810  Biso   1.000  C
  C32      1.0000 0.95810  0.73288  0.56810  Biso   1.000  C
  C33      1.0000 0.65500  0.73492  0.02970  Biso   1.000  C
  C34      1.0000 0.65500  0.26508  0.52970  Biso   1.000  C
  C35      1.0000 0.15500  0.23492  0.02970  Biso   1.000  C
  C36      1.0000 0.15500  0.76508  0.52970  Biso   1.000  C
  H17      1.0000 0.72940  0.74370  0.96010  Biso   1.000  H
  H18      1.0000 0.72940  0.25630  0.46010  Biso   1.000  H
  H19      1.0000 0.22940  0.24370  0.96010  Biso   1.000  H
  H20      1.0000 0.22940  0.75630  0.46010  Biso   1.000  H
  C37      1.0000 0.73890  0.68987  0.09570  Biso   1.000  C
  C38      1.0000 0.73890  0.31013  0.59570  Biso   1.000  C
  C39      1.0000 0.23890  0.18987  0.09570  Biso   1.000  C
  C40      1.0000 0.23890  0.81013  0.59570  Biso   1.000  C
  H21      1.0000 0.87250  0.66900  0.06940  Biso   1.000  H
  H22      1.0000 0.87250  0.33100  0.56940  Biso   1.000  H
  H23      1.0000 0.37250  0.16900  0.06940  Biso   1.000  H
  H24      1.0000 0.37250  0.83100  0.56940  Biso   1.000  H
  C41      1.0000 0.44330  0.70519  0.23360  Biso   1.000  C
  C42      1.0000 0.44330  0.29481  0.73360  Biso   1.000  C
  C43      1.0000 0.94330  0.20519  0.23360  Biso   1.000  C
  C44      1.0000 0.94330  0.79481  0.73360  Biso   1.000  C
  H25      1.0000 0.36960  0.69490  0.30240  Biso   1.000  H
  H26      1.0000 0.36960  0.30510  0.80240  Biso   1.000  H
  H27      1.0000 0.86960  0.19490  0.30240  Biso   1.000  H
  H28      1.0000 0.86960  0.80510  0.80240  Biso   1.000  H
  C45      1.0000 0.34970  0.75150  0.17300  Biso   1.000  C
  C46      1.0000 0.34970  0.24850  0.67300  Biso   1.000  C
  C47      1.0000 0.84970  0.25150  0.17300  Biso   1.000  C
  C48      1.0000 0.84970  0.74850  0.67300  Biso   1.000  C
  H29      1.0000 0.21720  0.77190  0.20140  Biso   1.000  H
  H30      1.0000 0.21720  0.22810  0.70140  Biso   1.000  H
  H31      1.0000 0.71720  0.27190  0.20140  Biso   1.000  H
  H32      1.0000 0.71720  0.72810  0.70140  Biso   1.000  H
  O17      1.0000 0.66420  0.62000  0.77220  Biso   1.000  O
  O18      1.0000 0.66420  0.38000  0.27220  Biso   1.000  O
  O19      1.0000 0.16420  0.12000  0.77220  Biso   1.000  O
  O20      1.0000 0.16420  0.88000  0.27220  Biso   1.000  O
  H33      1.0000 0.88300  0.62200  0.79300  Biso   1.000  H
  H34      1.0000 0.88300  0.37800  0.29300  Biso   1.000  H
  H35      1.0000 0.38300  0.12200  0.79300  Biso   1.000  H
  H36      1.0000 0.38300  0.87800  0.29300  Biso   1.000  H
  H37      1.0000 0.71500  0.63700  0.68800  Biso   1.000  H
  H38      1.0000 0.71500  0.36300  0.18800  Biso   1.000  H
  H39      1.0000 0.21500  0.13700  0.68800  Biso   1.000  H
  H40      1.0000 0.21500  0.86300  0.18800  Biso   1.000  H
  O21      1.0000 0.20430  0.64070  0.88210  Biso   1.000  O
  O22      1.0000 0.20430  0.35930  0.38210  Biso   1.000  O
  O23      1.0000 0.70430  0.14070  0.88210  Biso   1.000  O
  O24      1.0000 0.70430  0.85930  0.38210  Biso   1.000  O
  H41      1.0000 0.23500  0.60000  0.84500  Biso   1.000  H
  H42      1.0000 0.23500  0.40000  0.34500  Biso   1.000  H
  H43      1.0000 0.73500  0.10000  0.84500  Biso   1.000  H
  H44      1.0000 0.73500  0.90000  0.34500  Biso   1.000  H
  H45      1.0000 0.33400  0.64600  0.81000  Biso   1.000  H
  H46      1.0000 0.33400  0.35400  0.31000  Biso   1.000  H
  H47      1.0000 0.83400  0.14600  0.81000  Biso   1.000  H
  H48      1.0000 0.83400  0.85400  0.31000  Biso   1.000  H
