data_image0
_cell_length_a       11.289
_cell_length_b       10.093
_cell_length_c       11.831
_cell_angle_alpha    107.99
_cell_angle_beta     114.4
_cell_angle_gamma    114.97

_symmetry_space_group_name_H-M    "P 1"
_symmetry_int_tables_number       1

loop_
  _symmetry_equiv_pos_as_xyz
  'x, y, z'

loop_
  _atom_site_label
  _atom_site_occupancy
  _atom_site_fract_x
  _atom_site_fract_y
  _atom_site_fract_z
  _atom_site_thermal_displace_type
  _atom_site_B_iso_or_equiv
  _atom_site_type_symbol
  Cu1      1.0000 0.00000  0.00000  0.00000  Biso   1.000  Cu
  O1       1.0000 0.23690  0.21860  0.14850  Biso   1.000  O
  O2       1.0000 0.76200  0.78100  0.84910  Biso   1.000  O
  O3       1.0000 0.92520  0.09480  0.14550  Biso   1.000  O
  N1       1.0000 0.55930  0.05030  0.69650  Biso   1.000  N
  C1       1.0000 0.61500  0.17580  0.67000  Biso   1.000  C
  N2       1.0000 0.50700  0.19820  0.59620  Biso   1.000  N
  N3       1.0000 0.76650  0.27240  0.70960  Biso   1.000  N
  C2       1.0000 0.86080  0.23670  0.78480  Biso   1.000  C
  C3       1.0000 0.82170  0.11900  0.82360  Biso   1.000  C
  C4       1.0000 0.65450  0.01090  0.77650  Biso   1.000  C
  O4       1.0000 0.59400  0.90020  0.79870  Biso   1.000  O
  N4       1.0000 0.96070  0.12730  0.90570  Biso   1.000  N
  C5       1.0000 0.07890  0.24900  0.91400  Biso   1.000  C
  N5       1.0000 0.02590  0.32020  0.84300  Biso   1.000  N
  C6       1.0000 0.13350  0.45970  0.83680  Biso   1.000  C
  O5       1.0000 0.16680  0.61870  0.92250  Biso   1.000  O
  C7       1.0000 0.05170  0.40930  0.67620  Biso   1.000  C
  O6       1.0000 0.06890  0.29440  0.59110  Biso   1.000  O
  C8       1.0000 0.14670  0.59340  0.70750  Biso   1.000  C
  O7       1.0000 0.31080  0.65630  0.75780  Biso   1.000  O
  C9       1.0000 0.15370  0.69930  0.83740  Biso   1.000  C
  C10      1.0000 0.99710  0.68630  0.78210  Biso   1.000  C
  O8       1.0000 0.03640  0.85490  0.82080  Biso   1.000  O
  P1       1.0000 0.90790  0.09510  0.44350  Biso   1.000  P
  O9       1.0000 0.85860  0.98640  0.50770  Biso   1.000  O
  O10      1.0000 0.97390  0.03850  0.37130  Biso   1.000  O
  O11      1.0000 0.76550  0.08880  0.35230  Biso   1.000  O
  N6       1.0000 0.44600  0.94600  0.27920  Biso   1.000  N
  C11      1.0000 0.38830  0.80630  0.29370  Biso   1.000  C
  N7       1.0000 0.49910  0.78120  0.35830  Biso   1.000  N
  N8       1.0000 0.23750  0.70480  0.25400  Biso   1.000  N
  C12      1.0000 0.14310  0.75010  0.19240  Biso   1.000  C
  C13      1.0000 0.18790  0.88510  0.17380  Biso   1.000  C
  C14      1.0000 0.35280  0.99550  0.22110  Biso   1.000  C
  O12      1.0000 0.42020  0.12470  0.21410  Biso   1.000  O
  N9       1.0000 0.04940  0.87760  0.10100  Biso   1.000  N
  C15      1.0000 0.92950  0.74430  0.08080  Biso   1.000  C
  N10      1.0000 0.97710  0.66060  0.13240  Biso   1.000  N
  C16      1.0000 0.88330  0.50960  0.13200  Biso   1.000  C
  O13      1.0000 0.71350  0.39040  0.99490  Biso   1.000  O
  C17      1.0000 0.86500  0.54750  0.25680  Biso   1.000  C
  O14      1.0000 0.01600  0.63580  0.40230  Biso   1.000  O
  C18      1.0000 0.72070  0.35560  0.19020  Biso   1.000  C
  O15      1.0000 0.78070  0.25940  0.20290  Biso   1.000  O
  C19      1.0000 0.60560  0.28280  0.02090  Biso   1.000  C
  C20      1.0000 0.45980  0.28430  0.96780  Biso   1.000  C
  O16      1.0000 0.50370  0.44520  0.07530  Biso   1.000  O
  P2       1.0000 0.11250  0.83760  0.53520  Biso   1.000  P
  O17      1.0000 0.15060  0.94920  0.47020  Biso   1.000  O
  O18      1.0000 0.99440  0.83960  0.56520  Biso   1.000  O
  O19      1.0000 0.27040  0.89420  0.66270  Biso   1.000  O
  O20      1.0000 0.63100  0.57300  0.38140  Biso   1.000  O
  O21      1.0000 0.57700  0.49020  0.56140  Biso   1.000  O
  O22      1.0000 0.26970  0.48400  0.34530  Biso   1.000  O
  O23      1.0000 0.57260  0.71000  0.02060  Biso   1.000  O
  O24      1.0000 0.30950  0.41200  0.54910  Biso   1.000  O
  H1       1.0000 0.46600  0.01200  0.70400  Biso   1.000  H
  H2       1.0000 0.38400  0.10500  0.52100  Biso   1.000  H
  H3       1.0000 0.52900  0.28000  0.56500  Biso   1.000  H
  H4       1.0000 0.19800  0.28400  0.98300  Biso   1.000  H
  H5       1.0000 0.24200  0.46900  0.89200  Biso   1.000  H
  H6       1.0000 0.92500  0.36200  0.61700  Biso   1.000  H
  H7       1.0000 0.09000  0.59100  0.60700  Biso   1.000  H
  H8       1.0000 0.36400  0.74800  0.74600  Biso   1.000  H
  H9       1.0000 0.26300  0.84000  0.91000  Biso   1.000  H
  H10      1.0000 0.90300  0.93100  0.53800  Biso   1.000  H
  H11      1.0000 0.95800  0.67500  0.85000  Biso   1.000  H
  H12      1.0000 0.89900  0.60300  0.66100  Biso   1.000  H
  H13      1.0000 0.02700  0.87700  0.74600  Biso   1.000  H
  H14      1.0000 0.56900  0.02100  0.33400  Biso   1.000  H
  H15      1.0000 0.47000  0.68200  0.37400  Biso   1.000  H
  H16      1.0000 0.60500  0.82200  0.37600  Biso   1.000  H
  H17      1.0000 0.80300  0.69000  0.02900  Biso   1.000  H
  H18      1.0000 0.93400  0.44000  0.12800  Biso   1.000  H
  H19      1.0000 0.80900  0.61000  0.23800  Biso   1.000  H
  H20      1.0000 0.76900  0.21300  0.26000  Biso   1.000  H
  H21      1.0000 0.54900  0.14400  0.94700  Biso   1.000  H
  H22      1.0000 0.25900  0.01500  0.49300  Biso   1.000  H
  H23      1.0000 0.42000  0.29300  0.87300  Biso   1.000  H
  H24      1.0000 0.39200  0.18700  0.98100  Biso   1.000  H
  H25      1.0000 0.55800  0.54100  0.06700  Biso   1.000  H
  H26      1.0000 0.30100  0.17400  0.16500  Biso   1.000  H
  H27      1.0000 0.29600  0.33300  0.24300  Biso   1.000  H
  H28      1.0000 0.69200  0.80700  0.80100  Biso   1.000  H
  H29      1.0000 0.71800  0.70100  0.74700  Biso   1.000  H
  H30      1.0000 0.87900  0.15300  0.16000  Biso   1.000  H
  H31      1.0000 0.87100  0.00800  0.16100  Biso   1.000  H
