data_image0
_cell_length_a       6.9444
_cell_length_b       9.3268
_cell_length_c       19.551
_cell_angle_alpha    76.662
_cell_angle_beta     84.69
_cell_angle_gamma    75.596

_symmetry_space_group_name_H-M    "P 1"
_symmetry_int_tables_number       1

loop_
  _symmetry_equiv_pos_as_xyz
  'x, y, z'

loop_
  _atom_site_label
  _atom_site_occupancy
  _atom_site_fract_x
  _atom_site_fract_y
  _atom_site_fract_z
  _atom_site_thermal_displace_type
  _atom_site_B_iso_or_equiv
  _atom_site_type_symbol
  Cu1      1.0000 0.51944  0.53943  0.24223  Biso   1.000  Cu
  Cu2      1.0000 0.48056  0.46057  0.75777  Biso   1.000  Cu
  N1       1.0000 0.40550  0.50660  0.15688  Biso   1.000  N
  N2       1.0000 0.59450  0.49340  0.84312  Biso   1.000  N
  C1       1.0000 0.23000  0.60380  0.04910  Biso   1.000  C
  C2       1.0000 0.77000  0.39620  0.95090  Biso   1.000  C
  C3       1.0000 0.29600  0.62210  0.11050  Biso   1.000  C
  C4       1.0000 0.70400  0.37790  0.88950  Biso   1.000  C
  H1       1.0000 0.26370  0.71840  0.12030  Biso   1.000  H
  H2       1.0000 0.73630  0.28160  0.87970  Biso   1.000  H
  C5       1.0000 0.44330  0.36690  0.14420  Biso   1.000  C
  C6       1.0000 0.55670  0.63310  0.85580  Biso   1.000  C
  H3       1.0000 0.51560  0.28640  0.17640  Biso   1.000  H
  H4       1.0000 0.48440  0.71360  0.82360  Biso   1.000  H
  C7       1.0000 0.37930  0.33780  0.08520  Biso   1.000  C
  C8       1.0000 0.62070  0.66220  0.91480  Biso   1.000  C
  H5       1.0000 0.40680  0.23930  0.07810  Biso   1.000  H
  H6       1.0000 0.59320  0.76070  0.92190  Biso   1.000  H
  C9       1.0000 0.27330  0.45730  0.03660  Biso   1.000  C
  C10      1.0000 0.72670  0.54270  0.96340  Biso   1.000  C
  H7       1.0000 0.23140  0.44020  0.99600  Biso   1.000  H
  H8       1.0000 0.76860  0.55980  0.00400  Biso   1.000  H
  C11      1.0000 0.12260  0.73830  0.00060  Biso   1.000  C
  C12      1.0000 0.87740  0.26170  0.99940  Biso   1.000  C
  H9       1.0000 0.07640  0.82650  0.01760  Biso   1.000  H
  H10      1.0000 0.92360  0.17350  0.98240  Biso   1.000  H
  C13      1.0000 0.08560  0.74450  0.93410  Biso   1.000  C
  C14      1.0000 0.91440  0.25550  0.06590  Biso   1.000  C
  H11      1.0000 0.12610  0.65720  0.91610  Biso   1.000  H
  H12      1.0000 0.87390  0.34280  0.08390  Biso   1.000  H
  C15      1.0000 0.98150  0.88740  0.88830  Biso   1.000  C
  C16      1.0000 0.01850  0.11260  0.11170  Biso   1.000  C
  N3       1.0000 0.58840  0.58990  0.33151  Biso   1.000  N
  N4       1.0000 0.41160  0.41010  0.66849  Biso   1.000  N
  C17      1.0000 0.71530  0.50300  0.44800  Biso   1.000  C
  C18      1.0000 0.28470  0.49700  0.55200  Biso   1.000  C
  C19      1.0000 0.66760  0.47760  0.38460  Biso   1.000  C
  C20      1.0000 0.33240  0.52240  0.61540  Biso   1.000  C
  H13      1.0000 0.69190  0.37820  0.37910  Biso   1.000  H
  H14      1.0000 0.30810  0.62180  0.62090  Biso   1.000  H
  C21      1.0000 0.55430  0.73200  0.34030  Biso   1.000  C
  C22      1.0000 0.44570  0.26800  0.65970  Biso   1.000  C
  H15      1.0000 0.50210  0.81090  0.30340  Biso   1.000  H
  H16      1.0000 0.49790  0.18910  0.69660  Biso   1.000  H
  C23      1.0000 0.59290  0.76670  0.40150  Biso   1.000  C
  C24      1.0000 0.40710  0.23330  0.59850  Biso   1.000  C
  H17      1.0000 0.56500  0.86720  0.40570  Biso   1.000  H
  H18      1.0000 0.43500  0.13280  0.59430  Biso   1.000  H
  C25      1.0000 0.67240  0.65280  0.45590  Biso   1.000  C
  C26      1.0000 0.32760  0.34720  0.54410  Biso   1.000  C
  H19      1.0000 0.69780  0.67470  0.49780  Biso   1.000  H
  H20      1.0000 0.30220  0.32530  0.50220  Biso   1.000  H
  C27      1.0000 0.80240  0.37080  0.50210  Biso   1.000  C
  C28      1.0000 0.19760  0.62920  0.49790  Biso   1.000  C
  H21      1.0000 0.82770  0.27720  0.48970  Biso   1.000  H
  H22      1.0000 0.17230  0.72280  0.51030  Biso   1.000  H
  C29      1.0000 0.84910  0.36910  0.56610  Biso   1.000  C
  C30      1.0000 0.15090  0.63090  0.43390  Biso   1.000  C
  H23      1.0000 0.82940  0.46010  0.58050  Biso   1.000  H
  H24      1.0000 0.17060  0.53990  0.41950  Biso   1.000  H
  C31      1.0000 0.93270  0.22420  0.61590  Biso   1.000  C
  C32      1.0000 0.06730  0.77580  0.38410  Biso   1.000  C
  N5       1.0000 0.98530  0.88300  0.81986  Biso   1.000  N
  N6       1.0000 0.01470  0.11700  0.18014  Biso   1.000  N
  H25      1.0000 0.04320  0.80040  0.80670  Biso   1.000  H
  H26      1.0000 0.95680  0.19960  0.19330  Biso   1.000  H
  N7       1.0000 0.95550  0.23780  0.68096  Biso   1.000  N
  N8       1.0000 0.04450  0.76220  0.31904  Biso   1.000  N
  H27      1.0000 0.91740  0.32560  0.69120  Biso   1.000  H
  H28      1.0000 0.08260  0.67440  0.30880  Biso   1.000  H
  C33      1.0000 0.89410  0.01450  0.76790  Biso   1.000  C
  C34      1.0000 0.10590  0.98550  0.23210  Biso   1.000  C
  H29      1.0000 0.78430  0.07670  0.79000  Biso   1.000  H
  H30      1.0000 0.21570  0.92330  0.21000  Biso   1.000  H
  H31      1.0000 0.84110  0.98170  0.73150  Biso   1.000  H
  H32      1.0000 0.15890  0.01830  0.26850  Biso   1.000  H
  C35      1.0000 0.04250  0.10860  0.73460  Biso   1.000  C
  C36      1.0000 0.95750  0.89140  0.26540  Biso   1.000  C
  H33      1.0000 0.09230  0.14380  0.77090  Biso   1.000  H
  H34      1.0000 0.90770  0.85620  0.22910  Biso   1.000  H
  H35      1.0000 0.15450  0.04510  0.71400  Biso   1.000  H
  H36      1.0000 0.84550  0.95490  0.28600  Biso   1.000  H
  O1       1.0000 0.84950  0.41360  0.21963  Biso   1.000  O
  O2       1.0000 0.15050  0.58640  0.78037  Biso   1.000  O
  O3       1.0000 0.90220  0.00210  0.91016  Biso   1.000  O
  O4       1.0000 0.09780  0.99790  0.08984  Biso   1.000  O
  O5       1.0000 0.97380  0.10130  0.59938  Biso   1.000  O
  O6       1.0000 0.02620  0.89870  0.40062  Biso   1.000  O
  C37      1.0000 0.66290  0.75490  0.13290  Biso   1.000  C
  C38      1.0000 0.33710  0.24510  0.86710  Biso   1.000  C
  C39      1.0000 0.62920  0.91310  0.09140  Biso   1.000  C
  C40      1.0000 0.37080  0.08690  0.90860  Biso   1.000  C
  H37      1.0000 0.53040  0.97800  0.11540  Biso   1.000  H
  H38      1.0000 0.46960  0.02200  0.88460  Biso   1.000  H
  H39      1.0000 0.75130  0.94580  0.08620  Biso   1.000  H
  H40      1.0000 0.24870  0.05420  0.91380  Biso   1.000  H
  H41      1.0000 0.58400  0.91780  0.04590  Biso   1.000  H
  H42      1.0000 0.41600  0.08220  0.95410  Biso   1.000  H
  O7       1.0000 0.78460  0.64980  0.11263  Biso   1.000  O
  O8       1.0000 0.21540  0.35020  0.88737  Biso   1.000  O
  O9       1.0000 0.55250  0.73520  0.19054  Biso   1.000  O
  O10      1.0000 0.44750  0.26480  0.80946  Biso   1.000  O
  C41      1.0000 0.27920  0.35000  0.31440  Biso   1.000  C
  C42      1.0000 0.72080  0.65000  0.68560  Biso   1.000  C
  C43      1.0000 0.24360  0.20320  0.35840  Biso   1.000  C
  C44      1.0000 0.75640  0.79680  0.64160  Biso   1.000  C
  H43      1.0000 0.10320  0.21200  0.36700  Biso   1.000  H
  H44      1.0000 0.89680  0.78800  0.63300  Biso   1.000  H
  H45      1.0000 0.29760  0.12300  0.33390  Biso   1.000  H
  H46      1.0000 0.70240  0.87700  0.66610  Biso   1.000  H
  H47      1.0000 0.30730  0.18080  0.40240  Biso   1.000  H
  H48      1.0000 0.69270  0.81920  0.59760  Biso   1.000  H
  O11      1.0000 0.13390  0.45850  0.29711  Biso   1.000  O
  O12      1.0000 0.86610  0.54150  0.70289  Biso   1.000  O
  O13      1.0000 0.45840  0.35350  0.29933  Biso   1.000  O
  O14      1.0000 0.54160  0.64650  0.70067  Biso   1.000  O
  O15      1.0000 0.28390  0.95920  0.51890  Biso   1.000  O
  O16      1.0000 0.71610  0.04080  0.48110  Biso   1.000  O
