data_image0
_cell_length_a       11.2837
_cell_length_b       14.7785
_cell_length_c       16.9745
_cell_angle_alpha    90
_cell_angle_beta     100.427
_cell_angle_gamma    90

_symmetry_space_group_name_H-M    "P 1"
_symmetry_int_tables_number       1

loop_
  _symmetry_equiv_pos_as_xyz
  'x, y, z'

loop_
  _atom_site_label
  _atom_site_occupancy
  _atom_site_fract_x
  _atom_site_fract_y
  _atom_site_fract_z
  _atom_site_thermal_displace_type
  _atom_site_B_iso_or_equiv
  _atom_site_type_symbol
  Pr1      1.0000 0.33325  0.86152  0.48815  Biso   1.000  Pr
  Pr2      1.0000 0.83325  0.63848  0.98815  Biso   1.000  Pr
  Pr3      1.0000 0.66675  0.13848  0.51185  Biso   1.000  Pr
  Pr4      1.0000 0.16675  0.36152  0.01185  Biso   1.000  Pr
  Cu1      1.0000 0.45526  0.87205  0.30582  Biso   1.000  Cu
  Cu2      1.0000 0.95526  0.62795  0.80582  Biso   1.000  Cu
  Cu3      1.0000 0.54474  0.12795  0.69418  Biso   1.000  Cu
  Cu4      1.0000 0.04474  0.37205  0.19418  Biso   1.000  Cu
  C1       1.0000 0.56172  0.74075  0.43060  Biso   1.000  C
  C2       1.0000 0.06172  0.75925  0.93060  Biso   1.000  C
  C3       1.0000 0.43828  0.25925  0.56940  Biso   1.000  C
  C4       1.0000 0.93828  0.24075  0.06940  Biso   1.000  C
  C5       1.0000 0.55222  0.68676  0.49800  Biso   1.000  C
  C6       1.0000 0.05222  0.81324  0.99800  Biso   1.000  C
  C7       1.0000 0.44778  0.31324  0.50200  Biso   1.000  C
  C8       1.0000 0.94778  0.18676  0.00200  Biso   1.000  C
  C9       1.0000 0.63680  0.62084  0.52556  Biso   1.000  C
  C10      1.0000 0.13680  0.87916  0.02556  Biso   1.000  C
  C11      1.0000 0.36320  0.37916  0.47444  Biso   1.000  C
  C12      1.0000 0.86320  0.12084  0.97444  Biso   1.000  C
  H1       1.0000 0.62730  0.58430  0.57000  Biso   1.000  H
  H2       1.0000 0.12730  0.91570  0.07000  Biso   1.000  H
  H3       1.0000 0.37270  0.41570  0.43000  Biso   1.000  H
  H4       1.0000 0.87270  0.08430  0.93000  Biso   1.000  H
  C13      1.0000 0.73620  0.60786  0.48812  Biso   1.000  C
  C14      1.0000 0.23620  0.89214  0.98812  Biso   1.000  C
  C15      1.0000 0.26380  0.39214  0.51188  Biso   1.000  C
  C16      1.0000 0.76380  0.10786  0.01188  Biso   1.000  C
  H5       1.0000 0.79420  0.56260  0.50700  Biso   1.000  H
  H6       1.0000 0.29420  0.93740  0.00700  Biso   1.000  H
  H7       1.0000 0.20580  0.43740  0.49300  Biso   1.000  H
  H8       1.0000 0.70580  0.06260  0.99300  Biso   1.000  H
  C17      1.0000 0.74900  0.66081  0.42422  Biso   1.000  C
  C18      1.0000 0.24900  0.83919  0.92422  Biso   1.000  C
  C19      1.0000 0.25100  0.33919  0.57578  Biso   1.000  C
  C20      1.0000 0.75100  0.16081  0.07578  Biso   1.000  C
  H9       1.0000 0.81740  0.65280  0.39950  Biso   1.000  H
  H10      1.0000 0.31740  0.84720  0.89950  Biso   1.000  H
  H11      1.0000 0.18260  0.34720  0.60050  Biso   1.000  H
  H12      1.0000 0.68260  0.15280  0.10050  Biso   1.000  H
  C21      1.0000 0.66260  0.72725  0.39409  Biso   1.000  C
  C22      1.0000 0.16260  0.77275  0.89409  Biso   1.000  C
  C23      1.0000 0.33740  0.27275  0.60591  Biso   1.000  C
  C24      1.0000 0.83740  0.22725  0.10591  Biso   1.000  C
  C25      1.0000 0.68577  0.77966  0.32704  Biso   1.000  C
  C26      1.0000 0.18577  0.72034  0.82704  Biso   1.000  C
  C27      1.0000 0.31423  0.22034  0.67296  Biso   1.000  C
  C28      1.0000 0.81423  0.27966  0.17296  Biso   1.000  C
  H13      1.0000 0.76000  0.76750  0.31020  Biso   1.000  H
  H14      1.0000 0.26000  0.73250  0.81020  Biso   1.000  H
  H15      1.0000 0.24000  0.23250  0.68980  Biso   1.000  H
  H16      1.0000 0.74000  0.26750  0.18980  Biso   1.000  H
  C29      1.0000 0.67590  0.88330  0.22290  Biso   1.000  C
  C30      1.0000 0.17590  0.61670  0.72290  Biso   1.000  C
  C31      1.0000 0.32410  0.11670  0.77710  Biso   1.000  C
  C32      1.0000 0.82410  0.38330  0.27710  Biso   1.000  C
  H17      1.0000 0.71580  0.83530  0.19640  Biso   1.000  H
  H18      1.0000 0.21580  0.66470  0.69640  Biso   1.000  H
  H19      1.0000 0.28420  0.16470  0.80360  Biso   1.000  H
  H20      1.0000 0.78420  0.33530  0.30360  Biso   1.000  H
  H21      1.0000 0.73930  0.92560  0.24850  Biso   1.000  H
  H22      1.0000 0.23930  0.57440  0.74850  Biso   1.000  H
  H23      1.0000 0.26070  0.07440  0.75150  Biso   1.000  H
  H24      1.0000 0.76070  0.42560  0.25150  Biso   1.000  H
  C33      1.0000 0.59100  0.93396  0.15956  Biso   1.000  C
  C34      1.0000 0.09100  0.56604  0.65956  Biso   1.000  C
  C35      1.0000 0.40900  0.06604  0.84044  Biso   1.000  C
  C36      1.0000 0.90900  0.43396  0.34044  Biso   1.000  C
  H25      1.0000 0.63720  0.95870  0.12010  Biso   1.000  H
  H26      1.0000 0.13720  0.54130  0.62010  Biso   1.000  H
  H27      1.0000 0.36280  0.04130  0.87990  Biso   1.000  H
  H28      1.0000 0.86280  0.45870  0.37990  Biso   1.000  H
  H29      1.0000 0.53090  0.89090  0.13100  Biso   1.000  H
  H30      1.0000 0.03090  0.60910  0.63100  Biso   1.000  H
  H31      1.0000 0.46910  0.10910  0.86900  Biso   1.000  H
  H32      1.0000 0.96910  0.39090  0.36900  Biso   1.000  H
  C37      1.0000 0.52630  0.00924  0.19106  Biso   1.000  C
  C38      1.0000 0.02630  0.49076  0.69106  Biso   1.000  C
  C39      1.0000 0.47370  0.99076  0.80894  Biso   1.000  C
  C40      1.0000 0.97370  0.50924  0.30894  Biso   1.000  C
  H33      1.0000 0.58380  0.04420  0.23060  Biso   1.000  H
  H34      1.0000 0.08380  0.45580  0.73060  Biso   1.000  H
  H35      1.0000 0.41620  0.95580  0.76940  Biso   1.000  H
  H36      1.0000 0.91620  0.54420  0.26940  Biso   1.000  H
  H37      1.0000 0.49280  0.05040  0.14660  Biso   1.000  H
  H38      1.0000 0.99280  0.44960  0.64660  Biso   1.000  H
  H39      1.0000 0.50720  0.94960  0.85340  Biso   1.000  H
  H40      1.0000 0.00720  0.55040  0.35340  Biso   1.000  H
  C41      1.0000 0.32475  0.01341  0.20657  Biso   1.000  C
  C42      1.0000 0.82475  0.48659  0.70657  Biso   1.000  C
  C43      1.0000 0.67525  0.98659  0.79343  Biso   1.000  C
  C44      1.0000 0.17525  0.51341  0.29343  Biso   1.000  C
  H41      1.0000 0.32010  0.05680  0.16480  Biso   1.000  H
  H42      1.0000 0.82010  0.44320  0.66480  Biso   1.000  H
  H43      1.0000 0.67990  0.94320  0.83520  Biso   1.000  H
  H44      1.0000 0.17990  0.55680  0.33520  Biso   1.000  H
  C45      1.0000 0.21543  0.99754  0.23699  Biso   1.000  C
  C46      1.0000 0.71543  0.50246  0.73699  Biso   1.000  C
  C47      1.0000 0.78457  0.00246  0.76301  Biso   1.000  C
  C48      1.0000 0.28457  0.49754  0.26301  Biso   1.000  C
  C49      1.0000 0.11040  0.04217  0.19803  Biso   1.000  C
  C50      1.0000 0.61040  0.45783  0.69803  Biso   1.000  C
  C51      1.0000 0.88960  0.95783  0.80197  Biso   1.000  C
  C52      1.0000 0.38960  0.54217  0.30197  Biso   1.000  C
  H45      1.0000 0.11300  0.07720  0.15140  Biso   1.000  H
  H46      1.0000 0.61300  0.42280  0.65140  Biso   1.000  H
  H47      1.0000 0.88700  0.92280  0.84860  Biso   1.000  H
  H48      1.0000 0.38700  0.57720  0.34860  Biso   1.000  H
  C53      1.0000 0.00500  0.03553  0.22668  Biso   1.000  C
  C54      1.0000 0.50500  0.46447  0.72668  Biso   1.000  C
  C55      1.0000 0.99500  0.96447  0.77332  Biso   1.000  C
  C56      1.0000 0.49500  0.53553  0.27332  Biso   1.000  C
  H49      1.0000 0.93410  0.06420  0.19910  Biso   1.000  H
  H50      1.0000 0.43410  0.43580  0.69910  Biso   1.000  H
  H51      1.0000 0.06590  0.93580  0.80090  Biso   1.000  H
  H52      1.0000 0.56590  0.56420  0.30090  Biso   1.000  H
  C57      1.0000 0.00173  0.98636  0.29670  Biso   1.000  C
  C58      1.0000 0.50173  0.51364  0.79670  Biso   1.000  C
  C59      1.0000 0.99827  0.01364  0.70330  Biso   1.000  C
  C60      1.0000 0.49827  0.48636  0.20330  Biso   1.000  C
  H53      1.0000 0.92880  0.98240  0.31710  Biso   1.000  H
  H54      1.0000 0.42880  0.51760  0.81710  Biso   1.000  H
  H55      1.0000 0.07120  0.01760  0.68290  Biso   1.000  H
  H56      1.0000 0.57120  0.48240  0.18290  Biso   1.000  H
  C61      1.0000 0.10383  0.94379  0.33609  Biso   1.000  C
  C62      1.0000 0.60383  0.55621  0.83609  Biso   1.000  C
  C63      1.0000 0.89617  0.05621  0.66391  Biso   1.000  C
  C64      1.0000 0.39617  0.44379  0.16391  Biso   1.000  C
  C65      1.0000 0.21336  0.94740  0.30685  Biso   1.000  C
  C66      1.0000 0.71336  0.55260  0.80685  Biso   1.000  C
  C67      1.0000 0.78664  0.05260  0.69315  Biso   1.000  C
  C68      1.0000 0.28664  0.44740  0.19315  Biso   1.000  C
  C69      1.0000 0.43250  0.64467  0.59469  Biso   1.000  C
  C70      1.0000 0.93250  0.85533  0.09469  Biso   1.000  C
  C71      1.0000 0.56750  0.35533  0.40531  Biso   1.000  C
  C72      1.0000 0.06750  0.14467  0.90531  Biso   1.000  C
  H57      1.0000 0.42240  0.58330  0.57270  Biso   1.000  H
  H58      1.0000 0.92240  0.91670  0.07270  Biso   1.000  H
  H59      1.0000 0.57760  0.41670  0.42730  Biso   1.000  H
  H60      1.0000 0.07760  0.08330  0.92730  Biso   1.000  H
  H61      1.0000 0.35920  0.66280  0.61400  Biso   1.000  H
  H62      1.0000 0.85920  0.83720  0.11400  Biso   1.000  H
  H63      1.0000 0.64080  0.33720  0.38600  Biso   1.000  H
  H64      1.0000 0.14080  0.16280  0.88600  Biso   1.000  H
  H65      1.0000 0.50110  0.64600  0.63930  Biso   1.000  H
  H66      1.0000 0.00110  0.85400  0.13930  Biso   1.000  H
  H67      1.0000 0.49890  0.35400  0.36070  Biso   1.000  H
  H68      1.0000 0.99890  0.14600  0.86070  Biso   1.000  H
  C73      1.0000 0.99990  0.88370  0.43603  Biso   1.000  C
  C74      1.0000 0.49990  0.61630  0.93603  Biso   1.000  C
  C75      1.0000 0.00010  0.11630  0.56397  Biso   1.000  C
  C76      1.0000 0.50010  0.38370  0.06397  Biso   1.000  C
  H69      1.0000 0.94430  0.84810  0.39700  Biso   1.000  H
  H70      1.0000 0.44430  0.65190  0.89700  Biso   1.000  H
  H71      1.0000 0.05570  0.15190  0.60300  Biso   1.000  H
  H72      1.0000 0.55570  0.34810  0.10300  Biso   1.000  H
  H73      1.0000 0.96380  0.94270  0.44330  Biso   1.000  H
  H74      1.0000 0.46380  0.55730  0.94330  Biso   1.000  H
  H75      1.0000 0.03620  0.05730  0.55670  Biso   1.000  H
  H76      1.0000 0.53620  0.44270  0.05670  Biso   1.000  H
  H77      1.0000 0.01590  0.85150  0.48730  Biso   1.000  H
  H78      1.0000 0.51590  0.64850  0.98730  Biso   1.000  H
  H79      1.0000 0.98410  0.14850  0.51270  Biso   1.000  H
  H80      1.0000 0.48410  0.35150  0.01270  Biso   1.000  H
  C77      1.0000 0.36130  0.08312  0.44516  Biso   1.000  C
  C78      1.0000 0.86130  0.41688  0.94516  Biso   1.000  C
  C79      1.0000 0.63870  0.91688  0.55484  Biso   1.000  C
  C80      1.0000 0.13870  0.58312  0.05484  Biso   1.000  C
  C81      1.0000 0.28624  0.14918  0.38900  Biso   1.000  C
  C82      1.0000 0.78624  0.35082  0.88900  Biso   1.000  C
  C83      1.0000 0.71376  0.85082  0.61100  Biso   1.000  C
  C84      1.0000 0.21376  0.64918  0.11100  Biso   1.000  C
  C85      1.0000 0.33508  0.19222  0.32996  Biso   1.000  C
  C86      1.0000 0.83508  0.30778  0.82996  Biso   1.000  C
  C87      1.0000 0.66492  0.80778  0.67004  Biso   1.000  C
  C88      1.0000 0.16492  0.69222  0.17004  Biso   1.000  C
  H81      1.0000 0.41710  0.18300  0.32590  Biso   1.000  H
  H82      1.0000 0.91710  0.31700  0.82590  Biso   1.000  H
  H83      1.0000 0.58290  0.81700  0.67410  Biso   1.000  H
  H84      1.0000 0.08290  0.68300  0.17410  Biso   1.000  H
  C89      1.0000 0.26250  0.24897  0.27683  Biso   1.000  C
  C90      1.0000 0.76250  0.25103  0.77683  Biso   1.000  C
  C91      1.0000 0.73750  0.75103  0.72317  Biso   1.000  C
  C92      1.0000 0.23750  0.74897  0.22317  Biso   1.000  C
  H85      1.0000 0.29620  0.27700  0.23560  Biso   1.000  H
  H86      1.0000 0.79620  0.22300  0.73560  Biso   1.000  H
  H87      1.0000 0.70380  0.72300  0.76440  Biso   1.000  H
  H88      1.0000 0.20380  0.77700  0.26440  Biso   1.000  H
  C93      1.0000 0.10085  0.22418  0.33832  Biso   1.000  C
  C94      1.0000 0.60085  0.27582  0.83832  Biso   1.000  C
  C95      1.0000 0.89915  0.77582  0.66168  Biso   1.000  C
  C96      1.0000 0.39915  0.72418  0.16168  Biso   1.000  C
  H89      1.0000 0.01910  0.23530  0.34190  Biso   1.000  H
  H90      1.0000 0.51910  0.26470  0.84190  Biso   1.000  H
  H91      1.0000 0.98090  0.76470  0.65810  Biso   1.000  H
  H92      1.0000 0.48090  0.73530  0.15810  Biso   1.000  H
  C97      1.0000 0.16661  0.16517  0.39289  Biso   1.000  C
  C98      1.0000 0.66661  0.33483  0.89289  Biso   1.000  C
  C99      1.0000 0.83339  0.83483  0.60711  Biso   1.000  C
  C100     1.0000 0.33339  0.66517  0.10711  Biso   1.000  C
  H93      1.0000 0.13010  0.13610  0.43240  Biso   1.000  H
  H94      1.0000 0.63010  0.36390  0.93240  Biso   1.000  H
  H95      1.0000 0.86990  0.86390  0.56760  Biso   1.000  H
  H96      1.0000 0.36990  0.63610  0.06760  Biso   1.000  H
  N1       1.0000 0.61979  0.84062  0.28686  Biso   1.000  N
  N2       1.0000 0.11979  0.65938  0.78686  Biso   1.000  N
  N3       1.0000 0.38021  0.15938  0.71314  Biso   1.000  N
  N4       1.0000 0.88021  0.34062  0.21314  Biso   1.000  N
  N5       1.0000 0.42811  0.97556  0.22938  Biso   1.000  N
  N6       1.0000 0.92811  0.52444  0.72938  Biso   1.000  N
  N7       1.0000 0.57189  0.02444  0.77062  Biso   1.000  N
  N8       1.0000 0.07189  0.47556  0.27062  Biso   1.000  N
  N9       1.0000 0.25807  0.87570  0.65103  Biso   1.000  N
  N10      1.0000 0.75807  0.62430  0.15103  Biso   1.000  N
  N11      1.0000 0.74193  0.12430  0.34897  Biso   1.000  N
  N12      1.0000 0.24193  0.37570  0.84897  Biso   1.000  N
  N13      1.0000 0.17826  0.68991  0.46878  Biso   1.000  N
  N14      1.0000 0.67826  0.81009  0.96878  Biso   1.000  N
  N15      1.0000 0.82174  0.31009  0.53122  Biso   1.000  N
  N16      1.0000 0.32174  0.18991  0.03122  Biso   1.000  N
  N17      1.0000 0.14693  0.26635  0.28079  Biso   1.000  N
  N18      1.0000 0.64693  0.23365  0.78079  Biso   1.000  N
  N19      1.0000 0.85307  0.73365  0.71921  Biso   1.000  N
  N20      1.0000 0.35307  0.76635  0.21921  Biso   1.000  N
  O1       1.0000 0.30908  0.90513  0.34750  Biso   1.000  O
  O2       1.0000 0.80908  0.59487  0.84750  Biso   1.000  O
  O3       1.0000 0.69092  0.09487  0.65250  Biso   1.000  O
  O4       1.0000 0.19092  0.40513  0.15250  Biso   1.000  O
  O5       1.0000 0.47746  0.80139  0.40579  Biso   1.000  O
  O6       1.0000 0.97746  0.69861  0.90579  Biso   1.000  O
  O7       1.0000 0.52254  0.19861  0.59421  Biso   1.000  O
  O8       1.0000 0.02254  0.30139  0.09421  Biso   1.000  O
  O9       1.0000 0.11105  0.89657  0.40735  Biso   1.000  O
  O10      1.0000 0.61105  0.60343  0.90735  Biso   1.000  O
  O11      1.0000 0.88895  0.10343  0.59265  Biso   1.000  O
  O12      1.0000 0.38895  0.39657  0.09265  Biso   1.000  O
  O13      1.0000 0.45415  0.70637  0.53311  Biso   1.000  O
  O14      1.0000 0.95415  0.79363  0.03311  Biso   1.000  O
  O15      1.0000 0.54585  0.29363  0.46689  Biso   1.000  O
  O16      1.0000 0.04585  0.20637  0.96689  Biso   1.000  O
  O17      1.0000 0.20367  0.91937  0.59121  Biso   1.000  O
  O18      1.0000 0.70367  0.58063  0.09121  Biso   1.000  O
  O19      1.0000 0.79633  0.08063  0.40879  Biso   1.000  O
  O20      1.0000 0.29633  0.41937  0.90879  Biso   1.000  O
  O21      1.0000 0.35422  0.83579  0.64275  Biso   1.000  O
  O22      1.0000 0.85422  0.66421  0.14275  Biso   1.000  O
  O23      1.0000 0.64578  0.16421  0.35725  Biso   1.000  O
  O24      1.0000 0.14578  0.33579  0.85725  Biso   1.000  O
  O25      1.0000 0.22070  0.87292  0.71434  Biso   1.000  O
  O26      1.0000 0.72070  0.62708  0.21434  Biso   1.000  O
  O27      1.0000 0.77930  0.12708  0.28566  Biso   1.000  O
  O28      1.0000 0.27930  0.37292  0.78566  Biso   1.000  O
  O29      1.0000 0.22981  0.71343  0.41217  Biso   1.000  O
  O30      1.0000 0.72981  0.78657  0.91217  Biso   1.000  O
  O31      1.0000 0.77019  0.28657  0.58783  Biso   1.000  O
  O32      1.0000 0.27019  0.21343  0.08783  Biso   1.000  O
  O33      1.0000 0.18691  0.74325  0.52825  Biso   1.000  O
  O34      1.0000 0.68691  0.75675  0.02825  Biso   1.000  O
  O35      1.0000 0.81309  0.25675  0.47175  Biso   1.000  O
  O36      1.0000 0.31309  0.24325  0.97175  Biso   1.000  O
  O37      1.0000 0.12460  0.61808  0.46810  Biso   1.000  O
  O38      1.0000 0.62460  0.88192  0.96810  Biso   1.000  O
  O39      1.0000 0.87540  0.38192  0.53190  Biso   1.000  O
  O40      1.0000 0.37540  0.11808  0.03190  Biso   1.000  O
  O41      1.0000 0.30663  0.02585  0.48005  Biso   1.000  O
  O42      1.0000 0.80663  0.47415  0.98005  Biso   1.000  O
  O43      1.0000 0.69337  0.97415  0.51995  Biso   1.000  O
  O44      1.0000 0.19337  0.52585  0.01995  Biso   1.000  O
  O45      1.0000 0.47336  0.08888  0.45091  Biso   1.000  O
  O46      1.0000 0.97336  0.41112  0.95091  Biso   1.000  O
  O47      1.0000 0.52664  0.91112  0.54909  Biso   1.000  O
  O48      1.0000 0.02664  0.58888  0.04909  Biso   1.000  O
