data_image0
_cell_length_a       10.2029
_cell_length_b       15.089
_cell_length_c       7.7814
_cell_angle_alpha    90
_cell_angle_beta     111.545
_cell_angle_gamma    90

_symmetry_space_group_name_H-M    "P 1"
_symmetry_int_tables_number       1

loop_
  _symmetry_equiv_pos_as_xyz
  'x, y, z'

loop_
  _atom_site_label
  _atom_site_occupancy
  _atom_site_fract_x
  _atom_site_fract_y
  _atom_site_fract_z
  _atom_site_thermal_displace_type
  _atom_site_B_iso_or_equiv
  _atom_site_type_symbol
  C1       1.0000 0.74310  0.55700  0.56920  Biso   1.000  C
  C2       1.0000 0.25690  0.05700  0.93080  Biso   1.000  C
  C3       1.0000 0.25690  0.44300  0.43080  Biso   1.000  C
  C4       1.0000 0.74310  0.94300  0.06920  Biso   1.000  C
  H1       1.0000 0.74610  0.50590  0.64200  Biso   1.000  H
  H2       1.0000 0.25390  0.00590  0.85800  Biso   1.000  H
  H3       1.0000 0.25390  0.49410  0.35800  Biso   1.000  H
  H4       1.0000 0.74610  0.99410  0.14200  Biso   1.000  H
  C5       1.0000 0.79330  0.65260  0.40090  Biso   1.000  C
  C6       1.0000 0.20670  0.15260  0.09910  Biso   1.000  C
  C7       1.0000 0.20670  0.34740  0.59910  Biso   1.000  C
  C8       1.0000 0.79330  0.84740  0.90090  Biso   1.000  C
  H5       1.0000 0.83940  0.68190  0.33080  Biso   1.000  H
  H6       1.0000 0.16060  0.18190  0.16920  Biso   1.000  H
  H7       1.0000 0.16060  0.31810  0.66920  Biso   1.000  H
  H8       1.0000 0.83940  0.81810  0.83080  Biso   1.000  H
  C9       1.0000 0.67780  0.68240  0.42660  Biso   1.000  C
  C10      1.0000 0.32220  0.18240  0.07340  Biso   1.000  C
  C11      1.0000 0.32220  0.31760  0.57340  Biso   1.000  C
  C12      1.0000 0.67780  0.81760  0.92660  Biso   1.000  C
  H9       1.0000 0.62850  0.73590  0.37940  Biso   1.000  H
  H10      1.0000 0.37150  0.23590  0.12060  Biso   1.000  H
  H11      1.0000 0.37150  0.26410  0.62060  Biso   1.000  H
  H12      1.0000 0.62850  0.76410  0.87940  Biso   1.000  H
  C13      1.0000 0.52650  0.62360  0.59180  Biso   1.000  C
  C14      1.0000 0.47350  0.12360  0.90820  Biso   1.000  C
  C15      1.0000 0.47350  0.37640  0.40820  Biso   1.000  C
  C16      1.0000 0.52650  0.87640  0.09180  Biso   1.000  C
  C17      1.0000 0.53020  0.57796  0.74720  Biso   1.000  C
  C18      1.0000 0.46980  0.07796  0.75280  Biso   1.000  C
  C19      1.0000 0.46980  0.42204  0.25280  Biso   1.000  C
  C20      1.0000 0.53020  0.92204  0.24720  Biso   1.000  C
  H13      1.0000 0.61250  0.54630  0.81950  Biso   1.000  H
  H14      1.0000 0.38750  0.04630  0.68050  Biso   1.000  H
  H15      1.0000 0.38750  0.45370  0.18050  Biso   1.000  H
  H16      1.0000 0.61250  0.95370  0.31950  Biso   1.000  H
  C21      1.0000 0.41290  0.57870  0.79680  Biso   1.000  C
  C22      1.0000 0.58710  0.07870  0.70320  Biso   1.000  C
  C23      1.0000 0.58710  0.42130  0.20320  Biso   1.000  C
  C24      1.0000 0.41290  0.92130  0.29680  Biso   1.000  C
  H17      1.0000 0.41490  0.54700  0.90330  Biso   1.000  H
  H18      1.0000 0.58510  0.04700  0.59670  Biso   1.000  H
  H19      1.0000 0.58510  0.45300  0.09670  Biso   1.000  H
  H20      1.0000 0.41490  0.95300  0.40330  Biso   1.000  H
  C25      1.0000 0.29290  0.62494  0.69300  Biso   1.000  C
  C26      1.0000 0.70710  0.12494  0.80700  Biso   1.000  C
  C27      1.0000 0.70710  0.37506  0.30700  Biso   1.000  C
  C28      1.0000 0.29290  0.87506  0.19300  Biso   1.000  C
  C29      1.0000 0.29260  0.67390  0.54340  Biso   1.000  C
  C30      1.0000 0.70740  0.17390  0.95660  Biso   1.000  C
  C31      1.0000 0.70740  0.32610  0.45660  Biso   1.000  C
  C32      1.0000 0.29260  0.82610  0.04340  Biso   1.000  C
  H21      1.0000 0.21260  0.70870  0.47600  Biso   1.000  H
  H22      1.0000 0.78740  0.20870  0.02400  Biso   1.000  H
  H23      1.0000 0.78740  0.29130  0.52400  Biso   1.000  H
  H24      1.0000 0.21260  0.79130  0.97600  Biso   1.000  H
  C33      1.0000 0.40840  0.67258  0.49120  Biso   1.000  C
  C34      1.0000 0.59160  0.17258  0.00880  Biso   1.000  C
  C35      1.0000 0.59160  0.32742  0.50880  Biso   1.000  C
  C36      1.0000 0.40840  0.82742  0.99120  Biso   1.000  C
  H25      1.0000 0.40690  0.70530  0.38610  Biso   1.000  H
  H26      1.0000 0.59310  0.20530  0.11390  Biso   1.000  H
  H27      1.0000 0.59310  0.29470  0.61390  Biso   1.000  H
  H28      1.0000 0.40690  0.79470  0.88610  Biso   1.000  H
  C37      1.0000 0.93560  0.56669  0.13000  Biso   1.000  C
  C38      1.0000 0.06440  0.06669  0.37000  Biso   1.000  C
  C39      1.0000 0.06440  0.43331  0.87000  Biso   1.000  C
  C40      1.0000 0.93560  0.93331  0.63000  Biso   1.000  C
  C41      1.0000 0.95920  0.64050  0.01540  Biso   1.000  C
  C42      1.0000 0.04080  0.14050  0.48460  Biso   1.000  C
  C43      1.0000 0.04080  0.35950  0.98460  Biso   1.000  C
  C44      1.0000 0.95920  0.85950  0.51540  Biso   1.000  C
  H29      1.0000 0.90940  0.62730  0.88410  Biso   1.000  H
  H30      1.0000 0.09060  0.12730  0.61590  Biso   1.000  H
  H31      1.0000 0.09060  0.37270  0.11590  Biso   1.000  H
  H32      1.0000 0.90940  0.87270  0.38410  Biso   1.000  H
  H33      1.0000 0.06030  0.64630  0.04080  Biso   1.000  H
  H34      1.0000 0.93970  0.14630  0.45920  Biso   1.000  H
  H35      1.0000 0.93970  0.35370  0.95920  Biso   1.000  H
  H36      1.0000 0.06030  0.85370  0.54080  Biso   1.000  H
  H37      1.0000 0.92340  0.69610  0.04640  Biso   1.000  H
  H38      1.0000 0.07660  0.19610  0.45360  Biso   1.000  H
  H39      1.0000 0.07660  0.30390  0.95360  Biso   1.000  H
  H40      1.0000 0.92340  0.80390  0.54640  Biso   1.000  H
  N1       1.0000 0.83450  0.57396  0.49050  Biso   1.000  N
  N2       1.0000 0.16550  0.07396  0.00950  Biso   1.000  N
  N3       1.0000 0.16550  0.42604  0.50950  Biso   1.000  N
  N4       1.0000 0.83450  0.92604  0.99050  Biso   1.000  N
  N5       1.0000 0.64500  0.62096  0.53380  Biso   1.000  N
  N6       1.0000 0.35500  0.12096  0.96620  Biso   1.000  N
  N7       1.0000 0.35500  0.37904  0.46620  Biso   1.000  N
  N8       1.0000 0.64500  0.87904  0.03380  Biso   1.000  N
  Cu1      1.0000 0.00000  0.50000  0.50000  Biso   1.000  Cu
  Cu2      1.0000 0.00000  0.00000  0.00000  Biso   1.000  Cu
  O1       1.0000 0.84010  0.51168  0.05970  Biso   1.000  O
  O2       1.0000 0.15990  0.01168  0.44030  Biso   1.000  O
  O3       1.0000 0.15990  0.48832  0.94030  Biso   1.000  O
  O4       1.0000 0.84010  0.98832  0.55970  Biso   1.000  O
  O5       1.0000 0.01849  0.56716  0.29870  Biso   1.000  O
  O6       1.0000 0.98151  0.06716  0.20130  Biso   1.000  O
  O7       1.0000 0.98151  0.43284  0.70130  Biso   1.000  O
  O8       1.0000 0.01849  0.93284  0.79870  Biso   1.000  O
  O9       1.0000 0.17326  0.62330  0.73200  Biso   1.000  O
  O10      1.0000 0.82674  0.12330  0.76800  Biso   1.000  O
  O11      1.0000 0.82674  0.37670  0.26800  Biso   1.000  O
  O12      1.0000 0.17326  0.87670  0.23200  Biso   1.000  O
  H41      1.0000 0.17750  0.58110  0.80430  Biso   1.000  H
  H42      1.0000 0.82250  0.08110  0.69570  Biso   1.000  H
  H43      1.0000 0.82250  0.41890  0.19570  Biso   1.000  H
  H44      1.0000 0.17750  0.91890  0.30430  Biso   1.000  H
