data_image0
_cell_length_a       12.5529
_cell_length_b       6.9594
_cell_length_c       9.3574
_cell_angle_alpha    90
_cell_angle_beta     109.781
_cell_angle_gamma    90

_symmetry_space_group_name_H-M    "P 1"
_symmetry_int_tables_number       1

loop_
  _symmetry_equiv_pos_as_xyz
  'x, y, z'

loop_
  _atom_site_label
  _atom_site_occupancy
  _atom_site_fract_x
  _atom_site_fract_y
  _atom_site_fract_z
  _atom_site_thermal_displace_type
  _atom_site_B_iso_or_equiv
  _atom_site_type_symbol
  O1       1.0000 0.71160  0.66270  0.88270  Biso   1.000  O
  O2       1.0000 0.28840  0.16270  0.61730  Biso   1.000  O
  O3       1.0000 0.28840  0.33730  0.11730  Biso   1.000  O
  O4       1.0000 0.71160  0.83730  0.38270  Biso   1.000  O
  C1       1.0000 0.69080  0.66600  0.75200  Biso   1.000  C
  C2       1.0000 0.30920  0.16600  0.74800  Biso   1.000  C
  C3       1.0000 0.30920  0.33400  0.24800  Biso   1.000  C
  C4       1.0000 0.69080  0.83400  0.25200  Biso   1.000  C
  Cu1      1.0000 0.00000  0.50000  0.50000  Biso   1.000  Cu
  Cu2      1.0000 0.00000  0.00000  0.00000  Biso   1.000  Cu
  O5       1.0000 0.98560  0.73730  0.60800  Biso   1.000  O
  O6       1.0000 0.01440  0.23730  0.89200  Biso   1.000  O
  O7       1.0000 0.01440  0.26270  0.39200  Biso   1.000  O
  O8       1.0000 0.98560  0.76270  0.10800  Biso   1.000  O
  O9       1.0000 0.88010  0.85960  0.73970  Biso   1.000  O
  O10      1.0000 0.11990  0.35960  0.76030  Biso   1.000  O
  O11      1.0000 0.11990  0.14040  0.26030  Biso   1.000  O
  O12      1.0000 0.88010  0.64040  0.23970  Biso   1.000  O
  N1       1.0000 0.87210  0.41400  0.55740  Biso   1.000  N
  N2       1.0000 0.12790  0.91400  0.94260  Biso   1.000  N
  N3       1.0000 0.12790  0.58600  0.44260  Biso   1.000  N
  N4       1.0000 0.87210  0.08600  0.05740  Biso   1.000  N
  C5       1.0000 0.73820  0.52200  0.66900  Biso   1.000  C
  C6       1.0000 0.26180  0.02200  0.83100  Biso   1.000  C
  C7       1.0000 0.26180  0.47800  0.33100  Biso   1.000  C
  C8       1.0000 0.73820  0.97800  0.16900  Biso   1.000  C
  C9       1.0000 0.90410  0.73000  0.66020  Biso   1.000  C
  C10      1.0000 0.09590  0.23000  0.83980  Biso   1.000  C
  C11      1.0000 0.09590  0.27000  0.33980  Biso   1.000  C
  C12      1.0000 0.90410  0.77000  0.16020  Biso   1.000  C
  C13      1.0000 0.68420  0.34700  0.64530  Biso   1.000  C
  C14      1.0000 0.31580  0.84700  0.85470  Biso   1.000  C
  C15      1.0000 0.31580  0.65300  0.35470  Biso   1.000  C
  C16      1.0000 0.68420  0.15300  0.14530  Biso   1.000  C
  C17      1.0000 0.72240  0.20800  0.57500  Biso   1.000  C
  C18      1.0000 0.27760  0.70800  0.92500  Biso   1.000  C
  C19      1.0000 0.27760  0.79200  0.42500  Biso   1.000  C
  C20      1.0000 0.72240  0.29200  0.07500  Biso   1.000  C
  C21      1.0000 0.82990  0.54500  0.62400  Biso   1.000  C
  C22      1.0000 0.17010  0.04500  0.87600  Biso   1.000  C
  C23      1.0000 0.17010  0.45500  0.37600  Biso   1.000  C
  C24      1.0000 0.82990  0.95500  0.12400  Biso   1.000  C
  C25      1.0000 0.82000  0.24100  0.53100  Biso   1.000  C
  C26      1.0000 0.18000  0.74100  0.96900  Biso   1.000  C
  C27      1.0000 0.18000  0.75900  0.46900  Biso   1.000  C
  C28      1.0000 0.82000  0.25900  0.03100  Biso   1.000  C
  O13      1.0000 0.61700  0.77870  0.65920  Biso   1.000  O
  O14      1.0000 0.38300  0.27870  0.84080  Biso   1.000  O
  O15      1.0000 0.38300  0.22130  0.34080  Biso   1.000  O
  O16      1.0000 0.61700  0.72130  0.15920  Biso   1.000  O
  C29      1.0000 0.56100  0.91800  0.73300  Biso   1.000  C
  C30      1.0000 0.43900  0.41800  0.76700  Biso   1.000  C
  C31      1.0000 0.43900  0.08200  0.26700  Biso   1.000  C
  C32      1.0000 0.56100  0.58200  0.23300  Biso   1.000  C
