data_image0
_cell_length_a       25.774
_cell_length_b       15.87
_cell_length_c       9.657
_cell_angle_alpha    90
_cell_angle_beta     98
_cell_angle_gamma    90

_symmetry_space_group_name_H-M    "P 1"
_symmetry_int_tables_number       1

loop_
  _symmetry_equiv_pos_as_xyz
  'x, y, z'

loop_
  _atom_site_label
  _atom_site_occupancy
  _atom_site_fract_x
  _atom_site_fract_y
  _atom_site_fract_z
  _atom_site_thermal_displace_type
  _atom_site_B_iso_or_equiv
  _atom_site_type_symbol
  O1       1.0000 0.43049  0.00000  0.07727  Biso   1.000  O
  O2       1.0000 0.93049  0.50000  0.07727  Biso   1.000  O
  O3       1.0000 0.56951  0.00000  0.92273  Biso   1.000  O
  O4       1.0000 0.06951  0.50000  0.92273  Biso   1.000  O
  O5       1.0000 0.34777  0.00000  0.96853  Biso   1.000  O
  O6       1.0000 0.84777  0.50000  0.96853  Biso   1.000  O
  O7       1.0000 0.65223  0.00000  0.03147  Biso   1.000  O
  O8       1.0000 0.15223  0.50000  0.03147  Biso   1.000  O
  O9       1.0000 0.41458  0.00000  0.84642  Biso   1.000  O
  O10      1.0000 0.91458  0.50000  0.84642  Biso   1.000  O
  O11      1.0000 0.58542  0.00000  0.15358  Biso   1.000  O
  O12      1.0000 0.08542  0.50000  0.15358  Biso   1.000  O
  O13      1.0000 0.31470  0.00000  0.41325  Biso   1.000  O
  O14      1.0000 0.81470  0.50000  0.41325  Biso   1.000  O
  O15      1.0000 0.68530  0.00000  0.58675  Biso   1.000  O
  O16      1.0000 0.18530  0.50000  0.58675  Biso   1.000  O
  O17      1.0000 0.24985  0.00000  0.23461  Biso   1.000  O
  O18      1.0000 0.74985  0.50000  0.23461  Biso   1.000  O
  O19      1.0000 0.75015  0.00000  0.76539  Biso   1.000  O
  O20      1.0000 0.25015  0.50000  0.76539  Biso   1.000  O
  O21      1.0000 0.23156  0.00000  0.45119  Biso   1.000  O
  O22      1.0000 0.73156  0.50000  0.45119  Biso   1.000  O
  O23      1.0000 0.76844  0.00000  0.54881  Biso   1.000  O
  O24      1.0000 0.26844  0.50000  0.54881  Biso   1.000  O
  O25      1.0000 0.00855  0.00000  0.23612  Biso   1.000  O
  O26      1.0000 0.50855  0.50000  0.23612  Biso   1.000  O
  O27      1.0000 0.99145  0.00000  0.76388  Biso   1.000  O
  O28      1.0000 0.49145  0.50000  0.76388  Biso   1.000  O
  O29      1.0000 0.06775  0.00000  0.42694  Biso   1.000  O
  O30      1.0000 0.56775  0.50000  0.42694  Biso   1.000  O
  O31      1.0000 0.93225  0.00000  0.57306  Biso   1.000  O
  O32      1.0000 0.43225  0.50000  0.57306  Biso   1.000  O
  O33      1.0000 0.09376  0.00000  0.21780  Biso   1.000  O
  O34      1.0000 0.59376  0.50000  0.21780  Biso   1.000  O
  O35      1.0000 0.90624  0.00000  0.78220  Biso   1.000  O
  O36      1.0000 0.40624  0.50000  0.78220  Biso   1.000  O
  N1       1.0000 0.50000  0.12362  0.00000  Biso   1.000  N
  N2       1.0000 0.50000  0.87638  0.00000  Biso   1.000  N
  N3       1.0000 0.00000  0.62362  0.00000  Biso   1.000  N
  N4       1.0000 0.00000  0.37638  0.00000  Biso   1.000  N
  N5       1.0000 0.50000  0.38445  0.00000  Biso   1.000  N
  N6       1.0000 0.50000  0.61555  0.00000  Biso   1.000  N
  N7       1.0000 0.00000  0.88445  0.00000  Biso   1.000  N
  N8       1.0000 0.00000  0.11555  0.00000  Biso   1.000  N
  N9       1.0000 0.31154  0.12607  0.13776  Biso   1.000  N
  N10      1.0000 0.31154  0.87393  0.13776  Biso   1.000  N
  N11      1.0000 0.81154  0.62607  0.13776  Biso   1.000  N
  N12      1.0000 0.81154  0.37393  0.13776  Biso   1.000  N
  N13      1.0000 0.68846  0.87393  0.86224  Biso   1.000  N
  N14      1.0000 0.68846  0.12607  0.86224  Biso   1.000  N
  N15      1.0000 0.18846  0.37393  0.86224  Biso   1.000  N
  N16      1.0000 0.18846  0.62607  0.86224  Biso   1.000  N
  N17      1.0000 0.31898  0.38741  0.16120  Biso   1.000  N
  N18      1.0000 0.31898  0.61259  0.16120  Biso   1.000  N
  N19      1.0000 0.81898  0.88741  0.16120  Biso   1.000  N
  N20      1.0000 0.81898  0.11259  0.16120  Biso   1.000  N
  N21      1.0000 0.68102  0.61259  0.83880  Biso   1.000  N
  N22      1.0000 0.68102  0.38741  0.83880  Biso   1.000  N
  N23      1.0000 0.18102  0.11259  0.83880  Biso   1.000  N
  N24      1.0000 0.18102  0.88741  0.83880  Biso   1.000  N
  N25      1.0000 0.16023  0.12618  0.34224  Biso   1.000  N
  N26      1.0000 0.16023  0.87382  0.34224  Biso   1.000  N
  N27      1.0000 0.66023  0.62618  0.34224  Biso   1.000  N
  N28      1.0000 0.66023  0.37382  0.34224  Biso   1.000  N
  N29      1.0000 0.83977  0.87382  0.65776  Biso   1.000  N
  N30      1.0000 0.83977  0.12618  0.65776  Biso   1.000  N
  N31      1.0000 0.33977  0.37382  0.65776  Biso   1.000  N
  N32      1.0000 0.33977  0.62618  0.65776  Biso   1.000  N
  N33      1.0000 0.14355  0.38664  0.36234  Biso   1.000  N
  N34      1.0000 0.14355  0.61336  0.36234  Biso   1.000  N
  N35      1.0000 0.64355  0.88664  0.36234  Biso   1.000  N
  N36      1.0000 0.64355  0.11336  0.36234  Biso   1.000  N
  N37      1.0000 0.85645  0.61336  0.63766  Biso   1.000  N
  N38      1.0000 0.85645  0.38664  0.63766  Biso   1.000  N
  N39      1.0000 0.35645  0.11336  0.63766  Biso   1.000  N
  N40      1.0000 0.35645  0.88664  0.63766  Biso   1.000  N
  N41      1.0000 0.00000  0.12615  0.50000  Biso   1.000  N
  N42      1.0000 0.00000  0.87385  0.50000  Biso   1.000  N
  N43      1.0000 0.50000  0.62615  0.50000  Biso   1.000  N
  N44      1.0000 0.50000  0.37385  0.50000  Biso   1.000  N
  N45      1.0000 0.00000  0.38806  0.50000  Biso   1.000  N
  N46      1.0000 0.00000  0.61194  0.50000  Biso   1.000  N
  N47      1.0000 0.50000  0.88806  0.50000  Biso   1.000  N
  N48      1.0000 0.50000  0.11194  0.50000  Biso   1.000  N
  C1       1.0000 0.39759  0.00000  0.96290  Biso   1.000  C
  C2       1.0000 0.89759  0.50000  0.96290  Biso   1.000  C
  C3       1.0000 0.60241  0.00000  0.03710  Biso   1.000  C
  C4       1.0000 0.10241  0.50000  0.03710  Biso   1.000  C
  C5       1.0000 0.26638  0.00000  0.36770  Biso   1.000  C
  C6       1.0000 0.76638  0.50000  0.36770  Biso   1.000  C
  C7       1.0000 0.73362  0.00000  0.63230  Biso   1.000  C
  C8       1.0000 0.23362  0.50000  0.63230  Biso   1.000  C
  C9       1.0000 0.05596  0.00000  0.29280  Biso   1.000  C
  C10      1.0000 0.55596  0.50000  0.29280  Biso   1.000  C
  C11      1.0000 0.94404  0.00000  0.70720  Biso   1.000  C
  C12      1.0000 0.44404  0.50000  0.70720  Biso   1.000  C
  C13      1.0000 0.50115  0.16748  0.11920  Biso   1.000  C
  C14      1.0000 0.50115  0.83252  0.11920  Biso   1.000  C
  C15      1.0000 0.00115  0.66748  0.11920  Biso   1.000  C
  C16      1.0000 0.00115  0.33252  0.11920  Biso   1.000  C
  C17      1.0000 0.49885  0.83252  0.88080  Biso   1.000  C
  C18      1.0000 0.49885  0.16748  0.88080  Biso   1.000  C
  C19      1.0000 0.99885  0.33252  0.88080  Biso   1.000  C
  C20      1.0000 0.99885  0.66748  0.88080  Biso   1.000  C
  C21      1.0000 0.50142  0.25359  0.12449  Biso   1.000  C
  C22      1.0000 0.50142  0.74641  0.12449  Biso   1.000  C
  C23      1.0000 0.00142  0.75359  0.12449  Biso   1.000  C
  C24      1.0000 0.00142  0.24641  0.12449  Biso   1.000  C
  C25      1.0000 0.49858  0.74641  0.87551  Biso   1.000  C
  C26      1.0000 0.49858  0.25359  0.87551  Biso   1.000  C
  C27      1.0000 0.99858  0.24641  0.87551  Biso   1.000  C
  C28      1.0000 0.99858  0.75359  0.87551  Biso   1.000  C
  C29      1.0000 0.50000  0.30002  0.00000  Biso   1.000  C
  C30      1.0000 0.50000  0.69998  0.00000  Biso   1.000  C
  C31      1.0000 0.00000  0.80002  0.00000  Biso   1.000  C
  C32      1.0000 0.00000  0.19998  0.00000  Biso   1.000  C
  C33      1.0000 0.26982  0.17301  0.16001  Biso   1.000  C
  C34      1.0000 0.26982  0.82699  0.16001  Biso   1.000  C
  C35      1.0000 0.76982  0.67301  0.16001  Biso   1.000  C
  C36      1.0000 0.76982  0.32699  0.16001  Biso   1.000  C
  C37      1.0000 0.73018  0.82699  0.83999  Biso   1.000  C
  C38      1.0000 0.73018  0.17301  0.83999  Biso   1.000  C
  C39      1.0000 0.23018  0.32699  0.83999  Biso   1.000  C
  C40      1.0000 0.23018  0.67301  0.83999  Biso   1.000  C
  C41      1.0000 0.27068  0.25882  0.17021  Biso   1.000  C
  C42      1.0000 0.27068  0.74118  0.17021  Biso   1.000  C
  C43      1.0000 0.77068  0.75882  0.17021  Biso   1.000  C
  C44      1.0000 0.77068  0.24118  0.17021  Biso   1.000  C
  C45      1.0000 0.72932  0.74118  0.82979  Biso   1.000  C
  C46      1.0000 0.72932  0.25882  0.82979  Biso   1.000  C
  C47      1.0000 0.22932  0.24118  0.82979  Biso   1.000  C
  C48      1.0000 0.22932  0.75882  0.82979  Biso   1.000  C
  C49      1.0000 0.31667  0.30331  0.15594  Biso   1.000  C
  C50      1.0000 0.31667  0.69669  0.15594  Biso   1.000  C
  C51      1.0000 0.81667  0.80331  0.15594  Biso   1.000  C
  C52      1.0000 0.81667  0.19669  0.15594  Biso   1.000  C
  C53      1.0000 0.68333  0.69669  0.84406  Biso   1.000  C
  C54      1.0000 0.68333  0.30331  0.84406  Biso   1.000  C
  C55      1.0000 0.18333  0.19669  0.84406  Biso   1.000  C
  C56      1.0000 0.18333  0.80331  0.84406  Biso   1.000  C
  C57      1.0000 0.36031  0.25428  0.13446  Biso   1.000  C
  C58      1.0000 0.36031  0.74572  0.13446  Biso   1.000  C
  C59      1.0000 0.86031  0.75428  0.13446  Biso   1.000  C
  C60      1.0000 0.86031  0.24572  0.13446  Biso   1.000  C
  C61      1.0000 0.63969  0.74572  0.86554  Biso   1.000  C
  C62      1.0000 0.63969  0.25428  0.86554  Biso   1.000  C
  C63      1.0000 0.13969  0.24572  0.86554  Biso   1.000  C
  C64      1.0000 0.13969  0.75428  0.86554  Biso   1.000  C
  C65      1.0000 0.35603  0.16858  0.12589  Biso   1.000  C
  C66      1.0000 0.35603  0.83142  0.12589  Biso   1.000  C
  C67      1.0000 0.85603  0.66858  0.12589  Biso   1.000  C
  C68      1.0000 0.85603  0.33142  0.12589  Biso   1.000  C
  C69      1.0000 0.64397  0.83142  0.87411  Biso   1.000  C
  C70      1.0000 0.64397  0.16858  0.87411  Biso   1.000  C
  C71      1.0000 0.14397  0.33142  0.87411  Biso   1.000  C
  C72      1.0000 0.14397  0.66858  0.87411  Biso   1.000  C
  C73      1.0000 0.18180  0.17078  0.45454  Biso   1.000  C
  C74      1.0000 0.18180  0.82922  0.45454  Biso   1.000  C
  C75      1.0000 0.68180  0.67078  0.45454  Biso   1.000  C
  C76      1.0000 0.68180  0.32922  0.45454  Biso   1.000  C
  C77      1.0000 0.81820  0.82922  0.54546  Biso   1.000  C
  C78      1.0000 0.81820  0.17078  0.54546  Biso   1.000  C
  C79      1.0000 0.31820  0.32922  0.54546  Biso   1.000  C
  C80      1.0000 0.31820  0.67078  0.54546  Biso   1.000  C
  C81      1.0000 0.17795  0.25666  0.46501  Biso   1.000  C
  C82      1.0000 0.17795  0.74334  0.46501  Biso   1.000  C
  C83      1.0000 0.67795  0.75666  0.46501  Biso   1.000  C
  C84      1.0000 0.67795  0.24334  0.46501  Biso   1.000  C
  C85      1.0000 0.82205  0.74334  0.53499  Biso   1.000  C
  C86      1.0000 0.82205  0.25666  0.53499  Biso   1.000  C
  C87      1.0000 0.32205  0.24334  0.53499  Biso   1.000  C
  C88      1.0000 0.32205  0.75666  0.53499  Biso   1.000  C
  C89      1.0000 0.15057  0.30323  0.35441  Biso   1.000  C
  C90      1.0000 0.15057  0.69677  0.35441  Biso   1.000  C
  C91      1.0000 0.65057  0.80323  0.35441  Biso   1.000  C
  C92      1.0000 0.65057  0.19677  0.35441  Biso   1.000  C
  C93      1.0000 0.84943  0.69677  0.64559  Biso   1.000  C
  C94      1.0000 0.84943  0.30323  0.64559  Biso   1.000  C
  C95      1.0000 0.34943  0.19677  0.64559  Biso   1.000  C
  C96      1.0000 0.34943  0.80323  0.64559  Biso   1.000  C
  C97      1.0000 0.13039  0.25692  0.23496  Biso   1.000  C
  C98      1.0000 0.13039  0.74308  0.23496  Biso   1.000  C
  C99      1.0000 0.63039  0.75692  0.23496  Biso   1.000  C
  C100     1.0000 0.63039  0.24308  0.23496  Biso   1.000  C
  C101     1.0000 0.86961  0.74308  0.76504  Biso   1.000  C
  C102     1.0000 0.86961  0.25692  0.76504  Biso   1.000  C
  C103     1.0000 0.36961  0.24308  0.76504  Biso   1.000  C
  C104     1.0000 0.36961  0.75692  0.76504  Biso   1.000  C
  C105     1.0000 0.13542  0.17099  0.23411  Biso   1.000  C
  C106     1.0000 0.13542  0.82901  0.23411  Biso   1.000  C
  C107     1.0000 0.63542  0.67099  0.23411  Biso   1.000  C
  C108     1.0000 0.63542  0.32901  0.23411  Biso   1.000  C
  C109     1.0000 0.86458  0.82901  0.76589  Biso   1.000  C
  C110     1.0000 0.86458  0.17099  0.76589  Biso   1.000  C
  C111     1.0000 0.36458  0.32901  0.76589  Biso   1.000  C
  C112     1.0000 0.36458  0.67099  0.76589  Biso   1.000  C
  C113     1.0000 0.04439  0.17042  0.53529  Biso   1.000  C
  C114     1.0000 0.04439  0.82958  0.53529  Biso   1.000  C
  C115     1.0000 0.54439  0.67042  0.53529  Biso   1.000  C
  C116     1.0000 0.54439  0.32958  0.53529  Biso   1.000  C
  C117     1.0000 0.95561  0.82958  0.46471  Biso   1.000  C
  C118     1.0000 0.95561  0.17042  0.46471  Biso   1.000  C
  C119     1.0000 0.45561  0.32958  0.46471  Biso   1.000  C
  C120     1.0000 0.45561  0.67042  0.46471  Biso   1.000  C
  C121     1.0000 0.04618  0.25687  0.53825  Biso   1.000  C
  C122     1.0000 0.04618  0.74313  0.53825  Biso   1.000  C
  C123     1.0000 0.54618  0.75687  0.53825  Biso   1.000  C
  C124     1.0000 0.54618  0.24313  0.53825  Biso   1.000  C
  C125     1.0000 0.95382  0.74313  0.46175  Biso   1.000  C
  C126     1.0000 0.95382  0.25687  0.46175  Biso   1.000  C
  C127     1.0000 0.45382  0.24313  0.46175  Biso   1.000  C
  C128     1.0000 0.45382  0.75687  0.46175  Biso   1.000  C
  C129     1.0000 0.00000  0.30354  0.50000  Biso   1.000  C
  C130     1.0000 0.00000  0.69646  0.50000  Biso   1.000  C
  C131     1.0000 0.50000  0.80354  0.50000  Biso   1.000  C
  C132     1.0000 0.50000  0.19646  0.50000  Biso   1.000  C
  O37      1.0000 0.23993  0.50000  0.24650  Biso   1.000  O
  O38      1.0000 0.73993  0.00000  0.24650  Biso   1.000  O
  O39      1.0000 0.76007  0.50000  0.75350  Biso   1.000  O
  O40      1.0000 0.26007  0.00000  0.75350  Biso   1.000  O
  O41      1.0000 0.91723  0.50000  0.35830  Biso   1.000  O
  O42      1.0000 0.41723  0.00000  0.35830  Biso   1.000  O
  O43      1.0000 0.08277  0.50000  0.64170  Biso   1.000  O
  O44      1.0000 0.58277  0.00000  0.64170  Biso   1.000  O
  O45      1.0000 0.40339  0.50000  0.08550  Biso   1.000  O
  O46      1.0000 0.90339  0.00000  0.08550  Biso   1.000  O
  O47      1.0000 0.59661  0.50000  0.91450  Biso   1.000  O
  O48      1.0000 0.09661  0.00000  0.91450  Biso   1.000  O
  Cu1      1.0000 0.50000  0.00000  0.00000  Biso   1.000  Cu
  Cu2      1.0000 0.00000  0.50000  0.00000  Biso   1.000  Cu
  Cu3      1.0000 0.30796  0.00000  0.12501  Biso   1.000  Cu
  Cu4      1.0000 0.80796  0.50000  0.12501  Biso   1.000  Cu
  Cu5      1.0000 0.69204  0.00000  0.87499  Biso   1.000  Cu
  Cu6      1.0000 0.19204  0.50000  0.87499  Biso   1.000  Cu
  Cu7      1.0000 0.16172  0.00000  0.33873  Biso   1.000  Cu
  Cu8      1.0000 0.66172  0.50000  0.33873  Biso   1.000  Cu
  Cu9      1.0000 0.83828  0.00000  0.66127  Biso   1.000  Cu
  Cu10     1.0000 0.33828  0.50000  0.66127  Biso   1.000  Cu
  Cu11     1.0000 0.00000  0.00000  0.50000  Biso   1.000  Cu
  Cu12     1.0000 0.50000  0.50000  0.50000  Biso   1.000  Cu
  H1       1.0000 0.50200  0.13500  0.20300  Biso   1.000  H
  H2       1.0000 0.50200  0.86500  0.20300  Biso   1.000  H
  H3       1.0000 0.00200  0.63500  0.20300  Biso   1.000  H
  H4       1.0000 0.00200  0.36500  0.20300  Biso   1.000  H
  H5       1.0000 0.49800  0.86500  0.79700  Biso   1.000  H
  H6       1.0000 0.49800  0.13500  0.79700  Biso   1.000  H
  H7       1.0000 0.99800  0.36500  0.79700  Biso   1.000  H
  H8       1.0000 0.99800  0.63500  0.79700  Biso   1.000  H
  H9       1.0000 0.50300  0.28300  0.21000  Biso   1.000  H
  H10      1.0000 0.50300  0.71700  0.21000  Biso   1.000  H
  H11      1.0000 0.00300  0.78300  0.21000  Biso   1.000  H
  H12      1.0000 0.00300  0.21700  0.21000  Biso   1.000  H
  H13      1.0000 0.49700  0.71700  0.79000  Biso   1.000  H
  H14      1.0000 0.49700  0.28300  0.79000  Biso   1.000  H
  H15      1.0000 0.99700  0.21700  0.79000  Biso   1.000  H
  H16      1.0000 0.99700  0.78300  0.79000  Biso   1.000  H
  H17      1.0000 0.23900  0.14100  0.16900  Biso   1.000  H
  H18      1.0000 0.23900  0.85900  0.16900  Biso   1.000  H
  H19      1.0000 0.73900  0.64100  0.16900  Biso   1.000  H
  H20      1.0000 0.73900  0.35900  0.16900  Biso   1.000  H
  H21      1.0000 0.76100  0.85900  0.83100  Biso   1.000  H
  H22      1.0000 0.76100  0.14100  0.83100  Biso   1.000  H
  H23      1.0000 0.26100  0.35900  0.83100  Biso   1.000  H
  H24      1.0000 0.26100  0.64100  0.83100  Biso   1.000  H
  H25      1.0000 0.24000  0.28800  0.18200  Biso   1.000  H
  H26      1.0000 0.24000  0.71200  0.18200  Biso   1.000  H
  H27      1.0000 0.74000  0.78800  0.18200  Biso   1.000  H
  H28      1.0000 0.74000  0.21200  0.18200  Biso   1.000  H
  H29      1.0000 0.76000  0.71200  0.81800  Biso   1.000  H
  H30      1.0000 0.76000  0.28800  0.81800  Biso   1.000  H
  H31      1.0000 0.26000  0.21200  0.81800  Biso   1.000  H
  H32      1.0000 0.26000  0.78800  0.81800  Biso   1.000  H
  H33      1.0000 0.39300  0.28100  0.12800  Biso   1.000  H
  H34      1.0000 0.39300  0.71900  0.12800  Biso   1.000  H
  H35      1.0000 0.89300  0.78100  0.12800  Biso   1.000  H
  H36      1.0000 0.89300  0.21900  0.12800  Biso   1.000  H
  H37      1.0000 0.60700  0.71900  0.87200  Biso   1.000  H
  H38      1.0000 0.60700  0.28100  0.87200  Biso   1.000  H
  H39      1.0000 0.10700  0.21900  0.87200  Biso   1.000  H
  H40      1.0000 0.10700  0.78100  0.87200  Biso   1.000  H
  H41      1.0000 0.38400  0.13600  0.10600  Biso   1.000  H
  H42      1.0000 0.38400  0.86400  0.10600  Biso   1.000  H
  H43      1.0000 0.88400  0.63600  0.10600  Biso   1.000  H
  H44      1.0000 0.88400  0.36400  0.10600  Biso   1.000  H
  H45      1.0000 0.61600  0.86400  0.89400  Biso   1.000  H
  H46      1.0000 0.61600  0.13600  0.89400  Biso   1.000  H
  H47      1.0000 0.11600  0.36400  0.89400  Biso   1.000  H
  H48      1.0000 0.11600  0.63600  0.89400  Biso   1.000  H
  H49      1.0000 0.19900  0.14000  0.52800  Biso   1.000  H
  H50      1.0000 0.19900  0.86000  0.52800  Biso   1.000  H
  H51      1.0000 0.69900  0.64000  0.52800  Biso   1.000  H
  H52      1.0000 0.69900  0.36000  0.52800  Biso   1.000  H
  H53      1.0000 0.80100  0.86000  0.47200  Biso   1.000  H
  H54      1.0000 0.80100  0.14000  0.47200  Biso   1.000  H
  H55      1.0000 0.30100  0.36000  0.47200  Biso   1.000  H
  H56      1.0000 0.30100  0.64000  0.47200  Biso   1.000  H
  H57      1.0000 0.19400  0.28400  0.54400  Biso   1.000  H
  H58      1.0000 0.19400  0.71600  0.54400  Biso   1.000  H
  H59      1.0000 0.69400  0.78400  0.54400  Biso   1.000  H
  H60      1.0000 0.69400  0.21600  0.54400  Biso   1.000  H
  H61      1.0000 0.80600  0.71600  0.45600  Biso   1.000  H
  H62      1.0000 0.80600  0.28400  0.45600  Biso   1.000  H
  H63      1.0000 0.30600  0.21600  0.45600  Biso   1.000  H
  H64      1.0000 0.30600  0.78400  0.45600  Biso   1.000  H
  H65      1.0000 0.11200  0.28400  0.15400  Biso   1.000  H
  H66      1.0000 0.11200  0.71600  0.15400  Biso   1.000  H
  H67      1.0000 0.61200  0.78400  0.15400  Biso   1.000  H
  H68      1.0000 0.61200  0.21600  0.15400  Biso   1.000  H
  H69      1.0000 0.88800  0.71600  0.84600  Biso   1.000  H
  H70      1.0000 0.88800  0.28400  0.84600  Biso   1.000  H
  H71      1.0000 0.38800  0.21600  0.84600  Biso   1.000  H
  H72      1.0000 0.38800  0.78400  0.84600  Biso   1.000  H
  H73      1.0000 0.11800  0.13900  0.15800  Biso   1.000  H
  H74      1.0000 0.11800  0.86100  0.15800  Biso   1.000  H
  H75      1.0000 0.61800  0.63900  0.15800  Biso   1.000  H
  H76      1.0000 0.61800  0.36100  0.15800  Biso   1.000  H
  H77      1.0000 0.88200  0.86100  0.84200  Biso   1.000  H
  H78      1.0000 0.88200  0.13900  0.84200  Biso   1.000  H
  H79      1.0000 0.38200  0.36100  0.84200  Biso   1.000  H
  H80      1.0000 0.38200  0.63900  0.84200  Biso   1.000  H
  H81      1.0000 0.07500  0.13900  0.56200  Biso   1.000  H
  H82      1.0000 0.07500  0.86100  0.56200  Biso   1.000  H
  H83      1.0000 0.57500  0.63900  0.56200  Biso   1.000  H
  H84      1.0000 0.57500  0.36100  0.56200  Biso   1.000  H
  H85      1.0000 0.92500  0.86100  0.43800  Biso   1.000  H
  H86      1.0000 0.92500  0.13900  0.43800  Biso   1.000  H
  H87      1.0000 0.42500  0.36100  0.43800  Biso   1.000  H
  H88      1.0000 0.42500  0.63900  0.43800  Biso   1.000  H
  H89      1.0000 0.07900  0.28800  0.56400  Biso   1.000  H
  H90      1.0000 0.07900  0.71200  0.56400  Biso   1.000  H
  H91      1.0000 0.57900  0.78800  0.56400  Biso   1.000  H
  H92      1.0000 0.57900  0.21200  0.56400  Biso   1.000  H
  H93      1.0000 0.92100  0.71200  0.43600  Biso   1.000  H
  H94      1.0000 0.92100  0.28800  0.43600  Biso   1.000  H
  H95      1.0000 0.42100  0.21200  0.43600  Biso   1.000  H
  H96      1.0000 0.42100  0.78800  0.43600  Biso   1.000  H
  H97      1.0000 0.50300  0.41000  0.07300  Biso   1.000  H
  H98      1.0000 0.50300  0.59000  0.07300  Biso   1.000  H
  H99      1.0000 0.00300  0.91000  0.07300  Biso   1.000  H
  H100     1.0000 0.00300  0.09000  0.07300  Biso   1.000  H
  H101     1.0000 0.49700  0.59000  0.92700  Biso   1.000  H
  H102     1.0000 0.49700  0.41000  0.92700  Biso   1.000  H
  H103     1.0000 0.99700  0.09000  0.92700  Biso   1.000  H
  H104     1.0000 0.99700  0.91000  0.92700  Biso   1.000  H
  H105     1.0000 0.29400  0.41700  0.17900  Biso   1.000  H
  H106     1.0000 0.29400  0.58300  0.17900  Biso   1.000  H
  H107     1.0000 0.79400  0.91700  0.17900  Biso   1.000  H
  H108     1.0000 0.79400  0.08300  0.17900  Biso   1.000  H
  H109     1.0000 0.70600  0.58300  0.82100  Biso   1.000  H
  H110     1.0000 0.70600  0.41700  0.82100  Biso   1.000  H
  H111     1.0000 0.20600  0.08300  0.82100  Biso   1.000  H
  H112     1.0000 0.20600  0.91700  0.82100  Biso   1.000  H
  H113     1.0000 0.34700  0.41900  0.14800  Biso   1.000  H
  H114     1.0000 0.34700  0.58100  0.14800  Biso   1.000  H
  H115     1.0000 0.84700  0.91900  0.14800  Biso   1.000  H
  H116     1.0000 0.84700  0.08100  0.14800  Biso   1.000  H
  H117     1.0000 0.65300  0.58100  0.85200  Biso   1.000  H
  H118     1.0000 0.65300  0.41900  0.85200  Biso   1.000  H
  H119     1.0000 0.15300  0.08100  0.85200  Biso   1.000  H
  H120     1.0000 0.15300  0.91900  0.85200  Biso   1.000  H
  H121     1.0000 0.15900  0.41800  0.43300  Biso   1.000  H
  H122     1.0000 0.15900  0.58200  0.43300  Biso   1.000  H
  H123     1.0000 0.65900  0.91800  0.43300  Biso   1.000  H
  H124     1.0000 0.65900  0.08200  0.43300  Biso   1.000  H
  H125     1.0000 0.84100  0.58200  0.56700  Biso   1.000  H
  H126     1.0000 0.84100  0.41800  0.56700  Biso   1.000  H
  H127     1.0000 0.34100  0.08200  0.56700  Biso   1.000  H
  H128     1.0000 0.34100  0.91800  0.56700  Biso   1.000  H
  H129     1.0000 0.12500  0.41500  0.29000  Biso   1.000  H
  H130     1.0000 0.12500  0.58500  0.29000  Biso   1.000  H
  H131     1.0000 0.62500  0.91500  0.29000  Biso   1.000  H
  H132     1.0000 0.62500  0.08500  0.29000  Biso   1.000  H
  H133     1.0000 0.87500  0.58500  0.71000  Biso   1.000  H
  H134     1.0000 0.87500  0.41500  0.71000  Biso   1.000  H
  H135     1.0000 0.37500  0.08500  0.71000  Biso   1.000  H
  H136     1.0000 0.37500  0.91500  0.71000  Biso   1.000  H
  H137     1.0000 0.02900  0.41800  0.52500  Biso   1.000  H
  H138     1.0000 0.02900  0.58200  0.52500  Biso   1.000  H
  H139     1.0000 0.52900  0.91800  0.52500  Biso   1.000  H
  H140     1.0000 0.52900  0.08200  0.52500  Biso   1.000  H
  H141     1.0000 0.97100  0.58200  0.47500  Biso   1.000  H
  H142     1.0000 0.97100  0.41800  0.47500  Biso   1.000  H
  H143     1.0000 0.47100  0.08200  0.47500  Biso   1.000  H
  H144     1.0000 0.47100  0.91800  0.47500  Biso   1.000  H
  H145     1.0000 0.24200  0.50000  0.33900  Biso   1.000  H
  H146     1.0000 0.74200  0.00000  0.33900  Biso   1.000  H
  H147     1.0000 0.75800  0.50000  0.66100  Biso   1.000  H
  H148     1.0000 0.25800  0.00000  0.66100  Biso   1.000  H
  H149     1.0000 0.21000  0.50000  0.20300  Biso   1.000  H
  H150     1.0000 0.71000  0.00000  0.20300  Biso   1.000  H
  H151     1.0000 0.79000  0.50000  0.79700  Biso   1.000  H
  H152     1.0000 0.29000  0.00000  0.79700  Biso   1.000  H
  H153     1.0000 0.88700  0.50000  0.37000  Biso   1.000  H
  H154     1.0000 0.38700  0.00000  0.37000  Biso   1.000  H
  H155     1.0000 0.11300  0.50000  0.63000  Biso   1.000  H
  H156     1.0000 0.61300  0.00000  0.63000  Biso   1.000  H
  H157     1.0000 0.92200  0.50000  0.26700  Biso   1.000  H
  H158     1.0000 0.42200  0.00000  0.26700  Biso   1.000  H
  H159     1.0000 0.07800  0.50000  0.73300  Biso   1.000  H
  H160     1.0000 0.57800  0.00000  0.73300  Biso   1.000  H
  H161     1.0000 0.41100  0.50000  0.99100  Biso   1.000  H
  H162     1.0000 0.91100  0.00000  0.99100  Biso   1.000  H
  H163     1.0000 0.58900  0.50000  0.00900  Biso   1.000  H
  H164     1.0000 0.08900  0.00000  0.00900  Biso   1.000  H
  H165     1.0000 0.44000  0.50000  0.13000  Biso   1.000  H
  H166     1.0000 0.94000  0.00000  0.13000  Biso   1.000  H
  H167     1.0000 0.56000  0.50000  0.87000  Biso   1.000  H
  H168     1.0000 0.06000  0.00000  0.87000  Biso   1.000  H
