data_image0
_cell_length_a       8.834
_cell_length_b       9.649
_cell_length_c       10.297
_cell_angle_alpha    92.974
_cell_angle_beta     105.026
_cell_angle_gamma    101.415

_symmetry_space_group_name_H-M    "P 1"
_symmetry_int_tables_number       1

loop_
  _symmetry_equiv_pos_as_xyz
  'x, y, z'

loop_
  _atom_site_label
  _atom_site_occupancy
  _atom_site_fract_x
  _atom_site_fract_y
  _atom_site_fract_z
  _atom_site_thermal_displace_type
  _atom_site_B_iso_or_equiv
  _atom_site_type_symbol
  Cu1      1.0000 0.67941  0.62299  0.12917  Biso   1.000  Cu
  Cu2      1.0000 0.32059  0.37701  0.87083  Biso   1.000  Cu
  Cl1      1.0000 0.59748  0.82916  0.11499  Biso   1.000  Cl
  Cl2      1.0000 0.40252  0.17084  0.88501  Biso   1.000  Cl
  Cl3      1.0000 0.44566  0.49742  0.15657  Biso   1.000  Cl
  Cl4      1.0000 0.55434  0.50258  0.84343  Biso   1.000  Cl
  C1       1.0000 0.71560  0.31820  0.15460  Biso   1.000  C
  C2       1.0000 0.28440  0.68180  0.84540  Biso   1.000  C
  H1       1.0000 0.60380  0.29610  0.14730  Biso   1.000  H
  H2       1.0000 0.39620  0.70390  0.85270  Biso   1.000  H
  C3       1.0000 0.79960  0.20950  0.16800  Biso   1.000  C
  C4       1.0000 0.20040  0.79050  0.83200  Biso   1.000  C
  H3       1.0000 0.74490  0.11430  0.16810  Biso   1.000  H
  H4       1.0000 0.25510  0.88570  0.83190  Biso   1.000  H
  C5       1.0000 0.96140  0.24050  0.18100  Biso   1.000  C
  C6       1.0000 0.03860  0.75950  0.81900  Biso   1.000  C
  H5       1.0000 0.02010  0.16740  0.19140  Biso   1.000  H
  H6       1.0000 0.97990  0.83260  0.80860  Biso   1.000  H
  C7       1.0000 0.03820  0.37980  0.17890  Biso   1.000  C
  C8       1.0000 0.96180  0.62020  0.82110  Biso   1.000  C
  H7       1.0000 0.15030  0.40420  0.18760  Biso   1.000  H
  H8       1.0000 0.84970  0.59580  0.81240  Biso   1.000  H
  C9       1.0000 0.94750  0.48270  0.16360  Biso   1.000  C
  C10      1.0000 0.05250  0.51730  0.83640  Biso   1.000  C
  C11      1.0000 0.01210  0.63190  0.15430  Biso   1.000  C
  C12      1.0000 0.98790  0.36810  0.84570  Biso   1.000  C
  C13      1.0000 0.16010  0.71370  0.16470  Biso   1.000  C
  C14      1.0000 0.83990  0.28630  0.83530  Biso   1.000  C
  H9       1.0000 0.25990  0.68520  0.18360  Biso   1.000  H
  H10      1.0000 0.74010  0.31480  0.81640  Biso   1.000  H
  C15      1.0000 0.25210  0.97340  0.14540  Biso   1.000  C
  C16      1.0000 0.74790  0.02660  0.85460  Biso   1.000  C
  H11      1.0000 0.20110  0.03700  0.08410  Biso   1.000  H
  H12      1.0000 0.79890  0.96300  0.91590  Biso   1.000  H
  H13      1.0000 0.33970  0.94880  0.11170  Biso   1.000  H
  H14      1.0000 0.66030  0.05120  0.88830  Biso   1.000  H
  C17      1.0000 0.32210  0.05130  0.28560  Biso   1.000  C
  C18      1.0000 0.67790  0.94870  0.71440  Biso   1.000  C
  C19      1.0000 0.48510  0.09880  0.33700  Biso   1.000  C
  C20      1.0000 0.51490  0.90120  0.66300  Biso   1.000  C
  H15      1.0000 0.55640  0.07540  0.28870  Biso   1.000  H
  H16      1.0000 0.44360  0.92460  0.71130  Biso   1.000  H
  C21      1.0000 0.54410  0.18180  0.46100  Biso   1.000  C
  C22      1.0000 0.45590  0.81820  0.53900  Biso   1.000  C
  H17      1.0000 0.65620  0.21860  0.49760  Biso   1.000  H
  H18      1.0000 0.34380  0.78140  0.50240  Biso   1.000  H
  C23      1.0000 0.43730  0.20980  0.52980  Biso   1.000  C
  C24      1.0000 0.56270  0.79020  0.47020  Biso   1.000  C
  H19      1.0000 0.47420  0.26700  0.61450  Biso   1.000  H
  H20      1.0000 0.52580  0.73300  0.38550  Biso   1.000  H
  C25      1.0000 0.27560  0.15330  0.47350  Biso   1.000  C
  C26      1.0000 0.72440  0.84670  0.52650  Biso   1.000  C
  C27      1.0000 0.15070  0.17570  0.54420  Biso   1.000  C
  C28      1.0000 0.84930  0.82430  0.45580  Biso   1.000  C
  H21      1.0000 0.04450  0.15860  0.47650  Biso   1.000  H
  H22      1.0000 0.95550  0.84140  0.52350  Biso   1.000  H
  H23      1.0000 0.14420  0.10520  0.61020  Biso   1.000  H
  H24      1.0000 0.85580  0.89480  0.38980  Biso   1.000  H
  N1       1.0000 0.78810  0.45250  0.15180  Biso   1.000  N
  N2       1.0000 0.21190  0.54750  0.84820  Biso   1.000  N
  N3       1.0000 0.90370  0.71720  0.12510  Biso   1.000  N
  N4       1.0000 0.09630  0.28280  0.87490  Biso   1.000  N
  N5       1.0000 0.97740  0.84650  0.11820  Biso   1.000  N
  N6       1.0000 0.02260  0.15350  0.88180  Biso   1.000  N
  N7       1.0000 0.13300  0.84360  0.14220  Biso   1.000  N
  N8       1.0000 0.86700  0.15640  0.85780  Biso   1.000  N
  N9       1.0000 0.21690  0.07530  0.35270  Biso   1.000  N
  N10      1.0000 0.78310  0.92470  0.64730  Biso   1.000  N
  N11      1.0000 0.18660  0.32020  0.61550  Biso   1.000  N
  N12      1.0000 0.81340  0.67980  0.38450  Biso   1.000  N
  N13      1.0000 0.18630  0.41800  0.54310  Biso   1.000  N
  N14      1.0000 0.81370  0.58200  0.45690  Biso   1.000  N
  N15      1.0000 0.18950  0.51660  0.48890  Biso   1.000  N
  N16      1.0000 0.81050  0.48340  0.51110  Biso   1.000  N
