data_image0
_cell_length_a       10.174
_cell_length_b       12.538
_cell_length_c       13.665
_cell_angle_alpha    63.45
_cell_angle_beta     77.06
_cell_angle_gamma    73.02

_symmetry_space_group_name_H-M    "P 1"
_symmetry_int_tables_number       1

loop_
  _symmetry_equiv_pos_as_xyz
  'x, y, z'

loop_
  _atom_site_label
  _atom_site_occupancy
  _atom_site_fract_x
  _atom_site_fract_y
  _atom_site_fract_z
  _atom_site_thermal_displace_type
  _atom_site_B_iso_or_equiv
  _atom_site_type_symbol
  Cu1      1.0000 0.61160  0.51451  0.75427  Biso   1.000  Cu
  Cu2      1.0000 0.38840  0.48549  0.24573  Biso   1.000  Cu
  N1       1.0000 0.64900  0.37760  0.70660  Biso   1.000  N
  N2       1.0000 0.35100  0.62240  0.29340  Biso   1.000  N
  N3       1.0000 0.73830  0.26390  0.61350  Biso   1.000  N
  N4       1.0000 0.26170  0.73610  0.38650  Biso   1.000  N
  N5       1.0000 0.90970  0.09410  0.59220  Biso   1.000  N
  N6       1.0000 0.09030  0.90590  0.40780  Biso   1.000  N
  N7       1.0000 0.84600  0.99710  0.64300  Biso   1.000  N
  N8       1.0000 0.15400  0.00290  0.35700  Biso   1.000  N
  N9       1.0000 0.93910  0.89770  0.68060  Biso   1.000  N
  N10      1.0000 0.06090  0.10230  0.31940  Biso   1.000  N
  N11      1.0000 0.57580  0.65750  0.79240  Biso   1.000  N
  N12      1.0000 0.42420  0.34250  0.20760  Biso   1.000  N
  N13      1.0000 0.49850  0.78640  0.87120  Biso   1.000  N
  N14      1.0000 0.50150  0.21360  0.12880  Biso   1.000  N
  N15      1.0000 0.33290  0.95720  0.89480  Biso   1.000  N
  N16      1.0000 0.66710  0.04280  0.10520  Biso   1.000  N
  N17      1.0000 0.38630  0.05910  0.84560  Biso   1.000  N
  N18      1.0000 0.61370  0.94090  0.15440  Biso   1.000  N
  N19      1.0000 0.28720  0.15350  0.80130  Biso   1.000  N
  N20      1.0000 0.71280  0.84650  0.19870  Biso   1.000  N
  O1       1.0000 0.81590  0.49730  0.75170  Biso   1.000  O
  O2       1.0000 0.18410  0.50270  0.24830  Biso   1.000  O
  O3       1.0000 0.74360  0.38550  0.92380  Biso   1.000  O
  O4       1.0000 0.25640  0.61450  0.07620  Biso   1.000  O
  O5       1.0000 0.31360  0.55100  0.67170  Biso   1.000  O
  O6       1.0000 0.68640  0.44900  0.32830  Biso   1.000  O
  O7       1.0000 0.42370  0.49190  0.81850  Biso   1.000  O
  O8       1.0000 0.57630  0.50810  0.18150  Biso   1.000  O
  O9       1.0000 0.54800  0.65750  0.57470  Biso   1.000  O
  O10      1.0000 0.45200  0.34250  0.42530  Biso   1.000  O
  H1       1.0000 0.60550  0.64890  0.52170  Biso   1.000  H
  H2       1.0000 0.39450  0.35110  0.47830  Biso   1.000  H
  H3       1.0000 0.47540  0.63620  0.57590  Biso   1.000  H
  H4       1.0000 0.52460  0.36380  0.42410  Biso   1.000  H
  C1       1.0000 0.83460  0.43400  0.85420  Biso   1.000  C
  C2       1.0000 0.16540  0.56600  0.14580  Biso   1.000  C
  C3       1.0000 0.32120  0.50340  0.77280  Biso   1.000  C
  C4       1.0000 0.67880  0.49660  0.22720  Biso   1.000  C
  C5       1.0000 0.97050  0.41920  0.89020  Biso   1.000  C
  C6       1.0000 0.02950  0.58080  0.10980  Biso   1.000  C
  C7       1.0000 0.07910  0.46660  0.81530  Biso   1.000  C
  C8       1.0000 0.92090  0.53340  0.18470  Biso   1.000  C
  H5       1.0000 0.06850  0.50830  0.74070  Biso   1.000  H
  H6       1.0000 0.93150  0.49170  0.25930  Biso   1.000  H
  C9       1.0000 0.20380  0.45170  0.85240  Biso   1.000  C
  C10      1.0000 0.79620  0.54830  0.14760  Biso   1.000  C
  C11      1.0000 0.21790  0.38900  0.96360  Biso   1.000  C
  C12      1.0000 0.78210  0.61100  0.03640  Biso   1.000  C
  H7       1.0000 0.30100  0.37780  0.98850  Biso   1.000  H
  H8       1.0000 0.69900  0.62220  0.01150  Biso   1.000  H
  C13      1.0000 0.10990  0.34230  0.03920  Biso   1.000  C
  C14      1.0000 0.89010  0.65770  0.96080  Biso   1.000  C
  H9       1.0000 0.12040  0.30060  0.11390  Biso   1.000  H
  H10      1.0000 0.87960  0.69940  0.88610  Biso   1.000  H
  C15      1.0000 0.98670  0.35900  0.00140  Biso   1.000  C
  C16      1.0000 0.01330  0.64100  0.99860  Biso   1.000  C
  H11      1.0000 0.91380  0.32930  0.05150  Biso   1.000  H
  H12      1.0000 0.08620  0.67070  0.94850  Biso   1.000  H
  C17      1.0000 0.74840  0.35750  0.63260  Biso   1.000  C
  C18      1.0000 0.25160  0.64250  0.36740  Biso   1.000  C
  H13      1.0000 0.81680  0.40210  0.59800  Biso   1.000  H
  H14      1.0000 0.18320  0.59790  0.40200  Biso   1.000  H
  C19      1.0000 0.57200  0.29070  0.73670  Biso   1.000  C
  C20      1.0000 0.42800  0.70930  0.26330  Biso   1.000  C
  H15      1.0000 0.49470  0.28200  0.78870  Biso   1.000  H
  H16      1.0000 0.50530  0.71800  0.21130  Biso   1.000  H
  C21      1.0000 0.62520  0.22140  0.68030  Biso   1.000  C
  C22      1.0000 0.37480  0.77860  0.31970  Biso   1.000  C
  H17      1.0000 0.59240  0.15710  0.68510  Biso   1.000  H
  H18      1.0000 0.40760  0.84290  0.31490  Biso   1.000  H
  C23      1.0000 0.82830  0.21670  0.53600  Biso   1.000  C
  C24      1.0000 0.17170  0.78330  0.46400  Biso   1.000  C
  H19      1.0000 0.89010  0.27100  0.49080  Biso   1.000  H
  H20      1.0000 0.10990  0.72900  0.50920  Biso   1.000  H
  H21      1.0000 0.77260  0.21490  0.48790  Biso   1.000  H
  H22      1.0000 0.22740  0.78510  0.51210  Biso   1.000  H
  C25      1.0000 0.04920  0.05150  0.59760  Biso   1.000  C
  C26      1.0000 0.95080  0.94850  0.40240  Biso   1.000  C
  C27      1.0000 0.06560  0.92670  0.65460  Biso   1.000  C
  C28      1.0000 0.93440  0.07330  0.34540  Biso   1.000  C
  C29      1.0000 0.19680  0.85210  0.67520  Biso   1.000  C
  C30      1.0000 0.80320  0.14790  0.32480  Biso   1.000  C
  H23      1.0000 0.20820  0.76790  0.71440  Biso   1.000  H
  H24      1.0000 0.79180  0.23210  0.28560  Biso   1.000  H
  C31      1.0000 0.30630  0.90400  0.63750  Biso   1.000  C
  C32      1.0000 0.69370  0.09600  0.36250  Biso   1.000  C
  H25      1.0000 0.39440  0.85470  0.64940  Biso   1.000  H
  H26      1.0000 0.60560  0.14530  0.35060  Biso   1.000  H
  C33      1.0000 0.29070  0.03080  0.58040  Biso   1.000  C
  C34      1.0000 0.70930  0.96920  0.41960  Biso   1.000  C
  H27      1.0000 0.36900  0.06370  0.55530  Biso   1.000  H
  H28      1.0000 0.63100  0.93630  0.44470  Biso   1.000  H
  C35      1.0000 0.16000  0.10970  0.56010  Biso   1.000  C
  C36      1.0000 0.84000  0.89030  0.43990  Biso   1.000  C
  H29      1.0000 0.14820  0.19420  0.52440  Biso   1.000  H
  H30      1.0000 0.85180  0.80580  0.47560  Biso   1.000  H
  C37      1.0000 0.48550  0.68250  0.86930  Biso   1.000  C
  C38      1.0000 0.51450  0.31750  0.13070  Biso   1.000  C
  H31      1.0000 0.42210  0.63580  0.91560  Biso   1.000  H
  H32      1.0000 0.57790  0.36420  0.08440  Biso   1.000  H
  C39      1.0000 0.65130  0.74820  0.74420  Biso   1.000  C
  C40      1.0000 0.34870  0.25180  0.25580  Biso   1.000  C
  H33      1.0000 0.72320  0.75350  0.68770  Biso   1.000  H
  H34      1.0000 0.27680  0.24650  0.31230  Biso   1.000  H
  C41      1.0000 0.60340  0.82720  0.79270  Biso   1.000  C
  C42      1.0000 0.39660  0.17280  0.20730  Biso   1.000  C
  H35      1.0000 0.63570  0.89620  0.77600  Biso   1.000  H
  H36      1.0000 0.36430  0.10380  0.22400  Biso   1.000  H
  C43      1.0000 0.42250  0.83880  0.94920  Biso   1.000  C
  C44      1.0000 0.57750  0.16120  0.05080  Biso   1.000  C
  H37      1.0000 0.36700  0.78350  0.00480  Biso   1.000  H
  H38      1.0000 0.63300  0.21650  0.99520  Biso   1.000  H
  H39      1.0000 0.48740  0.84780  0.98570  Biso   1.000  H
  H40      1.0000 0.51260  0.15220  0.01430  Biso   1.000  H
  C45      1.0000 0.19650  0.98680  0.88110  Biso   1.000  C
  C46      1.0000 0.80350  0.01320  0.11890  Biso   1.000  C
  C47      1.0000 0.09580  0.91800  0.91480  Biso   1.000  C
  C48      1.0000 0.90420  0.08200  0.08520  Biso   1.000  C
  H41      1.0000 0.11610  0.83350  0.95360  Biso   1.000  H
  H42      1.0000 0.88390  0.16650  0.04640  Biso   1.000  H
  C49      1.0000 0.96560  0.98240  0.88740  Biso   1.000  C
  C50      1.0000 0.03440  0.01760  0.11260  Biso   1.000  C
  H43      1.0000 0.89550  0.94020  0.90750  Biso   1.000  H
  H44      1.0000 0.10450  0.05980  0.09250  Biso   1.000  H
  C51      1.0000 0.93460  0.10960  0.83000  Biso   1.000  C
  C52      1.0000 0.06540  0.89040  0.17000  Biso   1.000  C
  H45      1.0000 0.84410  0.14960  0.81480  Biso   1.000  H
  H46      1.0000 0.15590  0.85040  0.18520  Biso   1.000  H
  C53      1.0000 0.03230  0.17660  0.79590  Biso   1.000  C
  C54      1.0000 0.96770  0.82340  0.20410  Biso   1.000  C
  H47      1.0000 0.01070  0.26100  0.75690  Biso   1.000  H
  H48      1.0000 0.98930  0.73900  0.24310  Biso   1.000  H
  C55      1.0000 0.16750  0.11330  0.82180  Biso   1.000  C
  C56      1.0000 0.83250  0.88670  0.17820  Biso   1.000  C
  O11      1.0000 0.95220  0.59600  0.53840  Biso   1.000  O
  O12      1.0000 0.04780  0.40400  0.46160  Biso   1.000  O
  H49      1.0000 0.99490  0.52220  0.56970  Biso   1.000  H
  H50      1.0000 0.00510  0.47780  0.43030  Biso   1.000  H
  H51      1.0000 0.89720  0.60510  0.59240  Biso   1.000  H
  H52      1.0000 0.10280  0.39490  0.40760  Biso   1.000  H
  O13      1.0000 0.73040  0.61580  0.40160  Biso   1.000  O
  O14      1.0000 0.26960  0.38420  0.59840  Biso   1.000  O
  H53      1.0000 0.71390  0.68380  0.34640  Biso   1.000  H
  H54      1.0000 0.28610  0.31620  0.65360  Biso   1.000  H
  H55      1.0000 0.71710  0.55710  0.39270  Biso   1.000  H
  H56      1.0000 0.28290  0.44290  0.60730  Biso   1.000  H
