data_image0
_cell_length_a       8.4798
_cell_length_b       20.8033
_cell_length_c       21.2503
_cell_angle_alpha    90
_cell_angle_beta     92.601
_cell_angle_gamma    90

_symmetry_space_group_name_H-M    "P 1"
_symmetry_int_tables_number       1

loop_
  _symmetry_equiv_pos_as_xyz
  'x, y, z'

loop_
  _atom_site_label
  _atom_site_occupancy
  _atom_site_fract_x
  _atom_site_fract_y
  _atom_site_fract_z
  _atom_site_thermal_displace_type
  _atom_site_B_iso_or_equiv
  _atom_site_type_symbol
  C1       1.0000 0.32460  0.23460  0.82340  Biso   1.000  C
  C2       1.0000 0.17540  0.73460  0.67660  Biso   1.000  C
  C3       1.0000 0.67540  0.76540  0.17660  Biso   1.000  C
  C4       1.0000 0.82460  0.26540  0.32340  Biso   1.000  C
  H1       1.0000 0.37030  0.27400  0.81440  Biso   1.000  H
  H2       1.0000 0.12970  0.77400  0.68560  Biso   1.000  H
  H3       1.0000 0.62970  0.72600  0.18560  Biso   1.000  H
  H4       1.0000 0.87030  0.22600  0.31440  Biso   1.000  H
  C5       1.0000 0.22970  0.20540  0.77690  Biso   1.000  C
  C6       1.0000 0.27030  0.70540  0.72310  Biso   1.000  C
  C7       1.0000 0.77030  0.79460  0.22310  Biso   1.000  C
  C8       1.0000 0.72970  0.29460  0.27690  Biso   1.000  C
  H5       1.0000 0.21170  0.22440  0.73770  Biso   1.000  H
  H6       1.0000 0.28830  0.72440  0.76230  Biso   1.000  H
  H7       1.0000 0.78830  0.77560  0.26230  Biso   1.000  H
  H8       1.0000 0.71170  0.27560  0.23770  Biso   1.000  H
  C9       1.0000 0.16370  0.14770  0.79080  Biso   1.000  C
  C10      1.0000 0.33630  0.64770  0.70920  Biso   1.000  C
  C11      1.0000 0.83630  0.85230  0.20920  Biso   1.000  C
  C12      1.0000 0.66370  0.35230  0.29080  Biso   1.000  C
  H9       1.0000 0.09920  0.12680  0.76070  Biso   1.000  H
  H10      1.0000 0.40080  0.62680  0.73930  Biso   1.000  H
  H11      1.0000 0.90080  0.87320  0.23930  Biso   1.000  H
  H12      1.0000 0.59920  0.37320  0.26070  Biso   1.000  H
  C13      1.0000 0.19240  0.12020  0.84970  Biso   1.000  C
  C14      1.0000 0.30760  0.62020  0.65030  Biso   1.000  C
  C15      1.0000 0.80760  0.87980  0.15030  Biso   1.000  C
  C16      1.0000 0.69240  0.37980  0.34970  Biso   1.000  C
  H13      1.0000 0.14750  0.08080  0.85940  Biso   1.000  H
  H14      1.0000 0.35250  0.58080  0.64060  Biso   1.000  H
  H15      1.0000 0.85250  0.91920  0.14060  Biso   1.000  H
  H16      1.0000 0.64750  0.41920  0.35940  Biso   1.000  H
  C17      1.0000 0.28870  0.15200  0.89390  Biso   1.000  C
  C18      1.0000 0.21130  0.65200  0.60610  Biso   1.000  C
  C19      1.0000 0.71130  0.84800  0.10610  Biso   1.000  C
  C20      1.0000 0.78870  0.34800  0.39390  Biso   1.000  C
  C21      1.0000 0.32040  0.12940  0.95930  Biso   1.000  C
  C22      1.0000 0.17960  0.62940  0.54070  Biso   1.000  C
  C23      1.0000 0.67960  0.87060  0.04070  Biso   1.000  C
  C24      1.0000 0.82040  0.37060  0.45930  Biso   1.000  C
  C25      1.0000 0.27720  0.06430  0.98070  Biso   1.000  C
  C26      1.0000 0.22280  0.56430  0.51930  Biso   1.000  C
  C27      1.0000 0.72280  0.93570  0.01930  Biso   1.000  C
  C28      1.0000 0.77720  0.43570  0.48070  Biso   1.000  C
  C29      1.0000 0.19130  0.05590  0.03380  Biso   1.000  C
  C30      1.0000 0.30870  0.55590  0.46620  Biso   1.000  C
  C31      1.0000 0.80870  0.94410  0.96620  Biso   1.000  C
  C32      1.0000 0.69130  0.44410  0.53380  Biso   1.000  C
  H17      1.0000 0.16060  0.09170  0.05650  Biso   1.000  H
  H18      1.0000 0.33940  0.59170  0.44350  Biso   1.000  H
  H19      1.0000 0.83940  0.90830  0.94350  Biso   1.000  H
  H20      1.0000 0.66060  0.40830  0.55650  Biso   1.000  H
  C33      1.0000 0.15050  0.99550  0.05360  Biso   1.000  C
  C34      1.0000 0.34950  0.49550  0.44640  Biso   1.000  C
  C35      1.0000 0.84950  0.00450  0.94640  Biso   1.000  C
  C36      1.0000 0.65050  0.50450  0.55360  Biso   1.000  C
  H21      1.0000 0.09120  0.99050  0.08910  Biso   1.000  H
  H22      1.0000 0.40880  0.49050  0.41090  Biso   1.000  H
  H23      1.0000 0.90880  0.00950  0.91090  Biso   1.000  H
  H24      1.0000 0.59120  0.50950  0.58910  Biso   1.000  H
  C37      1.0000 0.19830  0.94180  0.02040  Biso   1.000  C
  C38      1.0000 0.30170  0.44180  0.47960  Biso   1.000  C
  C39      1.0000 0.80170  0.05820  0.97960  Biso   1.000  C
  C40      1.0000 0.69830  0.55820  0.52040  Biso   1.000  C
  H25      1.0000 0.16980  0.90080  0.03330  Biso   1.000  H
  H26      1.0000 0.33020  0.40080  0.46670  Biso   1.000  H
  H27      1.0000 0.83020  0.09920  0.96670  Biso   1.000  H
  H28      1.0000 0.66980  0.59920  0.53330  Biso   1.000  H
  C41      1.0000 0.28670  0.94890  0.96910  Biso   1.000  C
  C42      1.0000 0.21330  0.44890  0.53090  Biso   1.000  C
  C43      1.0000 0.71330  0.05110  0.03090  Biso   1.000  C
  C44      1.0000 0.78670  0.55110  0.46910  Biso   1.000  C
  H29      1.0000 0.32130  0.91300  0.94760  Biso   1.000  H
  H30      1.0000 0.17870  0.41300  0.55240  Biso   1.000  H
  H31      1.0000 0.67870  0.08700  0.05240  Biso   1.000  H
  H32      1.0000 0.82130  0.58700  0.44760  Biso   1.000  H
  C45      1.0000 0.32510  0.01020  0.94900  Biso   1.000  C
  C46      1.0000 0.17490  0.51020  0.55100  Biso   1.000  C
  C47      1.0000 0.67490  0.98980  0.05100  Biso   1.000  C
  C48      1.0000 0.82510  0.48980  0.44900  Biso   1.000  C
  H33      1.0000 0.38420  0.01500  0.91340  Biso   1.000  H
  H34      1.0000 0.11580  0.51500  0.58660  Biso   1.000  H
  H35      1.0000 0.61580  0.98500  0.08660  Biso   1.000  H
  H36      1.0000 0.88420  0.48500  0.41340  Biso   1.000  H
  C49      1.0000 0.21430  0.49600  0.06080  Biso   1.000  C
  C50      1.0000 0.28570  0.99600  0.43920  Biso   1.000  C
  C51      1.0000 0.78570  0.50400  0.93920  Biso   1.000  C
  C52      1.0000 0.71430  0.00400  0.56080  Biso   1.000  C
  H37      1.0000 0.20240  0.48010  0.10120  Biso   1.000  H
  H38      1.0000 0.29760  0.98010  0.39880  Biso   1.000  H
  H39      1.0000 0.79760  0.51990  0.89880  Biso   1.000  H
  H40      1.0000 0.70240  0.01990  0.60120  Biso   1.000  H
  C53      1.0000 0.15440  0.55670  0.04580  Biso   1.000  C
  C54      1.0000 0.34560  0.05670  0.45420  Biso   1.000  C
  C55      1.0000 0.84560  0.44330  0.95420  Biso   1.000  C
  C56      1.0000 0.65440  0.94330  0.54580  Biso   1.000  C
  H41      1.0000 0.10360  0.58090  0.07570  Biso   1.000  H
  H42      1.0000 0.39640  0.08090  0.42430  Biso   1.000  H
  H43      1.0000 0.89640  0.41910  0.92430  Biso   1.000  H
  H44      1.0000 0.60360  0.91910  0.57570  Biso   1.000  H
  C57      1.0000 0.17170  0.57990  0.98680  Biso   1.000  C
  C58      1.0000 0.32830  0.07990  0.51320  Biso   1.000  C
  C59      1.0000 0.82830  0.42010  0.01320  Biso   1.000  C
  C60      1.0000 0.67170  0.92010  0.48680  Biso   1.000  C
  H45      1.0000 0.13260  0.62040  0.97590  Biso   1.000  H
  H46      1.0000 0.36740  0.12040  0.52410  Biso   1.000  H
  H47      1.0000 0.86740  0.37960  0.02410  Biso   1.000  H
  H48      1.0000 0.63260  0.87960  0.47590  Biso   1.000  H
  C61      1.0000 0.24770  0.54330  0.94260  Biso   1.000  C
  C62      1.0000 0.25230  0.04330  0.55740  Biso   1.000  C
  C63      1.0000 0.75230  0.45670  0.05740  Biso   1.000  C
  C64      1.0000 0.74770  0.95670  0.44260  Biso   1.000  C
  H49      1.0000 0.26230  0.55920  0.90240  Biso   1.000  H
  H50      1.0000 0.23770  0.05920  0.59760  Biso   1.000  H
  H51      1.0000 0.73770  0.44080  0.09760  Biso   1.000  H
  H52      1.0000 0.76230  0.94080  0.40240  Biso   1.000  H
  C65      1.0000 0.30140  0.48230  0.95990  Biso   1.000  C
  C66      1.0000 0.19860  0.98230  0.54010  Biso   1.000  C
  C67      1.0000 0.69860  0.51770  0.04010  Biso   1.000  C
  C68      1.0000 0.80140  0.01770  0.45990  Biso   1.000  C
  C69      1.0000 0.37090  0.43580  0.91610  Biso   1.000  C
  C70      1.0000 0.12910  0.93580  0.58390  Biso   1.000  C
  C71      1.0000 0.62910  0.56420  0.08390  Biso   1.000  C
  C72      1.0000 0.87090  0.06420  0.41610  Biso   1.000  C
  C73      1.0000 0.37270  0.44530  0.84740  Biso   1.000  C
  C74      1.0000 0.12730  0.94530  0.65260  Biso   1.000  C
  C75      1.0000 0.62730  0.55470  0.15260  Biso   1.000  C
  C76      1.0000 0.87270  0.05470  0.34740  Biso   1.000  C
  C77      1.0000 0.46880  0.48950  0.81940  Biso   1.000  C
  C78      1.0000 0.03120  0.98950  0.68060  Biso   1.000  C
  C79      1.0000 0.53120  0.51050  0.18060  Biso   1.000  C
  C80      1.0000 0.96880  0.01050  0.31940  Biso   1.000  C
  H53      1.0000 0.52940  0.51750  0.84450  Biso   1.000  H
  H54      1.0000 0.97060  0.01750  0.65550  Biso   1.000  H
  H55      1.0000 0.47060  0.48250  0.15550  Biso   1.000  H
  H56      1.0000 0.02940  0.98250  0.34450  Biso   1.000  H
  C81      1.0000 0.47660  0.49300  0.75460  Biso   1.000  C
  C82      1.0000 0.02340  0.99300  0.74540  Biso   1.000  C
  C83      1.0000 0.52340  0.50700  0.24540  Biso   1.000  C
  C84      1.0000 0.97660  0.00700  0.25460  Biso   1.000  C
  H57      1.0000 0.54150  0.52320  0.73660  Biso   1.000  H
  H58      1.0000 0.95850  0.02320  0.76340  Biso   1.000  H
  H59      1.0000 0.45850  0.47680  0.26340  Biso   1.000  H
  H60      1.0000 0.04150  0.97680  0.23660  Biso   1.000  H
  C85      1.0000 0.38830  0.45170  0.71680  Biso   1.000  C
  C86      1.0000 0.11170  0.95170  0.78320  Biso   1.000  C
  C87      1.0000 0.61170  0.54830  0.28320  Biso   1.000  C
  C88      1.0000 0.88830  0.04830  0.21680  Biso   1.000  C
  H61      1.0000 0.39560  0.45340  0.67330  Biso   1.000  H
  H62      1.0000 0.10440  0.95340  0.82670  Biso   1.000  H
  H63      1.0000 0.60440  0.54660  0.32670  Biso   1.000  H
  H64      1.0000 0.89560  0.04660  0.17330  Biso   1.000  H
  C89      1.0000 0.28990  0.40840  0.74290  Biso   1.000  C
  C90      1.0000 0.21010  0.90840  0.75710  Biso   1.000  C
  C91      1.0000 0.71010  0.59160  0.25710  Biso   1.000  C
  C92      1.0000 0.78990  0.09160  0.24290  Biso   1.000  C
  H65      1.0000 0.22870  0.38080  0.71740  Biso   1.000  H
  H66      1.0000 0.27130  0.88080  0.78260  Biso   1.000  H
  H67      1.0000 0.77130  0.61920  0.28260  Biso   1.000  H
  H68      1.0000 0.72870  0.11920  0.21740  Biso   1.000  H
  C93      1.0000 0.28230  0.40580  0.80750  Biso   1.000  C
  C94      1.0000 0.21770  0.90580  0.69250  Biso   1.000  C
  C95      1.0000 0.71770  0.59420  0.19250  Biso   1.000  C
  C96      1.0000 0.78230  0.09420  0.30750  Biso   1.000  C
  H69      1.0000 0.21410  0.37640  0.82500  Biso   1.000  H
  H70      1.0000 0.28590  0.87640  0.67500  Biso   1.000  H
  H71      1.0000 0.78590  0.62360  0.17500  Biso   1.000  H
  H72      1.0000 0.71410  0.12360  0.32500  Biso   1.000  H
  C97      1.0000 0.36690  0.13630  0.19850  Biso   1.000  C
  C98      1.0000 0.13310  0.63630  0.30150  Biso   1.000  C
  C99      1.0000 0.63310  0.86370  0.80150  Biso   1.000  C
  C100     1.0000 0.86690  0.36370  0.69850  Biso   1.000  C
  H73      1.0000 0.41510  0.10810  0.17130  Biso   1.000  H
  H74      1.0000 0.08490  0.60810  0.32870  Biso   1.000  H
  H75      1.0000 0.58490  0.89190  0.82870  Biso   1.000  H
  H76      1.0000 0.91510  0.39190  0.67130  Biso   1.000  H
  C101     1.0000 0.30750  0.11280  0.25220  Biso   1.000  C
  C102     1.0000 0.19250  0.61280  0.24780  Biso   1.000  C
  C103     1.0000 0.69250  0.88720  0.74780  Biso   1.000  C
  C104     1.0000 0.80750  0.38720  0.75220  Biso   1.000  C
  H77      1.0000 0.31530  0.06930  0.26160  Biso   1.000  H
  H78      1.0000 0.18470  0.56930  0.23840  Biso   1.000  H
  H79      1.0000 0.68470  0.93070  0.73840  Biso   1.000  H
  H80      1.0000 0.81530  0.43070  0.76160  Biso   1.000  H
  C105     1.0000 0.23540  0.15430  0.29250  Biso   1.000  C
  C106     1.0000 0.26460  0.65430  0.20750  Biso   1.000  C
  C107     1.0000 0.76460  0.84570  0.70750  Biso   1.000  C
  C108     1.0000 0.73540  0.34570  0.79250  Biso   1.000  C
  H81      1.0000 0.19370  0.13900  0.32940  Biso   1.000  H
  H82      1.0000 0.30630  0.63900  0.17060  Biso   1.000  H
  H83      1.0000 0.80630  0.86100  0.67060  Biso   1.000  H
  H84      1.0000 0.69370  0.36100  0.82940  Biso   1.000  H
  C109     1.0000 0.22570  0.21830  0.27790  Biso   1.000  C
  C110     1.0000 0.27430  0.71830  0.22210  Biso   1.000  C
  C111     1.0000 0.77430  0.78170  0.72210  Biso   1.000  C
  C112     1.0000 0.72570  0.28170  0.77790  Biso   1.000  C
  H85      1.0000 0.17620  0.24680  0.30440  Biso   1.000  H
  H86      1.0000 0.32380  0.74680  0.19560  Biso   1.000  H
  H87      1.0000 0.82380  0.75320  0.69560  Biso   1.000  H
  H88      1.0000 0.67620  0.25320  0.80440  Biso   1.000  H
  C113     1.0000 0.29060  0.23990  0.22320  Biso   1.000  C
  C114     1.0000 0.20940  0.73990  0.27680  Biso   1.000  C
  C115     1.0000 0.70940  0.76010  0.77680  Biso   1.000  C
  C116     1.0000 0.79060  0.26010  0.72320  Biso   1.000  C
  C117     1.0000 0.28200  0.30730  0.20000  Biso   1.000  C
  C118     1.0000 0.21800  0.80730  0.30000  Biso   1.000  C
  C119     1.0000 0.71800  0.69270  0.80000  Biso   1.000  C
  C120     1.0000 0.78200  0.19270  0.70000  Biso   1.000  C
  C121     1.0000 0.18790  0.35820  0.22990  Biso   1.000  C
  C122     1.0000 0.31210  0.85820  0.27010  Biso   1.000  C
  C123     1.0000 0.81210  0.64180  0.77010  Biso   1.000  C
  C124     1.0000 0.68790  0.14180  0.72990  Biso   1.000  C
  C125     1.0000 0.21490  0.37520  0.29270  Biso   1.000  C
  C126     1.0000 0.28510  0.87520  0.20730  Biso   1.000  C
  C127     1.0000 0.78510  0.62480  0.70730  Biso   1.000  C
  C128     1.0000 0.71490  0.12480  0.79270  Biso   1.000  C
  H89      1.0000 0.29310  0.35460  0.31730  Biso   1.000  H
  H90      1.0000 0.20690  0.85460  0.18270  Biso   1.000  H
  H91      1.0000 0.70690  0.64540  0.68270  Biso   1.000  H
  H92      1.0000 0.79310  0.14540  0.81730  Biso   1.000  H
  C129     1.0000 0.12420  0.42330  0.31870  Biso   1.000  C
  C130     1.0000 0.37580  0.92330  0.18130  Biso   1.000  C
  C131     1.0000 0.87580  0.57670  0.68130  Biso   1.000  C
  C132     1.0000 0.62420  0.07670  0.81870  Biso   1.000  C
  H93      1.0000 0.14070  0.43440  0.36090  Biso   1.000  H
  H94      1.0000 0.35930  0.93440  0.13910  Biso   1.000  H
  H95      1.0000 0.85930  0.56560  0.63910  Biso   1.000  H
  H96      1.0000 0.64070  0.06560  0.86090  Biso   1.000  H
  C133     1.0000 0.01140  0.45420  0.28250  Biso   1.000  C
  C134     1.0000 0.48860  0.95420  0.21750  Biso   1.000  C
  C135     1.0000 0.98860  0.54580  0.71750  Biso   1.000  C
  C136     1.0000 0.51140  0.04580  0.78250  Biso   1.000  C
  H97      1.0000 0.95220  0.48670  0.30010  Biso   1.000  H
  H98      1.0000 0.54780  0.98670  0.19990  Biso   1.000  H
  H99      1.0000 0.04780  0.51330  0.69990  Biso   1.000  H
  H100     1.0000 0.45220  0.01330  0.80010  Biso   1.000  H
  C137     1.0000 0.98440  0.43810  0.22110  Biso   1.000  C
  C138     1.0000 0.51560  0.93810  0.27890  Biso   1.000  C
  C139     1.0000 0.01560  0.56190  0.77890  Biso   1.000  C
  C140     1.0000 0.48440  0.06190  0.72110  Biso   1.000  C
  H101     1.0000 0.90680  0.45950  0.19690  Biso   1.000  H
  H102     1.0000 0.59320  0.95950  0.30310  Biso   1.000  H
  H103     1.0000 0.09320  0.54050  0.80310  Biso   1.000  H
  H104     1.0000 0.40680  0.04050  0.69690  Biso   1.000  H
  C141     1.0000 0.07220  0.38960  0.19400  Biso   1.000  C
  C142     1.0000 0.42780  0.88960  0.30600  Biso   1.000  C
  C143     1.0000 0.92780  0.61040  0.80600  Biso   1.000  C
  C144     1.0000 0.57220  0.11040  0.69400  Biso   1.000  C
  H105     1.0000 0.05290  0.37850  0.15190  Biso   1.000  H
  H106     1.0000 0.44710  0.87850  0.34810  Biso   1.000  H
  H107     1.0000 0.94710  0.62150  0.84810  Biso   1.000  H
  H108     1.0000 0.55290  0.12150  0.65190  Biso   1.000  H
  C145     1.0000 0.80060  0.24090  0.11260  Biso   1.000  C
  C146     1.0000 0.69940  0.74090  0.38740  Biso   1.000  C
  C147     1.0000 0.19940  0.75910  0.88740  Biso   1.000  C
  C148     1.0000 0.30060  0.25910  0.61260  Biso   1.000  C
  C149     1.0000 0.95760  0.21000  0.12390  Biso   1.000  C
  C150     1.0000 0.54240  0.71000  0.37610  Biso   1.000  C
  C151     1.0000 0.04240  0.79000  0.87610  Biso   1.000  C
  C152     1.0000 0.45760  0.29000  0.62390  Biso   1.000  C
  H109     1.0000 0.94640  0.17240  0.14960  Biso   1.000  H
  H110     1.0000 0.55360  0.67240  0.35040  Biso   1.000  H
  H111     1.0000 0.05360  0.82760  0.85040  Biso   1.000  H
  H112     1.0000 0.44640  0.32760  0.64960  Biso   1.000  H
  H113     1.0000 0.02850  0.23970  0.14500  Biso   1.000  H
  H114     1.0000 0.47150  0.73970  0.35500  Biso   1.000  H
  H115     1.0000 0.97150  0.76030  0.85500  Biso   1.000  H
  H116     1.0000 0.52850  0.26030  0.64500  Biso   1.000  H
  H117     1.0000 0.99900  0.19780  0.08430  Biso   1.000  H
  H118     1.0000 0.50100  0.69780  0.41570  Biso   1.000  H
  H119     1.0000 0.00100  0.80220  0.91570  Biso   1.000  H
  H120     1.0000 0.49900  0.30220  0.58430  Biso   1.000  H
  C153     1.0000 0.83940  0.23890  0.93960  Biso   1.000  C
  C154     1.0000 0.66060  0.73890  0.56040  Biso   1.000  C
  C155     1.0000 0.16060  0.76110  0.06040  Biso   1.000  C
  C156     1.0000 0.33940  0.26110  0.43960  Biso   1.000  C
  C157     1.0000 0.07430  0.28310  0.97430  Biso   1.000  C
  C158     1.0000 0.42570  0.78310  0.52570  Biso   1.000  C
  C159     1.0000 0.92570  0.71690  0.02570  Biso   1.000  C
  C160     1.0000 0.57430  0.21690  0.47430  Biso   1.000  C
  N1       1.0000 0.35380  0.20920  0.88000  Biso   1.000  N
  N2       1.0000 0.14620  0.70920  0.62000  Biso   1.000  N
  N3       1.0000 0.64620  0.79080  0.12000  Biso   1.000  N
  N4       1.0000 0.85380  0.29080  0.38000  Biso   1.000  N
  N5       1.0000 0.38920  0.17280  0.99570  Biso   1.000  N
  N6       1.0000 0.11080  0.67280  0.50430  Biso   1.000  N
  N7       1.0000 0.61080  0.82720  0.00430  Biso   1.000  N
  N8       1.0000 0.88920  0.32720  0.49570  Biso   1.000  N
  N9       1.0000 0.28800  0.46000  0.01930  Biso   1.000  N
  N10      1.0000 0.21200  0.96000  0.48070  Biso   1.000  N
  N11      1.0000 0.71200  0.54000  0.98070  Biso   1.000  N
  N12      1.0000 0.78800  0.04000  0.51930  Biso   1.000  N
  N13      1.0000 0.41780  0.38270  0.94360  Biso   1.000  N
  N14      1.0000 0.08220  0.88270  0.55640  Biso   1.000  N
  N15      1.0000 0.58220  0.61730  0.05640  Biso   1.000  N
  N16      1.0000 0.91780  0.11730  0.44360  Biso   1.000  N
  N17      1.0000 0.35800  0.19840  0.18380  Biso   1.000  N
  N18      1.0000 0.14200  0.69840  0.31620  Biso   1.000  N
  N19      1.0000 0.64200  0.80160  0.81620  Biso   1.000  N
  N20      1.0000 0.85800  0.30160  0.68380  Biso   1.000  N
  N21      1.0000 0.35470  0.31610  0.14810  Biso   1.000  N
  N22      1.0000 0.14530  0.81610  0.35190  Biso   1.000  N
  N23      1.0000 0.64530  0.68390  0.85190  Biso   1.000  N
  N24      1.0000 0.85470  0.18390  0.64810  Biso   1.000  N
  N25      1.0000 0.71330  0.22710  0.93530  Biso   1.000  N
  N26      1.0000 0.78670  0.72710  0.56470  Biso   1.000  N
  N27      1.0000 0.28670  0.77290  0.06470  Biso   1.000  N
  N28      1.0000 0.21330  0.27290  0.43530  Biso   1.000  N
  N29      1.0000 0.98670  0.24880  0.93670  Biso   1.000  N
  N30      1.0000 0.51330  0.74880  0.56330  Biso   1.000  N
  N31      1.0000 0.01330  0.75120  0.06330  Biso   1.000  N
  N32      1.0000 0.48670  0.25120  0.43670  Biso   1.000  N
  N33      1.0000 0.16280  0.31110  0.00400  Biso   1.000  N
  N34      1.0000 0.33720  0.81110  0.49600  Biso   1.000  N
  N35      1.0000 0.83720  0.68890  0.99600  Biso   1.000  N
  N36      1.0000 0.66280  0.18890  0.50400  Biso   1.000  N
  O1       1.0000 0.41400  0.16051  0.05630  Biso   1.000  O
  O2       1.0000 0.08600  0.66051  0.44370  Biso   1.000  O
  O3       1.0000 0.58600  0.83949  0.94370  Biso   1.000  O
  O4       1.0000 0.91400  0.33949  0.55630  Biso   1.000  O
  O5       1.0000 0.47550  0.33566  0.90938  Biso   1.000  O
  O6       1.0000 0.02450  0.83566  0.59062  Biso   1.000  O
  O7       1.0000 0.52450  0.66434  0.09062  Biso   1.000  O
  O8       1.0000 0.97550  0.16434  0.40938  Biso   1.000  O
  O9       1.0000 0.35270  0.37477  0.12245  Biso   1.000  O
  O10      1.0000 0.14730  0.87477  0.37755  Biso   1.000  O
  O11      1.0000 0.64730  0.62523  0.87755  Biso   1.000  O
  O12      1.0000 0.85270  0.12523  0.62245  Biso   1.000  O
  O13      1.0000 0.50080  0.29236  0.03559  Biso   1.000  O
  O14      1.0000 0.99920  0.79236  0.46441  Biso   1.000  O
  O15      1.0000 0.49920  0.70764  0.96441  Biso   1.000  O
  O16      1.0000 0.00080  0.20764  0.53559  Biso   1.000  O
  H121     1.0000 0.58000  0.29890  0.04520  Biso   1.000  H
  H122     1.0000 0.92000  0.79890  0.45480  Biso   1.000  H
  H123     1.0000 0.42000  0.70110  0.95480  Biso   1.000  H
  H124     1.0000 0.08000  0.20110  0.54520  Biso   1.000  H
  O17      1.0000 0.68390  0.21490  0.13720  Biso   1.000  O
  O18      1.0000 0.81610  0.71490  0.36280  Biso   1.000  O
  O19      1.0000 0.31610  0.78510  0.86280  Biso   1.000  O
  O20      1.0000 0.18390  0.28510  0.63720  Biso   1.000  O
  O21      1.0000 0.79290  0.29060  0.08020  Biso   1.000  O
  O22      1.0000 0.70710  0.79060  0.41980  Biso   1.000  O
  O23      1.0000 0.20710  0.70940  0.91980  Biso   1.000  O
  O24      1.0000 0.29290  0.20940  0.58020  Biso   1.000  O
  Cu1      1.0000 0.46569  0.25177  0.95349  Biso   1.000  Cu
  Cu2      1.0000 0.03431  0.75177  0.54651  Biso   1.000  Cu
  Cu3      1.0000 0.53431  0.74823  0.04651  Biso   1.000  Cu
  Cu4      1.0000 0.96569  0.24823  0.45349  Biso   1.000  Cu
  Cu5      1.0000 0.37557  0.37164  0.03264  Biso   1.000  Cu
  Cu6      1.0000 0.12443  0.87164  0.46736  Biso   1.000  Cu
  Cu7      1.0000 0.62443  0.62836  0.96736  Biso   1.000  Cu
  Cu8      1.0000 0.87557  0.12836  0.53264  Biso   1.000  Cu
  Cu9      1.0000 0.44595  0.23920  0.10765  Biso   1.000  Cu
  Cu10     1.0000 0.05405  0.73920  0.39235  Biso   1.000  Cu
  Cu11     1.0000 0.55405  0.76080  0.89235  Biso   1.000  Cu
  Cu12     1.0000 0.94595  0.26080  0.60765  Biso   1.000  Cu
