data_image0
_cell_length_a       20.842
_cell_length_b       11.575
_cell_length_c       7.352
_cell_angle_alpha    90
_cell_angle_beta     97.97
_cell_angle_gamma    90

_symmetry_space_group_name_H-M    "P 1"
_symmetry_int_tables_number       1

loop_
  _symmetry_equiv_pos_as_xyz
  'x, y, z'

loop_
  _atom_site_label
  _atom_site_occupancy
  _atom_site_fract_x
  _atom_site_fract_y
  _atom_site_fract_z
  _atom_site_thermal_displace_type
  _atom_site_B_iso_or_equiv
  _atom_site_type_symbol
  Cu1      1.0000 0.50000  0.50000  0.50000  Biso   1.000  Cu
  Cu2      1.0000 0.00000  0.00000  0.50000  Biso   1.000  Cu
  Cu3      1.0000 0.50000  0.50000  0.00000  Biso   1.000  Cu
  Cu4      1.0000 0.00000  0.00000  0.00000  Biso   1.000  Cu
  N1       1.0000 0.50000  0.58240  0.25000  Biso   1.000  N
  N2       1.0000 0.00000  0.08240  0.25000  Biso   1.000  N
  N3       1.0000 0.50000  0.41760  0.75000  Biso   1.000  N
  N4       1.0000 0.00000  0.91760  0.75000  Biso   1.000  N
  N5       1.0000 0.50000  0.68760  0.25000  Biso   1.000  N
  N6       1.0000 0.00000  0.18760  0.25000  Biso   1.000  N
  N7       1.0000 0.50000  0.31240  0.75000  Biso   1.000  N
  N8       1.0000 0.00000  0.81240  0.75000  Biso   1.000  N
  N9       1.0000 0.50000  0.78560  0.25000  Biso   1.000  N
  N10      1.0000 0.00000  0.28560  0.25000  Biso   1.000  N
  N11      1.0000 0.50000  0.21440  0.75000  Biso   1.000  N
  N12      1.0000 0.00000  0.71440  0.75000  Biso   1.000  N
  O1       1.0000 0.53100  0.68160  0.88150  Biso   1.000  O
  O2       1.0000 0.03100  0.18160  0.88150  Biso   1.000  O
  O3       1.0000 0.46900  0.68160  0.61850  Biso   1.000  O
  O4       1.0000 0.96900  0.18160  0.61850  Biso   1.000  O
  O5       1.0000 0.46900  0.31840  0.11850  Biso   1.000  O
  O6       1.0000 0.96900  0.81840  0.11850  Biso   1.000  O
  O7       1.0000 0.53100  0.31840  0.38150  Biso   1.000  O
  O8       1.0000 0.03100  0.81840  0.38150  Biso   1.000  O
  N13      1.0000 0.50000  0.73670  0.75000  Biso   1.000  N
  N14      1.0000 0.00000  0.23670  0.75000  Biso   1.000  N
  N15      1.0000 0.50000  0.26330  0.25000  Biso   1.000  N
  N16      1.0000 0.00000  0.76330  0.25000  Biso   1.000  N
  O9       1.0000 0.50000  0.83810  0.75000  Biso   1.000  O
  O10      1.0000 0.00000  0.33810  0.75000  Biso   1.000  O
  O11      1.0000 0.50000  0.16190  0.25000  Biso   1.000  O
  O12      1.0000 0.00000  0.66190  0.25000  Biso   1.000  O
  N17      1.0000 0.40410  0.47000  0.42860  Biso   1.000  N
  N18      1.0000 0.90410  0.97000  0.42860  Biso   1.000  N
  N19      1.0000 0.59590  0.47000  0.07140  Biso   1.000  N
  N20      1.0000 0.09590  0.97000  0.07140  Biso   1.000  N
  N21      1.0000 0.59590  0.53000  0.57140  Biso   1.000  N
  N22      1.0000 0.09590  0.03000  0.57140  Biso   1.000  N
  N23      1.0000 0.40410  0.53000  0.92860  Biso   1.000  N
  N24      1.0000 0.90410  0.03000  0.92860  Biso   1.000  N
  C1       1.0000 0.37940  0.36400  0.42630  Biso   1.000  C
  C2       1.0000 0.87940  0.86400  0.42630  Biso   1.000  C
  C3       1.0000 0.62060  0.36400  0.07370  Biso   1.000  C
  C4       1.0000 0.12060  0.86400  0.07370  Biso   1.000  C
  C5       1.0000 0.62060  0.63600  0.57370  Biso   1.000  C
  C6       1.0000 0.12060  0.13600  0.57370  Biso   1.000  C
  C7       1.0000 0.37940  0.63600  0.92630  Biso   1.000  C
  C8       1.0000 0.87940  0.13600  0.92630  Biso   1.000  C
  H1       1.0000 0.40640  0.30380  0.47260  Biso   1.000  H
  H2       1.0000 0.90640  0.80380  0.47260  Biso   1.000  H
  H3       1.0000 0.59360  0.30380  0.02740  Biso   1.000  H
  H4       1.0000 0.09360  0.80380  0.02740  Biso   1.000  H
  H5       1.0000 0.59360  0.69620  0.52740  Biso   1.000  H
  H6       1.0000 0.09360  0.19620  0.52740  Biso   1.000  H
  H7       1.0000 0.40640  0.69620  0.97260  Biso   1.000  H
  H8       1.0000 0.90640  0.19620  0.97260  Biso   1.000  H
  C9       1.0000 0.31600  0.33830  0.35920  Biso   1.000  C
  C10      1.0000 0.81600  0.83830  0.35920  Biso   1.000  C
  C11      1.0000 0.68400  0.33830  0.14080  Biso   1.000  C
  C12      1.0000 0.18400  0.83830  0.14080  Biso   1.000  C
  C13      1.0000 0.68400  0.66170  0.64080  Biso   1.000  C
  C14      1.0000 0.18400  0.16170  0.64080  Biso   1.000  C
  C15      1.0000 0.31600  0.66170  0.85920  Biso   1.000  C
  C16      1.0000 0.81600  0.16170  0.85920  Biso   1.000  C
  H9       1.0000 0.30070  0.26280  0.35860  Biso   1.000  H
  H10      1.0000 0.80070  0.76280  0.35860  Biso   1.000  H
  H11      1.0000 0.69930  0.26280  0.14140  Biso   1.000  H
  H12      1.0000 0.19930  0.76280  0.14140  Biso   1.000  H
  H13      1.0000 0.69930  0.73720  0.64140  Biso   1.000  H
  H14      1.0000 0.19930  0.23720  0.64140  Biso   1.000  H
  H15      1.0000 0.30070  0.73720  0.85860  Biso   1.000  H
  H16      1.0000 0.80070  0.23720  0.85860  Biso   1.000  H
  C17      1.0000 0.27600  0.42740  0.29340  Biso   1.000  C
  C18      1.0000 0.77600  0.92740  0.29340  Biso   1.000  C
  C19      1.0000 0.72400  0.42740  0.20660  Biso   1.000  C
  C20      1.0000 0.22400  0.92740  0.20660  Biso   1.000  C
  C21      1.0000 0.72400  0.57260  0.70660  Biso   1.000  C
  C22      1.0000 0.22400  0.07260  0.70660  Biso   1.000  C
  C23      1.0000 0.27600  0.57260  0.79340  Biso   1.000  C
  C24      1.0000 0.77600  0.07260  0.79340  Biso   1.000  C
  C25      1.0000 0.29990  0.53810  0.30680  Biso   1.000  C
  C26      1.0000 0.79990  0.03810  0.30680  Biso   1.000  C
  C27      1.0000 0.70010  0.53810  0.19320  Biso   1.000  C
  C28      1.0000 0.20010  0.03810  0.19320  Biso   1.000  C
  C29      1.0000 0.70010  0.46190  0.69320  Biso   1.000  C
  C30      1.0000 0.20010  0.96190  0.69320  Biso   1.000  C
  C31      1.0000 0.29990  0.46190  0.80680  Biso   1.000  C
  C32      1.0000 0.79990  0.96190  0.80680  Biso   1.000  C
  H17      1.0000 0.27330  0.60060  0.26900  Biso   1.000  H
  H18      1.0000 0.77330  0.10060  0.26900  Biso   1.000  H
  H19      1.0000 0.72670  0.60060  0.23100  Biso   1.000  H
  H20      1.0000 0.22670  0.10060  0.23100  Biso   1.000  H
  H21      1.0000 0.72670  0.39940  0.73100  Biso   1.000  H
  H22      1.0000 0.22670  0.89940  0.73100  Biso   1.000  H
  H23      1.0000 0.27330  0.39940  0.76900  Biso   1.000  H
  H24      1.0000 0.77330  0.89940  0.76900  Biso   1.000  H
  C33      1.0000 0.36350  0.55490  0.37660  Biso   1.000  C
  C34      1.0000 0.86350  0.05490  0.37660  Biso   1.000  C
  C35      1.0000 0.63650  0.55490  0.12340  Biso   1.000  C
  C36      1.0000 0.13650  0.05490  0.12340  Biso   1.000  C
  C37      1.0000 0.63650  0.44510  0.62340  Biso   1.000  C
  C38      1.0000 0.13650  0.94510  0.62340  Biso   1.000  C
  C39      1.0000 0.36350  0.44510  0.87660  Biso   1.000  C
  C40      1.0000 0.86350  0.94510  0.87660  Biso   1.000  C
  H25      1.0000 0.37900  0.63030  0.38800  Biso   1.000  H
  H26      1.0000 0.87900  0.13030  0.38800  Biso   1.000  H
  H27      1.0000 0.62100  0.63030  0.11200  Biso   1.000  H
  H28      1.0000 0.12100  0.13030  0.11200  Biso   1.000  H
  H29      1.0000 0.62100  0.36970  0.61200  Biso   1.000  H
  H30      1.0000 0.12100  0.86970  0.61200  Biso   1.000  H
  H31      1.0000 0.37900  0.36970  0.88800  Biso   1.000  H
  H32      1.0000 0.87900  0.86970  0.88800  Biso   1.000  H
  C41      1.0000 0.20580  0.40130  0.21630  Biso   1.000  C
  C42      1.0000 0.70580  0.90130  0.21630  Biso   1.000  C
  C43      1.0000 0.79420  0.40130  0.28370  Biso   1.000  C
  C44      1.0000 0.29420  0.90130  0.28370  Biso   1.000  C
  C45      1.0000 0.79420  0.59870  0.78370  Biso   1.000  C
  C46      1.0000 0.29420  0.09870  0.78370  Biso   1.000  C
  C47      1.0000 0.20580  0.59870  0.71630  Biso   1.000  C
  C48      1.0000 0.70580  0.09870  0.71630  Biso   1.000  C
  O13      1.0000 0.18220  0.30880  0.23410  Biso   1.000  O
  O14      1.0000 0.68220  0.80880  0.23410  Biso   1.000  O
  O15      1.0000 0.81780  0.30880  0.26590  Biso   1.000  O
  O16      1.0000 0.31780  0.80880  0.26590  Biso   1.000  O
  O17      1.0000 0.81780  0.69120  0.76590  Biso   1.000  O
  O18      1.0000 0.31780  0.19120  0.76590  Biso   1.000  O
  O19      1.0000 0.18220  0.69120  0.73410  Biso   1.000  O
  O20      1.0000 0.68220  0.19120  0.73410  Biso   1.000  O
  O21      1.0000 0.17490  0.49080  0.13800  Biso   1.000  O
  O22      1.0000 0.67490  0.99080  0.13800  Biso   1.000  O
  O23      1.0000 0.82510  0.49080  0.36200  Biso   1.000  O
  O24      1.0000 0.32510  0.99080  0.36200  Biso   1.000  O
  O25      1.0000 0.82510  0.50920  0.86200  Biso   1.000  O
  O26      1.0000 0.32510  0.00920  0.86200  Biso   1.000  O
  O27      1.0000 0.17490  0.50920  0.63800  Biso   1.000  O
  O28      1.0000 0.67490  0.00920  0.63800  Biso   1.000  O
  C49      1.0000 0.10820  0.47190  0.05510  Biso   1.000  C
  C50      1.0000 0.60820  0.97190  0.05510  Biso   1.000  C
  C51      1.0000 0.89180  0.47190  0.44490  Biso   1.000  C
  C52      1.0000 0.39180  0.97190  0.44490  Biso   1.000  C
  C53      1.0000 0.89180  0.52810  0.94490  Biso   1.000  C
  C54      1.0000 0.39180  0.02810  0.94490  Biso   1.000  C
  C55      1.0000 0.10820  0.52810  0.55510  Biso   1.000  C
  C56      1.0000 0.60820  0.02810  0.55510  Biso   1.000  C
  H33      1.0000 0.10770  0.42920  0.94290  Biso   1.000  H
  H34      1.0000 0.60770  0.92920  0.94290  Biso   1.000  H
  H35      1.0000 0.89230  0.42920  0.55710  Biso   1.000  H
  H36      1.0000 0.39230  0.92920  0.55710  Biso   1.000  H
  H37      1.0000 0.89230  0.57080  0.05710  Biso   1.000  H
  H38      1.0000 0.39230  0.07080  0.05710  Biso   1.000  H
  H39      1.0000 0.10770  0.57080  0.44290  Biso   1.000  H
  H40      1.0000 0.60770  0.07080  0.44290  Biso   1.000  H
  H41      1.0000 0.08720  0.54500  0.02920  Biso   1.000  H
  H42      1.0000 0.58720  0.04500  0.02920  Biso   1.000  H
  H43      1.0000 0.91280  0.54500  0.47080  Biso   1.000  H
  H44      1.0000 0.41280  0.04500  0.47080  Biso   1.000  H
  H45      1.0000 0.91280  0.45500  0.97080  Biso   1.000  H
  H46      1.0000 0.41280  0.95500  0.97080  Biso   1.000  H
  H47      1.0000 0.08720  0.45500  0.52920  Biso   1.000  H
  H48      1.0000 0.58720  0.95500  0.52920  Biso   1.000  H
  H49      1.0000 0.08570  0.42890  0.13840  Biso   1.000  H
  H50      1.0000 0.58570  0.92890  0.13840  Biso   1.000  H
  H51      1.0000 0.91430  0.42890  0.36160  Biso   1.000  H
  H52      1.0000 0.41430  0.92890  0.36160  Biso   1.000  H
  H53      1.0000 0.91430  0.57110  0.86160  Biso   1.000  H
  H54      1.0000 0.41430  0.07110  0.86160  Biso   1.000  H
  H55      1.0000 0.08570  0.57110  0.63840  Biso   1.000  H
  H56      1.0000 0.58570  0.07110  0.63840  Biso   1.000  H
