data_image0
_cell_length_a       3.9932
_cell_length_b       21.751
_cell_length_c       11.382
_cell_angle_alpha    90
_cell_angle_beta     91.35
_cell_angle_gamma    90

_symmetry_space_group_name_H-M    "P 1"
_symmetry_int_tables_number       1

loop_
  _symmetry_equiv_pos_as_xyz
  'x, y, z'

loop_
  _atom_site_label
  _atom_site_occupancy
  _atom_site_fract_x
  _atom_site_fract_y
  _atom_site_fract_z
  _atom_site_thermal_displace_type
  _atom_site_B_iso_or_equiv
  _atom_site_type_symbol
  Cu1      1.0000 0.00000  0.00000  0.00000  Biso   1.000  Cu
  Cu2      1.0000 0.50000  0.50000  0.50000  Biso   1.000  Cu
  N1       1.0000 0.41630  0.01540  0.09510  Biso   1.000  N
  N2       1.0000 0.08370  0.51540  0.40490  Biso   1.000  N
  N3       1.0000 0.58370  0.98460  0.90490  Biso   1.000  N
  N4       1.0000 0.91630  0.48460  0.59510  Biso   1.000  N
  N5       1.0000 0.42190  0.00700  0.20250  Biso   1.000  N
  N6       1.0000 0.07810  0.50700  0.29750  Biso   1.000  N
  N7       1.0000 0.57810  0.99300  0.79750  Biso   1.000  N
  N8       1.0000 0.92190  0.49300  0.70250  Biso   1.000  N
  N9       1.0000 0.46510  0.99750  0.29950  Biso   1.000  N
  N10      1.0000 0.03490  0.49750  0.20050  Biso   1.000  N
  N11      1.0000 0.53490  0.00250  0.70050  Biso   1.000  N
  N12      1.0000 0.96510  0.50250  0.79950  Biso   1.000  N
  N13      1.0000 0.96460  0.09086  0.95420  Biso   1.000  N
  N14      1.0000 0.53540  0.59086  0.54580  Biso   1.000  N
  N15      1.0000 0.03540  0.90914  0.04580  Biso   1.000  N
  N16      1.0000 0.46460  0.40914  0.45420  Biso   1.000  N
  C1       1.0000 0.02010  0.11070  0.84550  Biso   1.000  C
  C2       1.0000 0.47990  0.61070  0.65450  Biso   1.000  C
  C3       1.0000 0.97990  0.88930  0.15450  Biso   1.000  C
  C4       1.0000 0.52010  0.38930  0.34550  Biso   1.000  C
  H1       1.0000 0.09650  0.08260  0.79070  Biso   1.000  H
  H2       1.0000 0.40350  0.58260  0.70930  Biso   1.000  H
  H3       1.0000 0.90350  0.91740  0.20930  Biso   1.000  H
  H4       1.0000 0.59650  0.41740  0.29070  Biso   1.000  H
  C5       1.0000 0.97020  0.17050  0.81060  Biso   1.000  C
  C6       1.0000 0.52980  0.67050  0.68940  Biso   1.000  C
  C7       1.0000 0.02980  0.82950  0.18940  Biso   1.000  C
  C8       1.0000 0.47020  0.32950  0.31060  Biso   1.000  C
  H5       1.0000 0.01700  0.18240  0.73420  Biso   1.000  H
  H6       1.0000 0.48300  0.68240  0.76580  Biso   1.000  H
  H7       1.0000 0.98300  0.81760  0.26580  Biso   1.000  H
  H8       1.0000 0.51700  0.31760  0.23420  Biso   1.000  H
  C9       1.0000 0.85080  0.21250  0.88900  Biso   1.000  C
  C10      1.0000 0.64920  0.71250  0.61100  Biso   1.000  C
  C11      1.0000 0.14920  0.78750  0.11100  Biso   1.000  C
  C12      1.0000 0.35080  0.28750  0.38900  Biso   1.000  C
  C13      1.0000 0.79680  0.19300  0.00230  Biso   1.000  C
  C14      1.0000 0.70320  0.69300  0.49770  Biso   1.000  C
  C15      1.0000 0.20320  0.80700  0.99770  Biso   1.000  C
  C16      1.0000 0.29680  0.30700  0.50230  Biso   1.000  C
  H9       1.0000 0.72080  0.22030  0.05880  Biso   1.000  H
  H10      1.0000 0.77920  0.72030  0.44120  Biso   1.000  H
  H11      1.0000 0.27920  0.77970  0.94120  Biso   1.000  H
  H12      1.0000 0.22080  0.27970  0.55880  Biso   1.000  H
  C17      1.0000 0.85770  0.13250  0.03000  Biso   1.000  C
  C18      1.0000 0.64230  0.63250  0.47000  Biso   1.000  C
  C19      1.0000 0.14230  0.86750  0.97000  Biso   1.000  C
  C20      1.0000 0.35770  0.36750  0.53000  Biso   1.000  C
  H13      1.0000 0.82170  0.11990  0.10680  Biso   1.000  H
  H14      1.0000 0.67830  0.61990  0.39320  Biso   1.000  H
  H15      1.0000 0.17830  0.88010  0.89320  Biso   1.000  H
  H16      1.0000 0.32170  0.38010  0.60680  Biso   1.000  H
  C21      1.0000 0.78360  0.27660  0.84800  Biso   1.000  C
  C22      1.0000 0.71640  0.77660  0.65200  Biso   1.000  C
  C23      1.0000 0.21640  0.72340  0.15200  Biso   1.000  C
  C24      1.0000 0.28360  0.22340  0.34800  Biso   1.000  C
  O1       1.0000 0.64590  0.31078  0.92940  Biso   1.000  O
  O2       1.0000 0.85410  0.81078  0.57060  Biso   1.000  O
  O3       1.0000 0.35410  0.68922  0.07060  Biso   1.000  O
  O4       1.0000 0.14590  0.18922  0.42940  Biso   1.000  O
  O5       1.0000 0.84180  0.29409  0.75050  Biso   1.000  O
  O6       1.0000 0.65820  0.79409  0.74950  Biso   1.000  O
  O7       1.0000 0.15820  0.70591  0.24950  Biso   1.000  O
  O8       1.0000 0.34180  0.20591  0.25050  Biso   1.000  O
  C25      1.0000 0.55280  0.37370  0.89500  Biso   1.000  C
  C26      1.0000 0.94720  0.87370  0.60500  Biso   1.000  C
  C27      1.0000 0.44720  0.62630  0.10500  Biso   1.000  C
  C28      1.0000 0.05280  0.12630  0.39500  Biso   1.000  C
  H17      1.0000 0.37610  0.37290  0.83510  Biso   1.000  H
  H18      1.0000 0.12390  0.87290  0.66490  Biso   1.000  H
  H19      1.0000 0.62390  0.62710  0.16490  Biso   1.000  H
  H20      1.0000 0.87610  0.12710  0.33510  Biso   1.000  H
  H21      1.0000 0.74450  0.39510  0.86380  Biso   1.000  H
  H22      1.0000 0.75550  0.89510  0.63620  Biso   1.000  H
  H23      1.0000 0.25550  0.60490  0.13620  Biso   1.000  H
  H24      1.0000 0.24450  0.10490  0.36380  Biso   1.000  H
  C29      1.0000 0.43470  0.40550  0.00250  Biso   1.000  C
  C30      1.0000 0.06530  0.90550  0.49750  Biso   1.000  C
  C31      1.0000 0.56530  0.59450  0.99750  Biso   1.000  C
  C32      1.0000 0.93470  0.09450  0.50250  Biso   1.000  C
  H25      1.0000 0.35730  0.44600  0.98220  Biso   1.000  H
  H26      1.0000 0.14270  0.94600  0.51780  Biso   1.000  H
  H27      1.0000 0.64270  0.55400  0.01780  Biso   1.000  H
  H28      1.0000 0.85730  0.05400  0.48220  Biso   1.000  H
  H29      1.0000 0.61620  0.40850  0.05910  Biso   1.000  H
  H30      1.0000 0.88380  0.90850  0.44090  Biso   1.000  H
  H31      1.0000 0.38380  0.59150  0.94090  Biso   1.000  H
  H32      1.0000 0.11620  0.09150  0.55910  Biso   1.000  H
  H33      1.0000 0.25470  0.38240  0.03550  Biso   1.000  H
  H34      1.0000 0.24530  0.88240  0.46450  Biso   1.000  H
  H35      1.0000 0.74530  0.61760  0.96450  Biso   1.000  H
  H36      1.0000 0.75470  0.11760  0.53550  Biso   1.000  H
  N17      1.0000 0.13770  0.02670  0.15910  Biso   1.000  N
  N18      1.0000 0.36230  0.52670  0.34090  Biso   1.000  N
  N19      1.0000 0.86230  0.97330  0.84090  Biso   1.000  N
  N20      1.0000 0.63770  0.47330  0.65910  Biso   1.000  N
  N21      1.0000 0.43870  0.02240  0.18010  Biso   1.000  N
  N22      1.0000 0.06130  0.52240  0.31990  Biso   1.000  N
  N23      1.0000 0.56130  0.97760  0.81990  Biso   1.000  N
  N24      1.0000 0.93870  0.47760  0.68010  Biso   1.000  N
  N25      1.0000 0.71070  0.02100  0.20880  Biso   1.000  N
  N26      1.0000 0.78930  0.52100  0.29120  Biso   1.000  N
  N27      1.0000 0.28930  0.97900  0.79120  Biso   1.000  N
  N28      1.0000 0.21070  0.47900  0.70880  Biso   1.000  N
