data_image0
_cell_length_a       13.5037
_cell_length_b       16.8086
_cell_length_c       6.7657
_cell_angle_alpha    90
_cell_angle_beta     119.501
_cell_angle_gamma    90

_symmetry_space_group_name_H-M    "P 1"
_symmetry_int_tables_number       1

loop_
  _symmetry_equiv_pos_as_xyz
  'x, y, z'

loop_
  _atom_site_label
  _atom_site_occupancy
  _atom_site_fract_x
  _atom_site_fract_y
  _atom_site_fract_z
  _atom_site_thermal_displace_type
  _atom_site_B_iso_or_equiv
  _atom_site_type_symbol
  Cu1      1.0000 0.67267  0.46157  0.61306  Biso   1.000  Cu
  Cu2      1.0000 0.67267  0.53843  0.11306  Biso   1.000  Cu
  Cu3      1.0000 0.17267  0.96157  0.61306  Biso   1.000  Cu
  Cu4      1.0000 0.17267  0.03843  0.11306  Biso   1.000  Cu
  Cl1      1.0000 0.09748  0.59484  0.08180  Biso   1.000  Cl
  Cl2      1.0000 0.09748  0.40516  0.58180  Biso   1.000  Cl
  Cl3      1.0000 0.59748  0.09484  0.08180  Biso   1.000  Cl
  Cl4      1.0000 0.59748  0.90516  0.58180  Biso   1.000  Cl
  O1       1.0000 0.58740  0.55110  0.43560  Biso   1.000  O
  O2       1.0000 0.58740  0.44890  0.93560  Biso   1.000  O
  O3       1.0000 0.08740  0.05110  0.43560  Biso   1.000  O
  O4       1.0000 0.08740  0.94890  0.93560  Biso   1.000  O
  N1       1.0000 0.54500  0.38900  0.41990  Biso   1.000  N
  N2       1.0000 0.54500  0.61100  0.91990  Biso   1.000  N
  N3       1.0000 0.04500  0.88900  0.41990  Biso   1.000  N
  N4       1.0000 0.04500  0.11100  0.91990  Biso   1.000  N
  N5       1.0000 0.77960  0.37430  0.81740  Biso   1.000  N
  N6       1.0000 0.77960  0.62570  0.31740  Biso   1.000  N
  N7       1.0000 0.27960  0.87430  0.81740  Biso   1.000  N
  N8       1.0000 0.27960  0.12570  0.31740  Biso   1.000  N
  H1       1.0000 0.75900  0.37700  0.90800  Biso   1.000  H
  H2       1.0000 0.75900  0.62300  0.40800  Biso   1.000  H
  H3       1.0000 0.25900  0.87700  0.90800  Biso   1.000  H
  H4       1.0000 0.25900  0.12300  0.40800  Biso   1.000  H
  N9       1.0000 0.76090  0.53750  0.87530  Biso   1.000  N
  N10      1.0000 0.76090  0.46250  0.37530  Biso   1.000  N
  N11      1.0000 0.26090  0.03750  0.87530  Biso   1.000  N
  N12      1.0000 0.26090  0.96250  0.37530  Biso   1.000  N
  N13      1.0000 0.79330  0.59850  0.83980  Biso   1.000  N
  N14      1.0000 0.79330  0.40150  0.33980  Biso   1.000  N
  N15      1.0000 0.29330  0.09850  0.83980  Biso   1.000  N
  N16      1.0000 0.29330  0.90150  0.33980  Biso   1.000  N
  N17      1.0000 0.82530  0.65870  0.80860  Biso   1.000  N
  N18      1.0000 0.82530  0.34130  0.30860  Biso   1.000  N
  N19      1.0000 0.32530  0.15870  0.80860  Biso   1.000  N
  N20      1.0000 0.32530  0.84130  0.30860  Biso   1.000  N
  C1       1.0000 0.47660  0.55830  0.35540  Biso   1.000  C
  C2       1.0000 0.47660  0.44170  0.85540  Biso   1.000  C
  C3       1.0000 0.97660  0.05830  0.35540  Biso   1.000  C
  C4       1.0000 0.97660  0.94170  0.85540  Biso   1.000  C
  C5       1.0000 0.42650  0.63450  0.31480  Biso   1.000  C
  C6       1.0000 0.42650  0.36550  0.81480  Biso   1.000  C
  C7       1.0000 0.92650  0.13450  0.31480  Biso   1.000  C
  C8       1.0000 0.92650  0.86550  0.81480  Biso   1.000  C
  H5       1.0000 0.47260  0.67900  0.34500  Biso   1.000  H
  H6       1.0000 0.47260  0.32100  0.84500  Biso   1.000  H
  H7       1.0000 0.97260  0.17900  0.34500  Biso   1.000  H
  H8       1.0000 0.97260  0.82100  0.84500  Biso   1.000  H
  C9       1.0000 0.31230  0.64500  0.23250  Biso   1.000  C
  C10      1.0000 0.31230  0.35500  0.73250  Biso   1.000  C
  C11      1.0000 0.81230  0.14500  0.23250  Biso   1.000  C
  C12      1.0000 0.81230  0.85500  0.73250  Biso   1.000  C
  H9       1.0000 0.28170  0.69590  0.20830  Biso   1.000  H
  H10      1.0000 0.28170  0.30410  0.70830  Biso   1.000  H
  H11      1.0000 0.78170  0.19590  0.20830  Biso   1.000  H
  H12      1.0000 0.78170  0.80410  0.70830  Biso   1.000  H
  C13      1.0000 0.24260  0.57900  0.18550  Biso   1.000  C
  C14      1.0000 0.24260  0.42100  0.68550  Biso   1.000  C
  C15      1.0000 0.74260  0.07900  0.18550  Biso   1.000  C
  C16      1.0000 0.74260  0.92100  0.68550  Biso   1.000  C
  C17      1.0000 0.28580  0.50450  0.21520  Biso   1.000  C
  C18      1.0000 0.28580  0.49550  0.71520  Biso   1.000  C
  C19      1.0000 0.78580  0.00450  0.21520  Biso   1.000  C
  C20      1.0000 0.78580  0.99550  0.71520  Biso   1.000  C
  H13      1.0000 0.23740  0.46080  0.17760  Biso   1.000  H
  H14      1.0000 0.23740  0.53920  0.67760  Biso   1.000  H
  H15      1.0000 0.73740  0.96080  0.17760  Biso   1.000  H
  H16      1.0000 0.73740  0.03920  0.67760  Biso   1.000  H
  C21      1.0000 0.40250  0.49250  0.30180  Biso   1.000  C
  C22      1.0000 0.40250  0.50750  0.80180  Biso   1.000  C
  C23      1.0000 0.90250  0.99250  0.30180  Biso   1.000  C
  C24      1.0000 0.90250  0.00750  0.80180  Biso   1.000  C
  C25      1.0000 0.44330  0.41200  0.32030  Biso   1.000  C
  C26      1.0000 0.44330  0.58800  0.82030  Biso   1.000  C
  C27      1.0000 0.94330  0.91200  0.32030  Biso   1.000  C
  C28      1.0000 0.94330  0.08800  0.82030  Biso   1.000  C
  H17      1.0000 0.38810  0.37280  0.25080  Biso   1.000  H
  H18      1.0000 0.38810  0.62720  0.75080  Biso   1.000  H
  H19      1.0000 0.88810  0.87280  0.25080  Biso   1.000  H
  H20      1.0000 0.88810  0.12720  0.75080  Biso   1.000  H
  C29      1.0000 0.56680  0.30410  0.39770  Biso   1.000  C
  C30      1.0000 0.56680  0.69590  0.89770  Biso   1.000  C
  C31      1.0000 0.06680  0.80410  0.39770  Biso   1.000  C
  C32      1.0000 0.06680  0.19590  0.89770  Biso   1.000  C
  H21      1.0000 0.60360  0.29980  0.30600  Biso   1.000  H
  H22      1.0000 0.60360  0.70020  0.80600  Biso   1.000  H
  H23      1.0000 0.10360  0.79980  0.30600  Biso   1.000  H
  H24      1.0000 0.10360  0.20020  0.80600  Biso   1.000  H
  H25      1.0000 0.49470  0.27620  0.31930  Biso   1.000  H
  H26      1.0000 0.49470  0.72380  0.81930  Biso   1.000  H
  H27      1.0000 0.99470  0.77620  0.31930  Biso   1.000  H
  H28      1.0000 0.99470  0.22380  0.81930  Biso   1.000  H
  C33      1.0000 0.64050  0.26500  0.62400  Biso   1.000  C
  C34      1.0000 0.64050  0.73500  0.12400  Biso   1.000  C
  C35      1.0000 0.14050  0.76500  0.62400  Biso   1.000  C
  C36      1.0000 0.14050  0.23500  0.12400  Biso   1.000  C
  H29      1.0000 0.60900  0.27630  0.72260  Biso   1.000  H
  H30      1.0000 0.60900  0.72370  0.22260  Biso   1.000  H
  H31      1.0000 0.10900  0.77630  0.72260  Biso   1.000  H
  H32      1.0000 0.10900  0.22370  0.22260  Biso   1.000  H
  H33      1.0000 0.63770  0.20790  0.60190  Biso   1.000  H
  H34      1.0000 0.63770  0.79210  0.10190  Biso   1.000  H
  H35      1.0000 0.13770  0.70790  0.60190  Biso   1.000  H
  H36      1.0000 0.13770  0.29210  0.10190  Biso   1.000  H
  C37      1.0000 0.76160  0.29090  0.74000  Biso   1.000  C
  C38      1.0000 0.76160  0.70910  0.24000  Biso   1.000  C
  C39      1.0000 0.26160  0.79090  0.74000  Biso   1.000  C
  C40      1.0000 0.26160  0.20910  0.24000  Biso   1.000  C
  H37      1.0000 0.80490  0.25670  0.87030  Biso   1.000  H
  H38      1.0000 0.80490  0.74330  0.37030  Biso   1.000  H
  H39      1.0000 0.30490  0.75670  0.87030  Biso   1.000  H
  H40      1.0000 0.30490  0.24330  0.37030  Biso   1.000  H
  H41      1.0000 0.79130  0.28370  0.63670  Biso   1.000  H
  H42      1.0000 0.79130  0.71630  0.13670  Biso   1.000  H
  H43      1.0000 0.29130  0.78370  0.63670  Biso   1.000  H
  H44      1.0000 0.29130  0.21630  0.13670  Biso   1.000  H
  C41      1.0000 0.90210  0.39570  0.92190  Biso   1.000  C
  C42      1.0000 0.90210  0.60430  0.42190  Biso   1.000  C
  C43      1.0000 0.40210  0.89570  0.92190  Biso   1.000  C
  C44      1.0000 0.40210  0.10430  0.42190  Biso   1.000  C
  H45      1.0000 0.94700  0.35690  0.03480  Biso   1.000  H
  H46      1.0000 0.94700  0.64310  0.53480  Biso   1.000  H
  H47      1.0000 0.44700  0.85690  0.03480  Biso   1.000  H
  H48      1.0000 0.44700  0.14310  0.53480  Biso   1.000  H
  H49      1.0000 0.91430  0.44720  0.99160  Biso   1.000  H
  H50      1.0000 0.91430  0.55280  0.49160  Biso   1.000  H
  H51      1.0000 0.41430  0.94720  0.99160  Biso   1.000  H
  H52      1.0000 0.41430  0.05280  0.49160  Biso   1.000  H
  H53      1.0000 0.92390  0.39690  0.80670  Biso   1.000  H
  H54      1.0000 0.92390  0.60310  0.30670  Biso   1.000  H
  H55      1.0000 0.42390  0.89690  0.80670  Biso   1.000  H
  H56      1.0000 0.42390  0.10310  0.30670  Biso   1.000  H
