data_image0
_cell_length_a       18.199
_cell_length_b       11.991
_cell_length_c       17.923
_cell_angle_alpha    90
_cell_angle_beta     119.98
_cell_angle_gamma    90

_symmetry_space_group_name_H-M    "P 1"
_symmetry_int_tables_number       1

loop_
  _symmetry_equiv_pos_as_xyz
  'x, y, z'

loop_
  _atom_site_label
  _atom_site_occupancy
  _atom_site_fract_x
  _atom_site_fract_y
  _atom_site_fract_z
  _atom_site_thermal_displace_type
  _atom_site_B_iso_or_equiv
  _atom_site_type_symbol
  Cu1      1.0000 0.68350  0.62370  0.25810  Biso   1.000  Cu
  Cu2      1.0000 0.31650  0.12370  0.24190  Biso   1.000  Cu
  Cu3      1.0000 0.31650  0.37630  0.74190  Biso   1.000  Cu
  Cu4      1.0000 0.68350  0.87630  0.75810  Biso   1.000  Cu
  Cu5      1.0000 0.82520  0.11850  0.33720  Biso   1.000  Cu
  Cu6      1.0000 0.17480  0.61850  0.16280  Biso   1.000  Cu
  Cu7      1.0000 0.17480  0.88150  0.66280  Biso   1.000  Cu
  Cu8      1.0000 0.82520  0.38150  0.83720  Biso   1.000  Cu
  O1       1.0000 0.58720  0.52540  0.18970  Biso   1.000  O
  O2       1.0000 0.41280  0.02540  0.31030  Biso   1.000  O
  O3       1.0000 0.41280  0.47460  0.81030  Biso   1.000  O
  O4       1.0000 0.58720  0.97460  0.68970  Biso   1.000  O
  O5       1.0000 0.70850  0.45390  0.21720  Biso   1.000  O
  O6       1.0000 0.29150  0.95390  0.28280  Biso   1.000  O
  O7       1.0000 0.29150  0.54610  0.78280  Biso   1.000  O
  O8       1.0000 0.70850  0.04610  0.71720  Biso   1.000  O
  O9       1.0000 0.76500  0.20590  0.17180  Biso   1.000  O
  O10      1.0000 0.23500  0.70590  0.32820  Biso   1.000  O
  O11      1.0000 0.23500  0.79410  0.82820  Biso   1.000  O
  O12      1.0000 0.76500  0.29410  0.67180  Biso   1.000  O
  O13      1.0000 0.72250  0.20110  0.26820  Biso   1.000  O
  O14      1.0000 0.27750  0.70110  0.23180  Biso   1.000  O
  O15      1.0000 0.27750  0.79890  0.73180  Biso   1.000  O
  O16      1.0000 0.72250  0.29890  0.76820  Biso   1.000  O
  O17      1.0000 0.91840  0.01020  0.37570  Biso   1.000  O
  O18      1.0000 0.08160  0.51020  0.12430  Biso   1.000  O
  O19      1.0000 0.08160  0.98980  0.62430  Biso   1.000  O
  O20      1.0000 0.91840  0.48980  0.87570  Biso   1.000  O
  O21      1.0000 0.80440  0.95600  0.25920  Biso   1.000  O
  O22      1.0000 0.19560  0.45600  0.24080  Biso   1.000  O
  O23      1.0000 0.19560  0.04400  0.74080  Biso   1.000  O
  O24      1.0000 0.80440  0.54400  0.75920  Biso   1.000  O
  O25      1.0000 0.75080  0.69640  0.16330  Biso   1.000  O
  O26      1.0000 0.24920  0.19640  0.33670  Biso   1.000  O
  O27      1.0000 0.24920  0.30360  0.83670  Biso   1.000  O
  O28      1.0000 0.75080  0.80360  0.66330  Biso   1.000  O
  O29      1.0000 0.78920  0.70190  0.30120  Biso   1.000  O
  O30      1.0000 0.21080  0.20190  0.19880  Biso   1.000  O
  O31      1.0000 0.21080  0.29810  0.69880  Biso   1.000  O
  O32      1.0000 0.78920  0.79810  0.80120  Biso   1.000  O
  N1       1.0000 0.60740  0.75810  0.23480  Biso   1.000  N
  N2       1.0000 0.39260  0.25810  0.26520  Biso   1.000  N
  N3       1.0000 0.39260  0.24190  0.76520  Biso   1.000  N
  N4       1.0000 0.60740  0.74190  0.73480  Biso   1.000  N
  N5       1.0000 0.71700  0.56420  0.38640  Biso   1.000  N
  N6       1.0000 0.28300  0.06420  0.11360  Biso   1.000  N
  N7       1.0000 0.28300  0.43580  0.61360  Biso   1.000  N
  N8       1.0000 0.71700  0.93580  0.88640  Biso   1.000  N
  N9       1.0000 0.90860  0.24530  0.38710  Biso   1.000  N
  N10      1.0000 0.09140  0.74530  0.11290  Biso   1.000  N
  N11      1.0000 0.09140  0.75470  0.61290  Biso   1.000  N
  N12      1.0000 0.90860  0.25470  0.88710  Biso   1.000  N
  N13      1.0000 0.77940  0.06010  0.41840  Biso   1.000  N
  N14      1.0000 0.22060  0.56010  0.08160  Biso   1.000  N
  N15      1.0000 0.22060  0.93990  0.58160  Biso   1.000  N
  N16      1.0000 0.77940  0.43990  0.91840  Biso   1.000  N
  C1       1.0000 0.58230  0.35220  0.12230  Biso   1.000  C
  C2       1.0000 0.41770  0.85220  0.37770  Biso   1.000  C
  C3       1.0000 0.41770  0.64780  0.87770  Biso   1.000  C
  C4       1.0000 0.58230  0.14780  0.62230  Biso   1.000  C
  C5       1.0000 0.62120  0.24950  0.12590  Biso   1.000  C
  C6       1.0000 0.37880  0.74950  0.37410  Biso   1.000  C
  C7       1.0000 0.37880  0.75050  0.87410  Biso   1.000  C
  C8       1.0000 0.62120  0.25050  0.62590  Biso   1.000  C
  C9       1.0000 0.57560  0.16710  0.06430  Biso   1.000  C
  C10      1.0000 0.42440  0.66710  0.43570  Biso   1.000  C
  C11      1.0000 0.42440  0.83290  0.93570  Biso   1.000  C
  C12      1.0000 0.57560  0.33290  0.56430  Biso   1.000  C
  C13      1.0000 0.49120  0.18630  0.00390  Biso   1.000  C
  C14      1.0000 0.50880  0.68630  0.49610  Biso   1.000  C
  C15      1.0000 0.50880  0.81370  0.99610  Biso   1.000  C
  C16      1.0000 0.49120  0.31370  0.50390  Biso   1.000  C
  C17      1.0000 0.45200  0.28670  0.00050  Biso   1.000  C
  C18      1.0000 0.54800  0.78670  0.49950  Biso   1.000  C
  C19      1.0000 0.54800  0.71330  0.99950  Biso   1.000  C
  C20      1.0000 0.45200  0.21330  0.50050  Biso   1.000  C
  C21      1.0000 0.49760  0.36940  0.06000  Biso   1.000  C
  C22      1.0000 0.50240  0.86940  0.44000  Biso   1.000  C
  C23      1.0000 0.50240  0.63060  0.94000  Biso   1.000  C
  C24      1.0000 0.49760  0.13060  0.56000  Biso   1.000  C
  C25      1.0000 0.62980  0.44700  0.18100  Biso   1.000  C
  C26      1.0000 0.37020  0.94700  0.31900  Biso   1.000  C
  C27      1.0000 0.37020  0.55300  0.81900  Biso   1.000  C
  C28      1.0000 0.62980  0.05300  0.68100  Biso   1.000  C
  C29      1.0000 0.71030  0.21990  0.19190  Biso   1.000  C
  C30      1.0000 0.28970  0.71990  0.30810  Biso   1.000  C
  C31      1.0000 0.28970  0.78010  0.80810  Biso   1.000  C
  C32      1.0000 0.71030  0.28010  0.69190  Biso   1.000  C
  C33      1.0000 0.93110  0.84970  0.30550  Biso   1.000  C
  C34      1.0000 0.06890  0.34970  0.19450  Biso   1.000  C
  C35      1.0000 0.06890  0.15030  0.69450  Biso   1.000  C
  C36      1.0000 0.93110  0.65030  0.80550  Biso   1.000  C
  C37      1.0000 0.89330  0.74860  0.26390  Biso   1.000  C
  C38      1.0000 0.10670  0.24860  0.23610  Biso   1.000  C
  C39      1.0000 0.10670  0.25140  0.73610  Biso   1.000  C
  C40      1.0000 0.89330  0.75140  0.76390  Biso   1.000  C
  C41      1.0000 0.94160  0.66960  0.24930  Biso   1.000  C
  C42      1.0000 0.05840  0.16960  0.25070  Biso   1.000  C
  C43      1.0000 0.05840  0.33040  0.75070  Biso   1.000  C
  C44      1.0000 0.94160  0.83040  0.74930  Biso   1.000  C
  C45      1.0000 0.02700  0.68940  0.27840  Biso   1.000  C
  C46      1.0000 0.97300  0.18940  0.22160  Biso   1.000  C
  C47      1.0000 0.97300  0.31060  0.72160  Biso   1.000  C
  C48      1.0000 0.02700  0.81060  0.77840  Biso   1.000  C
  C49      1.0000 0.06540  0.78940  0.32190  Biso   1.000  C
  C50      1.0000 0.93460  0.28940  0.17810  Biso   1.000  C
  C51      1.0000 0.93460  0.21060  0.67810  Biso   1.000  C
  C52      1.0000 0.06540  0.71060  0.82190  Biso   1.000  C
  C53      1.0000 0.01670  0.86840  0.33470  Biso   1.000  C
  C54      1.0000 0.98330  0.36840  0.16530  Biso   1.000  C
  C55      1.0000 0.98330  0.13160  0.66530  Biso   1.000  C
  C56      1.0000 0.01670  0.63160  0.83470  Biso   1.000  C
  C57      1.0000 0.88030  0.94250  0.31310  Biso   1.000  C
  C58      1.0000 0.11970  0.44250  0.18690  Biso   1.000  C
  C59      1.0000 0.11970  0.05750  0.68690  Biso   1.000  C
  C60      1.0000 0.88030  0.55750  0.81310  Biso   1.000  C
  C61      1.0000 0.80440  0.71630  0.23870  Biso   1.000  C
  C62      1.0000 0.19560  0.21630  0.26130  Biso   1.000  C
  C63      1.0000 0.19560  0.28370  0.76130  Biso   1.000  C
  C64      1.0000 0.80440  0.78370  0.73870  Biso   1.000  C
  C65      1.0000 0.63660  0.86400  0.24320  Biso   1.000  C
  C66      1.0000 0.36340  0.36400  0.25680  Biso   1.000  C
  C67      1.0000 0.36340  0.13600  0.75680  Biso   1.000  C
  C68      1.0000 0.63660  0.63600  0.74320  Biso   1.000  C
  C69      1.0000 0.58560  0.95650  0.22710  Biso   1.000  C
  C70      1.0000 0.41440  0.45650  0.27290  Biso   1.000  C
  C71      1.0000 0.41440  0.04350  0.77290  Biso   1.000  C
  C72      1.0000 0.58560  0.54350  0.72710  Biso   1.000  C
  C73      1.0000 0.50140  0.94180  0.20090  Biso   1.000  C
  C74      1.0000 0.49860  0.44180  0.29910  Biso   1.000  C
  C75      1.0000 0.49860  0.05820  0.79910  Biso   1.000  C
  C76      1.0000 0.50140  0.55820  0.70090  Biso   1.000  C
  C77      1.0000 0.47100  0.83250  0.19590  Biso   1.000  C
  C78      1.0000 0.52900  0.33250  0.30410  Biso   1.000  C
  C79      1.0000 0.52900  0.16750  0.80410  Biso   1.000  C
  C80      1.0000 0.47100  0.66750  0.69590  Biso   1.000  C
  C81      1.0000 0.52560  0.74320  0.21150  Biso   1.000  C
  C82      1.0000 0.47440  0.24320  0.28850  Biso   1.000  C
  C83      1.0000 0.47440  0.25680  0.78850  Biso   1.000  C
  C84      1.0000 0.52560  0.75680  0.71150  Biso   1.000  C
  C85      1.0000 0.74230  0.46090  0.41370  Biso   1.000  C
  C86      1.0000 0.25770  0.96090  0.08630  Biso   1.000  C
  C87      1.0000 0.25770  0.53910  0.58630  Biso   1.000  C
  C88      1.0000 0.74230  0.03910  0.91370  Biso   1.000  C
  C89      1.0000 0.76690  0.42380  0.49670  Biso   1.000  C
  C90      1.0000 0.23310  0.92380  0.00330  Biso   1.000  C
  C91      1.0000 0.23310  0.57620  0.50330  Biso   1.000  C
  C92      1.0000 0.76690  0.07620  0.99670  Biso   1.000  C
  C93      1.0000 0.76330  0.50100  0.55340  Biso   1.000  C
  C94      1.0000 0.23670  0.00100  0.94660  Biso   1.000  C
  C95      1.0000 0.23670  0.49900  0.44660  Biso   1.000  C
  C96      1.0000 0.76330  0.99900  0.05340  Biso   1.000  C
  C97      1.0000 0.73820  0.60750  0.52670  Biso   1.000  C
  C98      1.0000 0.26180  0.10750  0.97330  Biso   1.000  C
  C99      1.0000 0.26180  0.39250  0.47330  Biso   1.000  C
  C100     1.0000 0.73820  0.89250  0.02670  Biso   1.000  C
  C101     1.0000 0.71400  0.63840  0.44190  Biso   1.000  C
  C102     1.0000 0.28600  0.13840  0.05810  Biso   1.000  C
  C103     1.0000 0.28600  0.36160  0.55810  Biso   1.000  C
  C104     1.0000 0.71400  0.86160  0.94190  Biso   1.000  C
  C105     1.0000 0.98340  0.22550  0.46090  Biso   1.000  C
  C106     1.0000 0.01660  0.72550  0.03910  Biso   1.000  C
  C107     1.0000 0.01660  0.77450  0.53910  Biso   1.000  C
  C108     1.0000 0.98340  0.27450  0.96090  Biso   1.000  C
  C109     1.0000 0.04660  0.30390  0.49640  Biso   1.000  C
  C110     1.0000 0.95340  0.80390  0.00360  Biso   1.000  C
  C111     1.0000 0.95340  0.69610  0.50360  Biso   1.000  C
  C112     1.0000 0.04660  0.19610  0.99640  Biso   1.000  C
  C113     1.0000 0.03590  0.40580  0.45600  Biso   1.000  C
  C114     1.0000 0.96410  0.90580  0.04400  Biso   1.000  C
  C115     1.0000 0.96410  0.59420  0.54400  Biso   1.000  C
  C116     1.0000 0.03590  0.09420  0.95600  Biso   1.000  C
  C117     1.0000 0.95790  0.42740  0.38090  Biso   1.000  C
  C118     1.0000 0.04210  0.92740  0.11910  Biso   1.000  C
  C119     1.0000 0.04210  0.57260  0.61910  Biso   1.000  C
  C120     1.0000 0.95790  0.07260  0.88090  Biso   1.000  C
  C121     1.0000 0.89600  0.34560  0.34850  Biso   1.000  C
  C122     1.0000 0.10400  0.84560  0.15150  Biso   1.000  C
  C123     1.0000 0.10400  0.65440  0.65150  Biso   1.000  C
  C124     1.0000 0.89600  0.15440  0.84850  Biso   1.000  C
  C125     1.0000 0.80850  0.96640  0.46510  Biso   1.000  C
  C126     1.0000 0.19150  0.46640  0.03490  Biso   1.000  C
  C127     1.0000 0.19150  0.03360  0.53490  Biso   1.000  C
  C128     1.0000 0.80850  0.53360  0.96510  Biso   1.000  C
  C129     1.0000 0.78480  0.93440  0.52530  Biso   1.000  C
  C130     1.0000 0.21520  0.43440  0.97470  Biso   1.000  C
  C131     1.0000 0.21520  0.06560  0.47470  Biso   1.000  C
  C132     1.0000 0.78480  0.56560  0.02530  Biso   1.000  C
  C133     1.0000 0.72960  0.00310  0.53670  Biso   1.000  C
  C134     1.0000 0.27040  0.50310  0.96330  Biso   1.000  C
  C135     1.0000 0.27040  0.99690  0.46330  Biso   1.000  C
  C136     1.0000 0.72960  0.49690  0.03670  Biso   1.000  C
  C137     1.0000 0.69840  0.09980  0.48840  Biso   1.000  C
  C138     1.0000 0.30160  0.59980  0.01160  Biso   1.000  C
  C139     1.0000 0.30160  0.90020  0.51160  Biso   1.000  C
  C140     1.0000 0.69840  0.40020  0.98840  Biso   1.000  C
  C141     1.0000 0.72460  0.12460  0.42880  Biso   1.000  C
  C142     1.0000 0.27540  0.62460  0.07120  Biso   1.000  C
  C143     1.0000 0.27540  0.87540  0.57120  Biso   1.000  C
  C144     1.0000 0.72460  0.37540  0.92880  Biso   1.000  C
  H1       1.0000 0.60300  0.09800  0.06200  Biso   1.000  H
  H2       1.0000 0.39700  0.59800  0.43800  Biso   1.000  H
  H3       1.0000 0.39700  0.90200  0.93800  Biso   1.000  H
  H4       1.0000 0.60300  0.40200  0.56200  Biso   1.000  H
  H5       1.0000 0.46200  0.13500  0.95700  Biso   1.000  H
  H6       1.0000 0.53800  0.63500  0.54300  Biso   1.000  H
  H7       1.0000 0.53800  0.86500  0.04300  Biso   1.000  H
  H8       1.0000 0.46200  0.36500  0.45700  Biso   1.000  H
  H9       1.0000 0.39200  0.30300  0.95700  Biso   1.000  H
  H10      1.0000 0.60800  0.80300  0.54300  Biso   1.000  H
  H11      1.0000 0.60800  0.69700  0.04300  Biso   1.000  H
  H12      1.0000 0.39200  0.19700  0.45700  Biso   1.000  H
  H13      1.0000 0.46600  0.45400  0.05800  Biso   1.000  H
  H14      1.0000 0.53400  0.95400  0.44200  Biso   1.000  H
  H15      1.0000 0.53400  0.54600  0.94200  Biso   1.000  H
  H16      1.0000 0.46600  0.04600  0.55800  Biso   1.000  H
  H17      1.0000 0.91500  0.59600  0.22400  Biso   1.000  H
  H18      1.0000 0.08500  0.09600  0.27600  Biso   1.000  H
  H19      1.0000 0.08500  0.40400  0.77600  Biso   1.000  H
  H20      1.0000 0.91500  0.90400  0.72400  Biso   1.000  H
  H21      1.0000 0.05900  0.63900  0.26700  Biso   1.000  H
  H22      1.0000 0.94100  0.13900  0.23300  Biso   1.000  H
  H23      1.0000 0.94100  0.36100  0.73300  Biso   1.000  H
  H24      1.0000 0.05900  0.86100  0.76700  Biso   1.000  H
  H25      1.0000 0.13800  0.80100  0.35500  Biso   1.000  H
  H26      1.0000 0.86200  0.30100  0.14500  Biso   1.000  H
  H27      1.0000 0.86200  0.19900  0.64500  Biso   1.000  H
  H28      1.0000 0.13800  0.69900  0.85500  Biso   1.000  H
  H29      1.0000 0.04500  0.94900  0.36700  Biso   1.000  H
  H30      1.0000 0.95500  0.44900  0.13300  Biso   1.000  H
  H31      1.0000 0.95500  0.05100  0.63300  Biso   1.000  H
  H32      1.0000 0.04500  0.55100  0.86700  Biso   1.000  H
  H33      1.0000 0.69800  0.87500  0.26000  Biso   1.000  H
  H34      1.0000 0.30200  0.37500  0.24000  Biso   1.000  H
  H35      1.0000 0.30200  0.12500  0.74000  Biso   1.000  H
  H36      1.0000 0.69800  0.62500  0.76000  Biso   1.000  H
  H37      1.0000 0.60900  0.03600  0.23200  Biso   1.000  H
  H38      1.0000 0.39100  0.53600  0.26800  Biso   1.000  H
  H39      1.0000 0.39100  0.96400  0.76800  Biso   1.000  H
  H40      1.0000 0.60900  0.46400  0.73200  Biso   1.000  H
  H41      1.0000 0.46000  0.00900  0.18700  Biso   1.000  H
  H42      1.0000 0.54000  0.50900  0.31300  Biso   1.000  H
  H43      1.0000 0.54000  0.99100  0.81300  Biso   1.000  H
  H44      1.0000 0.46000  0.49100  0.68700  Biso   1.000  H
  H45      1.0000 0.40600  0.81800  0.18000  Biso   1.000  H
  H46      1.0000 0.59400  0.31800  0.32000  Biso   1.000  H
  H47      1.0000 0.59400  0.18200  0.82000  Biso   1.000  H
  H48      1.0000 0.40600  0.68200  0.68000  Biso   1.000  H
  H49      1.0000 0.50300  0.66400  0.20400  Biso   1.000  H
  H50      1.0000 0.49700  0.16400  0.29600  Biso   1.000  H
  H51      1.0000 0.49700  0.33600  0.79600  Biso   1.000  H
  H52      1.0000 0.50300  0.83600  0.70400  Biso   1.000  H
  H53      1.0000 0.74900  0.41400  0.37800  Biso   1.000  H
  H54      1.0000 0.25100  0.91400  0.12200  Biso   1.000  H
  H55      1.0000 0.25100  0.58600  0.62200  Biso   1.000  H
  H56      1.0000 0.74900  0.08600  0.87800  Biso   1.000  H
  H57      1.0000 0.78800  0.33900  0.51700  Biso   1.000  H
  H58      1.0000 0.21200  0.83900  0.98300  Biso   1.000  H
  H59      1.0000 0.21200  0.66100  0.48300  Biso   1.000  H
  H60      1.0000 0.78800  0.16100  0.01700  Biso   1.000  H
  H61      1.0000 0.77600  0.48100  0.60800  Biso   1.000  H
  H62      1.0000 0.22400  0.98100  0.89200  Biso   1.000  H
  H63      1.0000 0.22400  0.51900  0.39200  Biso   1.000  H
  H64      1.0000 0.77600  0.01900  0.10800  Biso   1.000  H
  H65      1.0000 0.73700  0.66800  0.57100  Biso   1.000  H
  H66      1.0000 0.26300  0.16800  0.92900  Biso   1.000  H
  H67      1.0000 0.26300  0.33200  0.42900  Biso   1.000  H
  H68      1.0000 0.73700  0.83200  0.07100  Biso   1.000  H
  H69      1.0000 0.69600  0.71900  0.42300  Biso   1.000  H
  H70      1.0000 0.30400  0.21900  0.07700  Biso   1.000  H
  H71      1.0000 0.30400  0.28100  0.57700  Biso   1.000  H
  H72      1.0000 0.69600  0.78100  0.92300  Biso   1.000  H
  H73      1.0000 0.99300  0.14600  0.49200  Biso   1.000  H
  H74      1.0000 0.00700  0.64600  0.00800  Biso   1.000  H
  H75      1.0000 0.00700  0.85400  0.50800  Biso   1.000  H
  H76      1.0000 0.99300  0.35400  0.99200  Biso   1.000  H
  H77      1.0000 0.10300  0.29100  0.55600  Biso   1.000  H
  H78      1.0000 0.89700  0.79100  0.94400  Biso   1.000  H
  H79      1.0000 0.89700  0.70900  0.44400  Biso   1.000  H
  H80      1.0000 0.10300  0.20900  0.05600  Biso   1.000  H
  H81      1.0000 0.08600  0.46700  0.48100  Biso   1.000  H
  H82      1.0000 0.91400  0.96700  0.01900  Biso   1.000  H
  H83      1.0000 0.91400  0.53300  0.51900  Biso   1.000  H
  H84      1.0000 0.08600  0.03300  0.98100  Biso   1.000  H
  H85      1.0000 0.94700  0.50700  0.34900  Biso   1.000  H
  H86      1.0000 0.05300  0.00700  0.15100  Biso   1.000  H
  H87      1.0000 0.05300  0.49300  0.65100  Biso   1.000  H
  H88      1.0000 0.94700  0.99300  0.84900  Biso   1.000  H
  H89      1.0000 0.84100  0.36300  0.30100  Biso   1.000  H
  H90      1.0000 0.15900  0.86300  0.19900  Biso   1.000  H
  H91      1.0000 0.15900  0.63700  0.69900  Biso   1.000  H
  H92      1.0000 0.84100  0.13700  0.80100  Biso   1.000  H
  H93      1.0000 0.84900  0.91300  0.45500  Biso   1.000  H
  H94      1.0000 0.15100  0.41300  0.04500  Biso   1.000  H
  H95      1.0000 0.15100  0.08700  0.54500  Biso   1.000  H
  H96      1.0000 0.84900  0.58700  0.95500  Biso   1.000  H
  H97      1.0000 0.81300  0.86600  0.56300  Biso   1.000  H
  H98      1.0000 0.18700  0.36600  0.93700  Biso   1.000  H
  H99      1.0000 0.18700  0.13400  0.43700  Biso   1.000  H
  H100     1.0000 0.81300  0.63400  0.06300  Biso   1.000  H
  H101     1.0000 0.71100  0.98100  0.58300  Biso   1.000  H
  H102     1.0000 0.28900  0.48100  0.91700  Biso   1.000  H
  H103     1.0000 0.28900  0.01900  0.41700  Biso   1.000  H
  H104     1.0000 0.71100  0.51900  0.08300  Biso   1.000  H
  H105     1.0000 0.64100  0.13700  0.48100  Biso   1.000  H
  H106     1.0000 0.35900  0.63700  0.01900  Biso   1.000  H
  H107     1.0000 0.35900  0.86300  0.51900  Biso   1.000  H
  H108     1.0000 0.64100  0.36300  0.98100  Biso   1.000  H
  H109     1.0000 0.70000  0.19900  0.39000  Biso   1.000  H
  H110     1.0000 0.30000  0.69900  0.11000  Biso   1.000  H
  H111     1.0000 0.30000  0.80100  0.61000  Biso   1.000  H
  H112     1.0000 0.70000  0.30100  0.89000  Biso   1.000  H
