data_image0
_cell_length_a       20.558
_cell_length_b       14.608
_cell_length_c       8.933
_cell_angle_alpha    90
_cell_angle_beta     113.363
_cell_angle_gamma    90

_symmetry_space_group_name_H-M    "P 1"
_symmetry_int_tables_number       1

loop_
  _symmetry_equiv_pos_as_xyz
  'x, y, z'

loop_
  _atom_site_label
  _atom_site_occupancy
  _atom_site_fract_x
  _atom_site_fract_y
  _atom_site_fract_z
  _atom_site_thermal_displace_type
  _atom_site_B_iso_or_equiv
  _atom_site_type_symbol
  Cu1      1.0000 0.25000  0.25000  0.00000  Biso   1.000  Cu
  Cu2      1.0000 0.75000  0.25000  0.50000  Biso   1.000  Cu
  Cu3      1.0000 0.75000  0.75000  0.00000  Biso   1.000  Cu
  Cu4      1.0000 0.25000  0.75000  0.50000  Biso   1.000  Cu
  O1       1.0000 0.46890  0.04580  0.58600  Biso   1.000  O
  O2       1.0000 0.53110  0.04580  0.91400  Biso   1.000  O
  O3       1.0000 0.96890  0.54580  0.58600  Biso   1.000  O
  O4       1.0000 0.03110  0.54580  0.91400  Biso   1.000  O
  O5       1.0000 0.53110  0.95420  0.41400  Biso   1.000  O
  O6       1.0000 0.46890  0.95420  0.08600  Biso   1.000  O
  O7       1.0000 0.03110  0.45420  0.41400  Biso   1.000  O
  O8       1.0000 0.96890  0.45420  0.08600  Biso   1.000  O
  N1       1.0000 0.27970  0.24570  0.24200  Biso   1.000  N
  N2       1.0000 0.72030  0.24570  0.25800  Biso   1.000  N
  N3       1.0000 0.77970  0.74570  0.24200  Biso   1.000  N
  N4       1.0000 0.22030  0.74570  0.25800  Biso   1.000  N
  N5       1.0000 0.72030  0.75430  0.75800  Biso   1.000  N
  N6       1.0000 0.27970  0.75430  0.74200  Biso   1.000  N
  N7       1.0000 0.22030  0.25430  0.75800  Biso   1.000  N
  N8       1.0000 0.77970  0.25430  0.74200  Biso   1.000  N
  N9       1.0000 0.31860  0.15310  0.99900  Biso   1.000  N
  N10      1.0000 0.68140  0.15310  0.50100  Biso   1.000  N
  N11      1.0000 0.81860  0.65310  0.99900  Biso   1.000  N
  N12      1.0000 0.18140  0.65310  0.50100  Biso   1.000  N
  N13      1.0000 0.68140  0.84690  0.00100  Biso   1.000  N
  N14      1.0000 0.31860  0.84690  0.49900  Biso   1.000  N
  N15      1.0000 0.18140  0.34690  0.00100  Biso   1.000  N
  N16      1.0000 0.81860  0.34690  0.49900  Biso   1.000  N
  N17      1.0000 0.35070  0.10560  0.28220  Biso   1.000  N
  N18      1.0000 0.64930  0.10560  0.21780  Biso   1.000  N
  N19      1.0000 0.85070  0.60560  0.28220  Biso   1.000  N
  N20      1.0000 0.14930  0.60560  0.21780  Biso   1.000  N
  N21      1.0000 0.64930  0.89440  0.71780  Biso   1.000  N
  N22      1.0000 0.35070  0.89440  0.78220  Biso   1.000  N
  N23      1.0000 0.14930  0.39440  0.71780  Biso   1.000  N
  N24      1.0000 0.85070  0.39440  0.78220  Biso   1.000  N
  C1       1.0000 0.29700  0.15240  0.31740  Biso   1.000  C
  C2       1.0000 0.70300  0.15240  0.18260  Biso   1.000  C
  C3       1.0000 0.79700  0.65240  0.31740  Biso   1.000  C
  C4       1.0000 0.20300  0.65240  0.18260  Biso   1.000  C
  C5       1.0000 0.70300  0.84760  0.68260  Biso   1.000  C
  C6       1.0000 0.29700  0.84760  0.81740  Biso   1.000  C
  C7       1.0000 0.20300  0.34760  0.68260  Biso   1.000  C
  C8       1.0000 0.79700  0.34760  0.81740  Biso   1.000  C
  C9       1.0000 0.32930  0.07590  0.11570  Biso   1.000  C
  C10      1.0000 0.67070  0.07590  0.38430  Biso   1.000  C
  C11      1.0000 0.82930  0.57590  0.11570  Biso   1.000  C
  C12      1.0000 0.17070  0.57590  0.38430  Biso   1.000  C
  C13      1.0000 0.67070  0.92410  0.88430  Biso   1.000  C
  C14      1.0000 0.32930  0.92410  0.61570  Biso   1.000  C
  C15      1.0000 0.17070  0.42410  0.88430  Biso   1.000  C
  C16      1.0000 0.82930  0.42410  0.61570  Biso   1.000  C
  C17      1.0000 0.29780  0.12220  0.82810  Biso   1.000  C
  C18      1.0000 0.70220  0.12220  0.67190  Biso   1.000  C
  C19      1.0000 0.79780  0.62220  0.82810  Biso   1.000  C
  C20      1.0000 0.20220  0.62220  0.67190  Biso   1.000  C
  C21      1.0000 0.70220  0.87780  0.17190  Biso   1.000  C
  C22      1.0000 0.29780  0.87780  0.32810  Biso   1.000  C
  C23      1.0000 0.20220  0.37780  0.17190  Biso   1.000  C
  C24      1.0000 0.79780  0.37780  0.32810  Biso   1.000  C
  C25      1.0000 0.22500  0.29360  0.28100  Biso   1.000  C
  C26      1.0000 0.77500  0.29360  0.21900  Biso   1.000  C
  C27      1.0000 0.72500  0.79360  0.28100  Biso   1.000  C
  C28      1.0000 0.27500  0.79360  0.21900  Biso   1.000  C
  C29      1.0000 0.77500  0.70640  0.71900  Biso   1.000  C
  C30      1.0000 0.22500  0.70640  0.78100  Biso   1.000  C
  C31      1.0000 0.27500  0.20640  0.71900  Biso   1.000  C
  C32      1.0000 0.72500  0.20640  0.78100  Biso   1.000  C
  C33      1.0000 0.42180  0.14720  0.35220  Biso   1.000  C
  C34      1.0000 0.57820  0.14720  0.14780  Biso   1.000  C
  C35      1.0000 0.92180  0.64720  0.35220  Biso   1.000  C
  C36      1.0000 0.07820  0.64720  0.14780  Biso   1.000  C
  C37      1.0000 0.57820  0.85280  0.64780  Biso   1.000  C
  C38      1.0000 0.42180  0.85280  0.85220  Biso   1.000  C
  C39      1.0000 0.07820  0.35280  0.64780  Biso   1.000  C
  C40      1.0000 0.92180  0.35280  0.85220  Biso   1.000  C
  C41      1.0000 0.45690  0.13940  0.53630  Biso   1.000  C
  C42      1.0000 0.54310  0.13940  0.96370  Biso   1.000  C
  C43      1.0000 0.95690  0.63940  0.53630  Biso   1.000  C
  C44      1.0000 0.04310  0.63940  0.96370  Biso   1.000  C
  C45      1.0000 0.54310  0.86060  0.46370  Biso   1.000  C
  C46      1.0000 0.45690  0.86060  0.03630  Biso   1.000  C
  C47      1.0000 0.04310  0.36060  0.46370  Biso   1.000  C
  C48      1.0000 0.95690  0.36060  0.03630  Biso   1.000  C
  O9       1.0000 0.35290  0.37200  0.07060  Biso   1.000  O
  O10      1.0000 0.64710  0.37200  0.42940  Biso   1.000  O
  O11      1.0000 0.85290  0.87200  0.07060  Biso   1.000  O
  O12      1.0000 0.14710  0.87200  0.42940  Biso   1.000  O
  O13      1.0000 0.64710  0.62800  0.92940  Biso   1.000  O
  O14      1.0000 0.35290  0.62800  0.57060  Biso   1.000  O
  O15      1.0000 0.14710  0.12800  0.92940  Biso   1.000  O
  O16      1.0000 0.85290  0.12800  0.57060  Biso   1.000  O
  O17      1.0000 0.43030  0.27820  0.03900  Biso   1.000  O
  O18      1.0000 0.56970  0.27820  0.46100  Biso   1.000  O
  O19      1.0000 0.93030  0.77820  0.03900  Biso   1.000  O
  O20      1.0000 0.06970  0.77820  0.46100  Biso   1.000  O
  O21      1.0000 0.56970  0.72180  0.96100  Biso   1.000  O
  O22      1.0000 0.43030  0.72180  0.53900  Biso   1.000  O
  O23      1.0000 0.06970  0.22180  0.96100  Biso   1.000  O
  O24      1.0000 0.93030  0.22180  0.53900  Biso   1.000  O
  O25      1.0000 0.33730  0.53340  0.09960  Biso   1.000  O
  O26      1.0000 0.66270  0.53340  0.40040  Biso   1.000  O
  O27      1.0000 0.83730  0.03340  0.09960  Biso   1.000  O
  O28      1.0000 0.16270  0.03340  0.40040  Biso   1.000  O
  O29      1.0000 0.66270  0.46660  0.90040  Biso   1.000  O
  O30      1.0000 0.33730  0.46660  0.59960  Biso   1.000  O
  O31      1.0000 0.16270  0.96660  0.90040  Biso   1.000  O
  O32      1.0000 0.83730  0.96660  0.59960  Biso   1.000  O
  O33      1.0000 0.37750  0.66370  0.04960  Biso   1.000  O
  O34      1.0000 0.62250  0.66370  0.45040  Biso   1.000  O
  O35      1.0000 0.87750  0.16370  0.04960  Biso   1.000  O
  O36      1.0000 0.12250  0.16370  0.45040  Biso   1.000  O
  O37      1.0000 0.62250  0.33630  0.95040  Biso   1.000  O
  O38      1.0000 0.37750  0.33630  0.54960  Biso   1.000  O
  O39      1.0000 0.12250  0.83630  0.95040  Biso   1.000  O
  O40      1.0000 0.87750  0.83630  0.54960  Biso   1.000  O
  C49      1.0000 0.51110  0.40930  0.99360  Biso   1.000  C
  C50      1.0000 0.48890  0.40930  0.50640  Biso   1.000  C
  C51      1.0000 0.01110  0.90930  0.99360  Biso   1.000  C
  C52      1.0000 0.98890  0.90930  0.50640  Biso   1.000  C
  C53      1.0000 0.48890  0.59070  0.00640  Biso   1.000  C
  C54      1.0000 0.51110  0.59070  0.49360  Biso   1.000  C
  C55      1.0000 0.98890  0.09070  0.00640  Biso   1.000  C
  C56      1.0000 0.01110  0.09070  0.49360  Biso   1.000  C
  C57      1.0000 0.45290  0.43620  0.02530  Biso   1.000  C
  C58      1.0000 0.54710  0.43620  0.47470  Biso   1.000  C
  C59      1.0000 0.95290  0.93620  0.02530  Biso   1.000  C
  C60      1.0000 0.04710  0.93620  0.47470  Biso   1.000  C
  C61      1.0000 0.54710  0.56380  0.97470  Biso   1.000  C
  C62      1.0000 0.45290  0.56380  0.52530  Biso   1.000  C
  C63      1.0000 0.04710  0.06380  0.97470  Biso   1.000  C
  C64      1.0000 0.95290  0.06380  0.52530  Biso   1.000  C
  C65      1.0000 0.44120  0.53140  0.03200  Biso   1.000  C
  C66      1.0000 0.55880  0.53140  0.46800  Biso   1.000  C
  C67      1.0000 0.94120  0.03140  0.03200  Biso   1.000  C
  C68      1.0000 0.05880  0.03140  0.46800  Biso   1.000  C
  C69      1.0000 0.55880  0.46860  0.96800  Biso   1.000  C
  C70      1.0000 0.44120  0.46860  0.53200  Biso   1.000  C
  C71      1.0000 0.05880  0.96860  0.96800  Biso   1.000  C
  C72      1.0000 0.94120  0.96860  0.53200  Biso   1.000  C
  C73      1.0000 0.40960  0.35610  0.04710  Biso   1.000  C
  C74      1.0000 0.59040  0.35610  0.45290  Biso   1.000  C
  C75      1.0000 0.90960  0.85610  0.04710  Biso   1.000  C
  C76      1.0000 0.09040  0.85610  0.45290  Biso   1.000  C
  C77      1.0000 0.59040  0.64390  0.95290  Biso   1.000  C
  C78      1.0000 0.40960  0.64390  0.54710  Biso   1.000  C
  C79      1.0000 0.09040  0.14390  0.95290  Biso   1.000  C
  C80      1.0000 0.90960  0.14390  0.54710  Biso   1.000  C
  C81      1.0000 0.38200  0.58050  0.06190  Biso   1.000  C
  C82      1.0000 0.61800  0.58050  0.43810  Biso   1.000  C
  C83      1.0000 0.88200  0.08050  0.06190  Biso   1.000  C
  C84      1.0000 0.11800  0.08050  0.43810  Biso   1.000  C
  C85      1.0000 0.61800  0.41950  0.93810  Biso   1.000  C
  C86      1.0000 0.38200  0.41950  0.56190  Biso   1.000  C
  C87      1.0000 0.11800  0.91950  0.93810  Biso   1.000  C
  C88      1.0000 0.88200  0.91950  0.56190  Biso   1.000  C
  H1       1.0000 0.49600  0.04200  0.67700  Biso   1.000  H
  H2       1.0000 0.50400  0.04200  0.82300  Biso   1.000  H
  H3       1.0000 0.99600  0.54200  0.67700  Biso   1.000  H
  H4       1.0000 0.00400  0.54200  0.82300  Biso   1.000  H
  H5       1.0000 0.50400  0.95800  0.32300  Biso   1.000  H
  H6       1.0000 0.49600  0.95800  0.17700  Biso   1.000  H
  H7       1.0000 0.00400  0.45800  0.32300  Biso   1.000  H
  H8       1.0000 0.99600  0.45800  0.17700  Biso   1.000  H
  H9       1.0000 0.48700  0.01800  0.53800  Biso   1.000  H
  H10      1.0000 0.51300  0.01800  0.96200  Biso   1.000  H
  H11      1.0000 0.98700  0.51800  0.53800  Biso   1.000  H
  H12      1.0000 0.01300  0.51800  0.96200  Biso   1.000  H
  H13      1.0000 0.51300  0.98200  0.46200  Biso   1.000  H
  H14      1.0000 0.48700  0.98200  0.03800  Biso   1.000  H
  H15      1.0000 0.01300  0.48200  0.46200  Biso   1.000  H
  H16      1.0000 0.98700  0.48200  0.03800  Biso   1.000  H
  H17      1.0000 0.32090  0.28030  0.28720  Biso   1.000  H
  H18      1.0000 0.67910  0.28030  0.21280  Biso   1.000  H
  H19      1.0000 0.82090  0.78030  0.28720  Biso   1.000  H
  H20      1.0000 0.17910  0.78030  0.21280  Biso   1.000  H
  H21      1.0000 0.67910  0.71970  0.71280  Biso   1.000  H
  H22      1.0000 0.32090  0.71970  0.78720  Biso   1.000  H
  H23      1.0000 0.17910  0.21970  0.71280  Biso   1.000  H
  H24      1.0000 0.82090  0.21970  0.78720  Biso   1.000  H
  H25      1.0000 0.36230  0.18180  0.02880  Biso   1.000  H
  H26      1.0000 0.63770  0.18180  0.47120  Biso   1.000  H
  H27      1.0000 0.86230  0.68180  0.02880  Biso   1.000  H
  H28      1.0000 0.13770  0.68180  0.47120  Biso   1.000  H
  H29      1.0000 0.63770  0.81820  0.97120  Biso   1.000  H
  H30      1.0000 0.36230  0.81820  0.52880  Biso   1.000  H
  H31      1.0000 0.13770  0.31820  0.97120  Biso   1.000  H
  H32      1.0000 0.86230  0.31820  0.52880  Biso   1.000  H
  H33      1.0000 0.31300  0.15840  0.43710  Biso   1.000  H
  H34      1.0000 0.68700  0.15840  0.06290  Biso   1.000  H
  H35      1.0000 0.81300  0.65840  0.43710  Biso   1.000  H
  H36      1.0000 0.18700  0.65840  0.06290  Biso   1.000  H
  H37      1.0000 0.68700  0.84160  0.56290  Biso   1.000  H
  H38      1.0000 0.31300  0.84160  0.93710  Biso   1.000  H
  H39      1.0000 0.18700  0.34160  0.56290  Biso   1.000  H
  H40      1.0000 0.81300  0.34160  0.93710  Biso   1.000  H
  H41      1.0000 0.25330  0.11480  0.27740  Biso   1.000  H
  H42      1.0000 0.74670  0.11480  0.22260  Biso   1.000  H
  H43      1.0000 0.75330  0.61480  0.27740  Biso   1.000  H
  H44      1.0000 0.24670  0.61480  0.22260  Biso   1.000  H
  H45      1.0000 0.74670  0.88520  0.72260  Biso   1.000  H
  H46      1.0000 0.25330  0.88520  0.77740  Biso   1.000  H
  H47      1.0000 0.24670  0.38520  0.72260  Biso   1.000  H
  H48      1.0000 0.75330  0.38520  0.77740  Biso   1.000  H
  H49      1.0000 0.28460  0.04080  0.08340  Biso   1.000  H
  H50      1.0000 0.71540  0.04080  0.41660  Biso   1.000  H
  H51      1.0000 0.78460  0.54080  0.08340  Biso   1.000  H
  H52      1.0000 0.21540  0.54080  0.41660  Biso   1.000  H
  H53      1.0000 0.71540  0.95920  0.91660  Biso   1.000  H
  H54      1.0000 0.28460  0.95920  0.58340  Biso   1.000  H
  H55      1.0000 0.21540  0.45920  0.91660  Biso   1.000  H
  H56      1.0000 0.78460  0.45920  0.58340  Biso   1.000  H
  H57      1.0000 0.36590  0.03420  0.10840  Biso   1.000  H
  H58      1.0000 0.63410  0.03420  0.39160  Biso   1.000  H
  H59      1.0000 0.86590  0.53420  0.10840  Biso   1.000  H
  H60      1.0000 0.13410  0.53420  0.39160  Biso   1.000  H
  H61      1.0000 0.63410  0.96580  0.89160  Biso   1.000  H
  H62      1.0000 0.36590  0.96580  0.60840  Biso   1.000  H
  H63      1.0000 0.13410  0.46580  0.89160  Biso   1.000  H
  H64      1.0000 0.86590  0.46580  0.60840  Biso   1.000  H
  H65      1.0000 0.25820  0.07790  0.79840  Biso   1.000  H
  H66      1.0000 0.74180  0.07790  0.70160  Biso   1.000  H
  H67      1.0000 0.75820  0.57790  0.79840  Biso   1.000  H
  H68      1.0000 0.24180  0.57790  0.70160  Biso   1.000  H
  H69      1.0000 0.74180  0.92210  0.20160  Biso   1.000  H
  H70      1.0000 0.25820  0.92210  0.29840  Biso   1.000  H
  H71      1.0000 0.24180  0.42210  0.20160  Biso   1.000  H
  H72      1.0000 0.75820  0.42210  0.29840  Biso   1.000  H
  H73      1.0000 0.33830  0.09190  0.81500  Biso   1.000  H
  H74      1.0000 0.66170  0.09190  0.68500  Biso   1.000  H
  H75      1.0000 0.83830  0.59190  0.81500  Biso   1.000  H
  H76      1.0000 0.16170  0.59190  0.68500  Biso   1.000  H
  H77      1.0000 0.66170  0.90810  0.18500  Biso   1.000  H
  H78      1.0000 0.33830  0.90810  0.31500  Biso   1.000  H
  H79      1.0000 0.16170  0.40810  0.18500  Biso   1.000  H
  H80      1.0000 0.83830  0.40810  0.31500  Biso   1.000  H
  H81      1.0000 0.18390  0.25280  0.26060  Biso   1.000  H
  H82      1.0000 0.81610  0.25280  0.23940  Biso   1.000  H
  H83      1.0000 0.68390  0.75280  0.26060  Biso   1.000  H
  H84      1.0000 0.31610  0.75280  0.23940  Biso   1.000  H
  H85      1.0000 0.81610  0.74720  0.73940  Biso   1.000  H
  H86      1.0000 0.18390  0.74720  0.76060  Biso   1.000  H
  H87      1.0000 0.31610  0.24720  0.73940  Biso   1.000  H
  H88      1.0000 0.68390  0.24720  0.76060  Biso   1.000  H
  H89      1.0000 0.24450  0.31200  0.39720  Biso   1.000  H
  H90      1.0000 0.75550  0.31200  0.10280  Biso   1.000  H
  H91      1.0000 0.74450  0.81200  0.39720  Biso   1.000  H
  H92      1.0000 0.25550  0.81200  0.10280  Biso   1.000  H
  H93      1.0000 0.75550  0.68800  0.60280  Biso   1.000  H
  H94      1.0000 0.24450  0.68800  0.89720  Biso   1.000  H
  H95      1.0000 0.25550  0.18800  0.60280  Biso   1.000  H
  H96      1.0000 0.74450  0.18800  0.89720  Biso   1.000  H
  H97      1.0000 0.41800  0.21270  0.32160  Biso   1.000  H
  H98      1.0000 0.58200  0.21270  0.17840  Biso   1.000  H
  H99      1.0000 0.91800  0.71270  0.32160  Biso   1.000  H
  H100     1.0000 0.08200  0.71270  0.17840  Biso   1.000  H
  H101     1.0000 0.58200  0.78730  0.67840  Biso   1.000  H
  H102     1.0000 0.41800  0.78730  0.82160  Biso   1.000  H
  H103     1.0000 0.08200  0.28730  0.67840  Biso   1.000  H
  H104     1.0000 0.91800  0.28730  0.82160  Biso   1.000  H
  H105     1.0000 0.45230  0.11710  0.30440  Biso   1.000  H
  H106     1.0000 0.54770  0.11710  0.19560  Biso   1.000  H
  H107     1.0000 0.95230  0.61710  0.30440  Biso   1.000  H
  H108     1.0000 0.04770  0.61710  0.19560  Biso   1.000  H
  H109     1.0000 0.54770  0.88290  0.69560  Biso   1.000  H
  H110     1.0000 0.45230  0.88290  0.80440  Biso   1.000  H
  H111     1.0000 0.04770  0.38290  0.69560  Biso   1.000  H
  H112     1.0000 0.95230  0.38290  0.80440  Biso   1.000  H
  H113     1.0000 0.50270  0.17240  0.57650  Biso   1.000  H
  H114     1.0000 0.49730  0.17240  0.92350  Biso   1.000  H
  H115     1.0000 0.00270  0.67240  0.57650  Biso   1.000  H
  H116     1.0000 0.99730  0.67240  0.92350  Biso   1.000  H
  H117     1.0000 0.49730  0.82760  0.42350  Biso   1.000  H
  H118     1.0000 0.50270  0.82760  0.07650  Biso   1.000  H
  H119     1.0000 0.99730  0.32760  0.42350  Biso   1.000  H
  H120     1.0000 0.00270  0.32760  0.07650  Biso   1.000  H
  H121     1.0000 0.42640  0.16830  0.58500  Biso   1.000  H
  H122     1.0000 0.57360  0.16830  0.91500  Biso   1.000  H
  H123     1.0000 0.92640  0.66830  0.58500  Biso   1.000  H
  H124     1.0000 0.07360  0.66830  0.91500  Biso   1.000  H
  H125     1.0000 0.57360  0.83170  0.41500  Biso   1.000  H
  H126     1.0000 0.42640  0.83170  0.08500  Biso   1.000  H
  H127     1.0000 0.07360  0.33170  0.41500  Biso   1.000  H
  H128     1.0000 0.92640  0.33170  0.08500  Biso   1.000  H
  H129     1.0000 0.51900  0.34540  0.98900  Biso   1.000  H
  H130     1.0000 0.48100  0.34540  0.51100  Biso   1.000  H
  H131     1.0000 0.01900  0.84540  0.98900  Biso   1.000  H
  H132     1.0000 0.98100  0.84540  0.51100  Biso   1.000  H
  H133     1.0000 0.48100  0.65460  0.01100  Biso   1.000  H
  H134     1.0000 0.51900  0.65460  0.48900  Biso   1.000  H
  H135     1.0000 0.98100  0.15460  0.01100  Biso   1.000  H
  H136     1.0000 0.01900  0.15460  0.48900  Biso   1.000  H
  H137     1.0000 0.34740  0.47000  0.10000  Biso   1.000  H
  H138     1.0000 0.65260  0.47000  0.40000  Biso   1.000  H
  H139     1.0000 0.84740  0.97000  0.10000  Biso   1.000  H
  H140     1.0000 0.15260  0.97000  0.40000  Biso   1.000  H
  H141     1.0000 0.65260  0.53000  0.90000  Biso   1.000  H
  H142     1.0000 0.34740  0.53000  0.60000  Biso   1.000  H
  H143     1.0000 0.15260  0.03000  0.90000  Biso   1.000  H
  H144     1.0000 0.84740  0.03000  0.60000  Biso   1.000  H
