data_image0
_cell_length_a       3.6759
_cell_length_b       9.888
_cell_length_c       10.078
_cell_angle_alpha    65.275
_cell_angle_beta     79.648
_cell_angle_gamma    83.786

_symmetry_space_group_name_H-M    "P 1"
_symmetry_int_tables_number       1

loop_
  _symmetry_equiv_pos_as_xyz
  'x, y, z'

loop_
  _atom_site_label
  _atom_site_occupancy
  _atom_site_fract_x
  _atom_site_fract_y
  _atom_site_fract_z
  _atom_site_thermal_displace_type
  _atom_site_B_iso_or_equiv
  _atom_site_type_symbol
  Cu1      1.0000 0.08690  0.99980  0.57760  Biso   1.000  Cu
  O1       1.0000 0.68700  0.88210  0.72310  Biso   1.000  O
  H1       1.0000 0.77630  0.81070  0.79530  Biso   1.000  H
  H2       1.0000 0.53860  0.93730  0.75750  Biso   1.000  H
  O2       1.0000 0.49500  0.11770  0.42910  Biso   1.000  O
  H3       1.0000 0.56080  0.08240  0.36350  Biso   1.000  H
  H4       1.0000 0.42020  0.20880  0.38700  Biso   1.000  H
  O3       1.0000 0.16400  0.84920  0.49880  Biso   1.000  O
  O4       1.0000 0.00500  0.14820  0.65760  Biso   1.000  O
  O5       1.0000 0.87900  0.61500  0.92710  Biso   1.000  O
  O6       1.0000 0.95700  0.98570  0.28520  Biso   1.000  O
  O7       1.0000 0.30100  0.38030  0.22480  Biso   1.000  O
  O8       1.0000 0.23300  0.00870  0.87240  Biso   1.000  O
  C1       1.0000 0.10000  0.87200  0.37420  Biso   1.000  C
  C2       1.0000 0.08200  0.12640  0.78730  Biso   1.000  C
  N1       1.0000 0.01500  0.36960  0.98980  Biso   1.000  N
  H5       1.0000 0.06100  0.35830  0.07460  Biso   1.000  H
  N2       1.0000 0.15800  0.62730  0.16640  Biso   1.000  N
  H6       1.0000 0.10830  0.63420  0.08360  Biso   1.000  H
  C3       1.0000 0.33500  0.60860  0.42830  Biso   1.000  C
  H7       1.0000 0.38810  0.60400  0.51700  Biso   1.000  H
  C4       1.0000 0.89500  0.50580  0.89630  Biso   1.000  C
  C5       1.0000 0.83100  0.39360  0.73540  Biso   1.000  C
  H8       1.0000 0.74320  0.40060  0.65180  Biso   1.000  H
  C6       1.0000 0.28800  0.48970  0.26070  Biso   1.000  C
  C7       1.0000 0.06300  0.25250  0.95290  Biso   1.000  C
  H9       1.0000 0.14510  0.16250  0.02160  Biso   1.000  H
  C8       1.0000 0.10300  0.75270  0.19330  Biso   1.000  C
  H10      1.0000 0.00420  0.84040  0.12700  Biso   1.000  H
  C9       1.0000 0.78900  0.51500  0.76600  Biso   1.000  C
  H11      1.0000 0.69130  0.60390  0.70120  Biso   1.000  H
  C10      1.0000 0.19900  0.74480  0.31990  Biso   1.000  C
  C11      1.0000 0.00000  0.25540  0.82120  Biso   1.000  C
  C12      1.0000 0.38300  0.48710  0.39570  Biso   1.000  C
  H12      1.0000 0.48110  0.39910  0.46210  Biso   1.000  H
