data_image0
_cell_length_a       10.372
_cell_length_b       12.019
_cell_length_c       23.49
_cell_angle_alpha    90
_cell_angle_beta     100.437
_cell_angle_gamma    90

_symmetry_space_group_name_H-M    "P 1"
_symmetry_int_tables_number       1

loop_
  _symmetry_equiv_pos_as_xyz
  'x, y, z'

loop_
  _atom_site_label
  _atom_site_occupancy
  _atom_site_fract_x
  _atom_site_fract_y
  _atom_site_fract_z
  _atom_site_thermal_displace_type
  _atom_site_B_iso_or_equiv
  _atom_site_type_symbol
  C1       1.0000 0.82620  0.35610  0.54910  Biso   1.000  C
  C2       1.0000 0.67380  0.85610  0.95090  Biso   1.000  C
  C3       1.0000 0.17380  0.64390  0.45090  Biso   1.000  C
  C4       1.0000 0.32620  0.14390  0.04910  Biso   1.000  C
  H1       1.0000 0.74570  0.32300  0.53000  Biso   1.000  H
  H2       1.0000 0.75430  0.82300  0.97000  Biso   1.000  H
  H3       1.0000 0.25430  0.67700  0.47000  Biso   1.000  H
  H4       1.0000 0.24570  0.17700  0.03000  Biso   1.000  H
  H5       1.0000 0.81400  0.43470  0.55290  Biso   1.000  H
  H6       1.0000 0.68600  0.93470  0.94710  Biso   1.000  H
  H7       1.0000 0.18600  0.56530  0.44710  Biso   1.000  H
  H8       1.0000 0.31400  0.06530  0.05290  Biso   1.000  H
  H9       1.0000 0.85140  0.32360  0.58690  Biso   1.000  H
  H10      1.0000 0.64860  0.82360  0.91310  Biso   1.000  H
  H11      1.0000 0.14860  0.67640  0.41310  Biso   1.000  H
  H12      1.0000 0.35140  0.17640  0.08690  Biso   1.000  H
  C5       1.0000 0.88330  0.28140  0.46270  Biso   1.000  C
  C6       1.0000 0.61670  0.78140  0.03730  Biso   1.000  C
  C7       1.0000 0.11670  0.71860  0.53730  Biso   1.000  C
  C8       1.0000 0.38330  0.21860  0.96270  Biso   1.000  C
  H13      1.0000 0.79240  0.26230  0.45960  Biso   1.000  H
  H14      1.0000 0.70760  0.76230  0.04040  Biso   1.000  H
  H15      1.0000 0.20760  0.73770  0.54040  Biso   1.000  H
  H16      1.0000 0.29240  0.23770  0.95960  Biso   1.000  H
  H17      1.0000 0.93390  0.21500  0.46110  Biso   1.000  H
  H18      1.0000 0.56610  0.71500  0.03890  Biso   1.000  H
  H19      1.0000 0.06610  0.78500  0.53890  Biso   1.000  H
  H20      1.0000 0.43390  0.28500  0.96110  Biso   1.000  H
  H21      1.0000 0.89380  0.32960  0.43130  Biso   1.000  H
  H22      1.0000 0.60620  0.82960  0.06870  Biso   1.000  H
  H23      1.0000 0.10620  0.67040  0.56870  Biso   1.000  H
  H24      1.0000 0.39380  0.17040  0.93130  Biso   1.000  H
  C9       1.0000 0.49340  0.91720  0.59778  Biso   1.000  C
  C10      1.0000 0.00660  0.41720  0.90222  Biso   1.000  C
  C11      1.0000 0.50660  0.08280  0.40222  Biso   1.000  C
  C12      1.0000 0.99340  0.58280  0.09778  Biso   1.000  C
  C13      1.0000 0.89240  0.97200  0.57893  Biso   1.000  C
  C14      1.0000 0.60760  0.47200  0.92107  Biso   1.000  C
  C15      1.0000 0.10760  0.02800  0.42107  Biso   1.000  C
  C16      1.0000 0.39240  0.52800  0.07893  Biso   1.000  C
  C17      1.0000 0.80020  0.85890  0.79289  Biso   1.000  C
  C18      1.0000 0.69980  0.35890  0.70711  Biso   1.000  C
  C19      1.0000 0.19980  0.14110  0.20711  Biso   1.000  C
  C20      1.0000 0.30020  0.64110  0.29289  Biso   1.000  C
  H25      1.0000 0.72000  0.90230  0.78630  Biso   1.000  H
  H26      1.0000 0.78000  0.40230  0.71370  Biso   1.000  H
  H27      1.0000 0.28000  0.09770  0.21370  Biso   1.000  H
  H28      1.0000 0.22000  0.59770  0.28630  Biso   1.000  H
  H29      1.0000 0.79730  0.81090  0.82580  Biso   1.000  H
  H30      1.0000 0.70270  0.31090  0.67420  Biso   1.000  H
  H31      1.0000 0.20270  0.18910  0.17420  Biso   1.000  H
  H32      1.0000 0.29730  0.68910  0.32580  Biso   1.000  H
  C21      1.0000 0.04230  0.69130  0.96113  Biso   1.000  C
  C22      1.0000 0.45770  0.19130  0.53887  Biso   1.000  C
  C23      1.0000 0.95770  0.30870  0.03887  Biso   1.000  C
  C24      1.0000 0.54230  0.80870  0.46113  Biso   1.000  C
  C25      1.0000 0.80140  0.78610  0.74024  Biso   1.000  C
  C26      1.0000 0.69860  0.28610  0.75976  Biso   1.000  C
  C27      1.0000 0.19860  0.21390  0.25976  Biso   1.000  C
  C28      1.0000 0.30140  0.71390  0.24024  Biso   1.000  C
  C29      1.0000 0.90540  0.63890  0.68925  Biso   1.000  C
  C30      1.0000 0.59460  0.13890  0.81075  Biso   1.000  C
  C31      1.0000 0.09460  0.36110  0.31075  Biso   1.000  C
  C32      1.0000 0.40540  0.86110  0.18925  Biso   1.000  C
  C33      1.0000 0.90360  0.70570  0.73924  Biso   1.000  C
  C34      1.0000 0.59640  0.20570  0.76076  Biso   1.000  C
  C35      1.0000 0.09640  0.29430  0.26076  Biso   1.000  C
  C36      1.0000 0.40360  0.79430  0.23924  Biso   1.000  C
  C37      1.0000 0.70260  0.79130  0.69241  Biso   1.000  C
  C38      1.0000 0.79740  0.29130  0.80759  Biso   1.000  C
  C39      1.0000 0.29740  0.20870  0.30759  Biso   1.000  C
  C40      1.0000 0.20260  0.70870  0.19241  Biso   1.000  C
  C41      1.0000 0.91460  0.93770  0.80863  Biso   1.000  C
  C42      1.0000 0.58540  0.43770  0.69137  Biso   1.000  C
  C43      1.0000 0.08540  0.06230  0.19137  Biso   1.000  C
  C44      1.0000 0.41460  0.56230  0.30863  Biso   1.000  C
  C45      1.0000 0.93690  0.02510  0.77104  Biso   1.000  C
  C46      1.0000 0.56310  0.52510  0.72896  Biso   1.000  C
  C47      1.0000 0.06310  0.97490  0.22896  Biso   1.000  C
  C48      1.0000 0.43690  0.47490  0.27104  Biso   1.000  C
  C49      1.0000 0.00000  0.92770  0.86154  Biso   1.000  C
  C50      1.0000 0.50000  0.42770  0.63846  Biso   1.000  C
  C51      1.0000 0.00000  0.07230  0.13846  Biso   1.000  C
  C52      1.0000 0.50000  0.57230  0.36154  Biso   1.000  C
  C53      1.0000 0.48590  0.86160  0.65449  Biso   1.000  C
  C54      1.0000 0.01410  0.36160  0.84551  Biso   1.000  C
  C55      1.0000 0.51410  0.13840  0.34551  Biso   1.000  C
  C56      1.0000 0.98590  0.63840  0.15449  Biso   1.000  C
  H33      1.0000 0.41640  0.89650  0.67080  Biso   1.000  H
  H34      1.0000 0.08360  0.39650  0.82920  Biso   1.000  H
  H35      1.0000 0.58360  0.10350  0.32920  Biso   1.000  H
  H36      1.0000 0.91640  0.60350  0.17080  Biso   1.000  H
  H37      1.0000 0.46200  0.78430  0.64710  Biso   1.000  H
  H38      1.0000 0.03800  0.28430  0.85290  Biso   1.000  H
  H39      1.0000 0.53800  0.21570  0.35290  Biso   1.000  H
  H40      1.0000 0.96200  0.71570  0.14710  Biso   1.000  H
  C57      1.0000 0.80110  0.65130  0.64132  Biso   1.000  C
  C58      1.0000 0.69890  0.15130  0.85868  Biso   1.000  C
  C59      1.0000 0.19890  0.34870  0.35868  Biso   1.000  C
  C60      1.0000 0.30110  0.84870  0.14132  Biso   1.000  C
  H41      1.0000 0.80060  0.60850  0.60830  Biso   1.000  H
  H42      1.0000 0.69940  0.10850  0.89170  Biso   1.000  H
  H43      1.0000 0.19940  0.39150  0.39170  Biso   1.000  H
  H44      1.0000 0.30060  0.89150  0.10830  Biso   1.000  H
  C61      1.0000 0.00460  0.68590  0.78772  Biso   1.000  C
  C62      1.0000 0.49540  0.18590  0.71228  Biso   1.000  C
  C63      1.0000 0.99540  0.31410  0.21228  Biso   1.000  C
  C64      1.0000 0.50460  0.81410  0.28772  Biso   1.000  C
  H45      1.0000 0.00460  0.72560  0.82170  Biso   1.000  H
  H46      1.0000 0.49540  0.22560  0.67830  Biso   1.000  H
  H47      1.0000 0.99540  0.27440  0.17830  Biso   1.000  H
  H48      1.0000 0.50460  0.77440  0.32170  Biso   1.000  H
  C65      1.0000 0.84900  0.04760  0.71825  Biso   1.000  C
  C66      1.0000 0.65100  0.54760  0.78175  Biso   1.000  C
  C67      1.0000 0.15100  0.95240  0.28175  Biso   1.000  C
  C68      1.0000 0.34900  0.45240  0.21825  Biso   1.000  C
  H49      1.0000 0.77390  0.00460  0.70790  Biso   1.000  H
  H50      1.0000 0.72610  0.50460  0.79210  Biso   1.000  H
  H51      1.0000 0.22610  0.99540  0.29210  Biso   1.000  H
  H52      1.0000 0.27390  0.49540  0.20790  Biso   1.000  H
  C69      1.0000 0.11130  0.99650  0.87537  Biso   1.000  C
  C70      1.0000 0.38870  0.49650  0.62463  Biso   1.000  C
  C71      1.0000 0.88870  0.00350  0.12463  Biso   1.000  C
  C72      1.0000 0.61130  0.50350  0.37537  Biso   1.000  C
  H53      1.0000 0.16810  0.98770  0.91060  Biso   1.000  H
  H54      1.0000 0.33190  0.48770  0.58940  Biso   1.000  H
  H55      1.0000 0.83190  0.01230  0.08940  Biso   1.000  H
  H56      1.0000 0.66810  0.51230  0.41060  Biso   1.000  H
  C73      1.0000 0.07860  0.80030  0.93900  Biso   1.000  C
  C74      1.0000 0.42140  0.30030  0.56100  Biso   1.000  C
  C75      1.0000 0.92140  0.19970  0.06100  Biso   1.000  C
  C76      1.0000 0.57860  0.69970  0.43900  Biso   1.000  C
  H57      1.0000 0.10400  0.85110  0.97120  Biso   1.000  H
  H58      1.0000 0.39600  0.35110  0.52880  Biso   1.000  H
  H59      1.0000 0.89600  0.14890  0.02880  Biso   1.000  H
  H60      1.0000 0.60400  0.64890  0.47120  Biso   1.000  H
  H61      1.0000 0.15320  0.79070  0.91980  Biso   1.000  H
  H62      1.0000 0.34680  0.29070  0.58020  Biso   1.000  H
  H63      1.0000 0.84680  0.20930  0.08020  Biso   1.000  H
  H64      1.0000 0.65320  0.70930  0.41980  Biso   1.000  H
  C77      1.0000 0.87410  0.13250  0.68241  Biso   1.000  C
  C78      1.0000 0.62590  0.63250  0.81759  Biso   1.000  C
  C79      1.0000 0.12590  0.86750  0.31759  Biso   1.000  C
  C80      1.0000 0.37410  0.36750  0.18241  Biso   1.000  C
  H65      1.0000 0.81450  0.14690  0.64860  Biso   1.000  H
  H66      1.0000 0.68550  0.64690  0.85140  Biso   1.000  H
  H67      1.0000 0.18550  0.85310  0.35140  Biso   1.000  H
  H68      1.0000 0.31450  0.35310  0.14860  Biso   1.000  H
  C81      1.0000 0.98660  0.19670  0.69580  Biso   1.000  C
  C82      1.0000 0.51340  0.69670  0.80420  Biso   1.000  C
  C83      1.0000 0.01340  0.80330  0.30420  Biso   1.000  C
  C84      1.0000 0.48660  0.30330  0.19580  Biso   1.000  C
  H69      1.0000 0.00300  0.25220  0.67050  Biso   1.000  H
  H70      1.0000 0.49700  0.75220  0.82950  Biso   1.000  H
  H71      1.0000 0.99700  0.74780  0.32950  Biso   1.000  H
  H72      1.0000 0.50300  0.24780  0.17050  Biso   1.000  H
  C85      1.0000 0.00830  0.56130  0.68880  Biso   1.000  C
  C86      1.0000 0.49170  0.06130  0.81120  Biso   1.000  C
  C87      1.0000 0.99170  0.43870  0.31120  Biso   1.000  C
  C88      1.0000 0.50830  0.93870  0.18880  Biso   1.000  C
  H73      1.0000 0.01040  0.51920  0.65580  Biso   1.000  H
  H74      1.0000 0.48960  0.01920  0.84420  Biso   1.000  H
  H75      1.0000 0.98960  0.48080  0.34420  Biso   1.000  H
  H76      1.0000 0.51040  0.98080  0.15580  Biso   1.000  H
  C89      1.0000 0.70250  0.72420  0.64279  Biso   1.000  C
  C90      1.0000 0.79750  0.22420  0.85721  Biso   1.000  C
  C91      1.0000 0.29750  0.27580  0.35721  Biso   1.000  C
  C92      1.0000 0.20250  0.77580  0.14279  Biso   1.000  C
  H77      1.0000 0.63450  0.73030  0.61120  Biso   1.000  H
  H78      1.0000 0.86550  0.23030  0.88880  Biso   1.000  H
  H79      1.0000 0.36550  0.26970  0.38880  Biso   1.000  H
  H80      1.0000 0.13450  0.76970  0.11120  Biso   1.000  H
  C93      1.0000 0.13590  0.07560  0.83756  Biso   1.000  C
  C94      1.0000 0.36410  0.57560  0.66244  Biso   1.000  C
  C95      1.0000 0.86410  0.92440  0.16244  Biso   1.000  C
  C96      1.0000 0.63590  0.42440  0.33756  Biso   1.000  C
  H81      1.0000 0.21110  0.11890  0.84680  Biso   1.000  H
  H82      1.0000 0.28890  0.61890  0.65320  Biso   1.000  H
  H83      1.0000 0.78890  0.88110  0.15320  Biso   1.000  H
  H84      1.0000 0.71110  0.38110  0.34680  Biso   1.000  H
  C97      1.0000 0.05020  0.09330  0.78473  Biso   1.000  C
  C98      1.0000 0.44980  0.59330  0.71527  Biso   1.000  C
  C99      1.0000 0.94980  0.90670  0.21527  Biso   1.000  C
  C100     1.0000 0.55020  0.40670  0.28473  Biso   1.000  C
  C101     1.0000 0.10310  0.54800  0.73570  Biso   1.000  C
  C102     1.0000 0.39690  0.04800  0.76430  Biso   1.000  C
  C103     1.0000 0.89690  0.45200  0.26430  Biso   1.000  C
  C104     1.0000 0.60310  0.95200  0.23570  Biso   1.000  C
  H85      1.0000 0.17020  0.49700  0.73480  Biso   1.000  H
  H86      1.0000 0.32980  0.99700  0.76520  Biso   1.000  H
  H87      1.0000 0.82980  0.50300  0.26520  Biso   1.000  H
  H88      1.0000 0.67020  0.00300  0.23480  Biso   1.000  H
  C105     1.0000 0.10110  0.61050  0.78570  Biso   1.000  C
  C106     1.0000 0.39890  0.11050  0.71430  Biso   1.000  C
  C107     1.0000 0.89890  0.38950  0.21430  Biso   1.000  C
  C108     1.0000 0.60110  0.88950  0.28570  Biso   1.000  C
  H89      1.0000 0.16670  0.60030  0.81790  Biso   1.000  H
  H90      1.0000 0.33330  0.10030  0.68210  Biso   1.000  H
  H91      1.0000 0.83330  0.39970  0.18210  Biso   1.000  H
  H92      1.0000 0.66670  0.89970  0.31790  Biso   1.000  H
  C109     1.0000 0.07350  0.17860  0.74610  Biso   1.000  C
  C110     1.0000 0.42650  0.67860  0.75390  Biso   1.000  C
  C111     1.0000 0.92650  0.82140  0.25390  Biso   1.000  C
  C112     1.0000 0.57350  0.32140  0.24610  Biso   1.000  C
  H93      1.0000 0.14830  0.22250  0.75500  Biso   1.000  H
  H94      1.0000 0.35170  0.72250  0.74500  Biso   1.000  H
  H95      1.0000 0.85170  0.77750  0.24500  Biso   1.000  H
  H96      1.0000 0.64830  0.27750  0.25500  Biso   1.000  H
  C113     1.0000 0.10040  0.06330  0.58025  Biso   1.000  C
  C114     1.0000 0.39960  0.56330  0.91975  Biso   1.000  C
  C115     1.0000 0.89960  0.93670  0.41975  Biso   1.000  C
  C116     1.0000 0.60040  0.43670  0.08025  Biso   1.000  C
  H97      1.0000 0.05020  0.10250  0.54810  Biso   1.000  H
  H98      1.0000 0.44980  0.60250  0.95190  Biso   1.000  H
  H99      1.0000 0.94980  0.89750  0.45190  Biso   1.000  H
  H100     1.0000 0.55020  0.39750  0.04810  Biso   1.000  H
  H101     1.0000 0.17610  0.03070  0.56870  Biso   1.000  H
  H102     1.0000 0.32390  0.53070  0.93130  Biso   1.000  H
  H103     1.0000 0.82390  0.96930  0.43130  Biso   1.000  H
  H104     1.0000 0.67610  0.46930  0.06870  Biso   1.000  H
  H105     1.0000 0.12770  0.11420  0.61160  Biso   1.000  H
  H106     1.0000 0.37230  0.61420  0.88840  Biso   1.000  H
  H107     1.0000 0.87230  0.88580  0.38840  Biso   1.000  H
  H108     1.0000 0.62770  0.38580  0.11160  Biso   1.000  H
  C117     1.0000 0.08200  0.90800  0.64781  Biso   1.000  C
  C118     1.0000 0.41800  0.40800  0.85219  Biso   1.000  C
  C119     1.0000 0.91800  0.09200  0.35219  Biso   1.000  C
  C120     1.0000 0.58200  0.59200  0.14781  Biso   1.000  C
  H109     1.0000 0.02040  0.85340  0.65610  Biso   1.000  H
  H110     1.0000 0.47960  0.35340  0.84390  Biso   1.000  H
  H111     1.0000 0.97960  0.14660  0.34390  Biso   1.000  H
  H112     1.0000 0.52040  0.64660  0.15610  Biso   1.000  H
  H113     1.0000 0.10840  0.95440  0.68120  Biso   1.000  H
  H114     1.0000 0.39160  0.45440  0.81880  Biso   1.000  H
  H115     1.0000 0.89160  0.04560  0.31880  Biso   1.000  H
  H116     1.0000 0.60840  0.54560  0.18120  Biso   1.000  H
  H117     1.0000 0.15750  0.87120  0.63830  Biso   1.000  H
  H118     1.0000 0.34250  0.37120  0.86170  Biso   1.000  H
  H119     1.0000 0.84250  0.12880  0.36170  Biso   1.000  H
  H120     1.0000 0.65750  0.62880  0.13830  Biso   1.000  H
  O1       1.0000 0.38630  0.91930  0.56188  Biso   1.000  O
  O2       1.0000 0.11370  0.41930  0.93812  Biso   1.000  O
  O3       1.0000 0.61370  0.08070  0.43812  Biso   1.000  O
  O4       1.0000 0.88630  0.58070  0.06188  Biso   1.000  O
  O5       1.0000 0.83240  0.03500  0.54233  Biso   1.000  O
  O6       1.0000 0.66760  0.53500  0.95767  Biso   1.000  O
  O7       1.0000 0.16760  0.96500  0.45767  Biso   1.000  O
  O8       1.0000 0.33240  0.46500  0.04233  Biso   1.000  O
  O9       1.0000 0.60330  0.86600  0.69599  Biso   1.000  O
  O10      1.0000 0.89670  0.36600  0.80401  Biso   1.000  O
  O11      1.0000 0.39670  0.13400  0.30401  Biso   1.000  O
  O12      1.0000 0.10330  0.63400  0.19599  Biso   1.000  O
  O13      1.0000 0.60130  0.95450  0.58998  Biso   1.000  O
  O14      1.0000 0.89870  0.45450  0.91002  Biso   1.000  O
  O15      1.0000 0.39870  0.04550  0.41002  Biso   1.000  O
  O16      1.0000 0.10130  0.54550  0.08998  Biso   1.000  O
  O17      1.0000 0.92400  0.66480  0.95594  Biso   1.000  O
  O18      1.0000 0.57600  0.16480  0.54406  Biso   1.000  O
  O19      1.0000 0.07600  0.33520  0.04406  Biso   1.000  O
  O20      1.0000 0.42400  0.83520  0.45594  Biso   1.000  O
  O21      1.0000 0.13920  0.63410  0.98480  Biso   1.000  O
  O22      1.0000 0.36080  0.13410  0.51520  Biso   1.000  O
  O23      1.0000 0.86080  0.36590  0.01520  Biso   1.000  O
  O24      1.0000 0.63920  0.86590  0.48480  Biso   1.000  O
  O25      1.0000 0.97100  0.84670  0.89905  Biso   1.000  O
  O26      1.0000 0.52900  0.34670  0.60095  Biso   1.000  O
  O27      1.0000 0.02900  0.15330  0.10095  Biso   1.000  O
  O28      1.0000 0.47100  0.65330  0.39905  Biso   1.000  O
  Cu1      1.0000 0.62705  0.01910  0.51603  Biso   1.000  Cu
  Cu2      1.0000 0.87295  0.51910  0.98397  Biso   1.000  Cu
  Cu3      1.0000 0.37295  0.98090  0.48397  Biso   1.000  Cu
  Cu4      1.0000 0.12705  0.48090  0.01603  Biso   1.000  Cu
  N1       1.0000 0.92710  0.33640  0.51573  Biso   1.000  N
  N2       1.0000 0.57290  0.83640  0.98427  Biso   1.000  N
  N3       1.0000 0.07290  0.66360  0.48427  Biso   1.000  N
  N4       1.0000 0.42710  0.16360  0.01573  Biso   1.000  N
  N5       1.0000 0.02070  0.97650  0.59888  Biso   1.000  N
  N6       1.0000 0.47930  0.47650  0.90112  Biso   1.000  N
  N7       1.0000 0.97930  0.02350  0.40112  Biso   1.000  N
  N8       1.0000 0.52070  0.52350  0.09888  Biso   1.000  N
  C121     1.0000 0.05020  0.37560  0.53490  Biso   1.000  C
  C122     1.0000 0.44980  0.87560  0.96510  Biso   1.000  C
  C123     1.0000 0.94980  0.62440  0.46510  Biso   1.000  C
  C124     1.0000 0.55020  0.12440  0.03490  Biso   1.000  C
  O29      1.0000 0.09200  0.40910  0.57840  Biso   1.000  O
  O30      1.0000 0.40800  0.90910  0.92160  Biso   1.000  O
  O31      1.0000 0.90800  0.59090  0.42160  Biso   1.000  O
  O32      1.0000 0.59200  0.09090  0.07840  Biso   1.000  O
  H121     1.0000 0.85200  0.91300  0.60160  Biso   1.000  H
  H122     1.0000 0.64800  0.41300  0.89840  Biso   1.000  H
  H123     1.0000 0.14800  0.08700  0.39840  Biso   1.000  H
  H124     1.0000 0.35200  0.58700  0.10160  Biso   1.000  H
  O33      1.0000 0.13680  0.39150  0.50800  Biso   1.000  O
  O34      1.0000 0.36320  0.89150  0.99200  Biso   1.000  O
  O35      1.0000 0.86320  0.60850  0.49200  Biso   1.000  O
  O36      1.0000 0.63680  0.10850  0.00800  Biso   1.000  O
