data_image0
_cell_length_a       18.363
_cell_length_b       17.628
_cell_length_c       19.958
_cell_angle_alpha    90
_cell_angle_beta     90
_cell_angle_gamma    90

_symmetry_space_group_name_H-M    "P 1"
_symmetry_int_tables_number       1

loop_
  _symmetry_equiv_pos_as_xyz
  'x, y, z'

loop_
  _atom_site_label
  _atom_site_occupancy
  _atom_site_fract_x
  _atom_site_fract_y
  _atom_site_fract_z
  _atom_site_thermal_displace_type
  _atom_site_B_iso_or_equiv
  _atom_site_type_symbol
  Cu1      1.0000 0.56032  0.10064  0.03236  Biso   1.000  Cu
  Cu2      1.0000 0.93968  0.89936  0.53236  Biso   1.000  Cu
  Cu3      1.0000 0.06032  0.39936  0.96764  Biso   1.000  Cu
  Cu4      1.0000 0.43968  0.60064  0.46764  Biso   1.000  Cu
  Cu5      1.0000 0.43968  0.89936  0.96764  Biso   1.000  Cu
  Cu6      1.0000 0.06032  0.10064  0.46764  Biso   1.000  Cu
  Cu7      1.0000 0.93968  0.60064  0.03236  Biso   1.000  Cu
  Cu8      1.0000 0.56032  0.39936  0.53236  Biso   1.000  Cu
  O1       1.0000 0.55909  0.67614  0.70158  Biso   1.000  O
  O2       1.0000 0.94091  0.32386  0.20158  Biso   1.000  O
  O3       1.0000 0.05909  0.82386  0.29842  Biso   1.000  O
  O4       1.0000 0.44091  0.17614  0.79842  Biso   1.000  O
  O5       1.0000 0.44091  0.32386  0.29842  Biso   1.000  O
  O6       1.0000 0.05909  0.67614  0.79842  Biso   1.000  O
  O7       1.0000 0.94091  0.17614  0.70158  Biso   1.000  O
  O8       1.0000 0.55909  0.82386  0.20158  Biso   1.000  O
  O9       1.0000 0.59161  0.97415  0.02431  Biso   1.000  O
  O10      1.0000 0.90839  0.02585  0.52431  Biso   1.000  O
  O11      1.0000 0.09161  0.52585  0.97569  Biso   1.000  O
  O12      1.0000 0.40839  0.47415  0.47569  Biso   1.000  O
  O13      1.0000 0.40839  0.02585  0.97569  Biso   1.000  O
  O14      1.0000 0.09161  0.97415  0.47569  Biso   1.000  O
  O15      1.0000 0.90839  0.47415  0.02431  Biso   1.000  O
  O16      1.0000 0.59161  0.52585  0.52431  Biso   1.000  O
  O17      1.0000 0.52932  0.71346  0.56853  Biso   1.000  O
  O18      1.0000 0.97068  0.28654  0.06853  Biso   1.000  O
  O19      1.0000 0.02932  0.78654  0.43147  Biso   1.000  O
  O20      1.0000 0.47068  0.21346  0.93147  Biso   1.000  O
  O21      1.0000 0.47068  0.28654  0.43147  Biso   1.000  O
  O22      1.0000 0.02932  0.71346  0.93147  Biso   1.000  O
  O23      1.0000 0.97068  0.21346  0.56853  Biso   1.000  O
  O24      1.0000 0.52932  0.78654  0.06853  Biso   1.000  O
  O25      1.0000 0.67578  0.86547  0.89403  Biso   1.000  O
  O26      1.0000 0.82422  0.13453  0.39403  Biso   1.000  O
  O27      1.0000 0.17578  0.63453  0.10597  Biso   1.000  O
  O28      1.0000 0.32422  0.36547  0.60597  Biso   1.000  O
  O29      1.0000 0.32422  0.13453  0.10597  Biso   1.000  O
  O30      1.0000 0.17578  0.86547  0.60597  Biso   1.000  O
  O31      1.0000 0.82422  0.36547  0.89403  Biso   1.000  O
  O32      1.0000 0.67578  0.63453  0.39403  Biso   1.000  O
  O33      1.0000 0.45429  0.61270  0.56206  Biso   1.000  O
  O34      1.0000 0.04571  0.38730  0.06206  Biso   1.000  O
  O35      1.0000 0.95429  0.88730  0.43794  Biso   1.000  O
  O36      1.0000 0.54571  0.11270  0.93794  Biso   1.000  O
  O37      1.0000 0.54571  0.38730  0.43794  Biso   1.000  O
  O38      1.0000 0.95429  0.61270  0.93794  Biso   1.000  O
  O39      1.0000 0.04571  0.11270  0.56206  Biso   1.000  O
  O40      1.0000 0.45429  0.88730  0.06206  Biso   1.000  O
  O41      1.0000 0.54239  0.90238  0.94212  Biso   1.000  O
  O42      1.0000 0.95761  0.09762  0.44212  Biso   1.000  O
  O43      1.0000 0.04239  0.59762  0.05788  Biso   1.000  O
  O44      1.0000 0.45761  0.40238  0.55788  Biso   1.000  O
  O45      1.0000 0.45761  0.09762  0.05788  Biso   1.000  O
  O46      1.0000 0.04239  0.90238  0.55788  Biso   1.000  O
  O47      1.0000 0.95761  0.40238  0.94212  Biso   1.000  O
  O48      1.0000 0.54239  0.59762  0.44212  Biso   1.000  O
  C1       1.0000 0.58324  0.01249  0.66039  Biso   1.000  C
  C2       1.0000 0.91676  0.98751  0.16039  Biso   1.000  C
  C3       1.0000 0.08324  0.48751  0.33961  Biso   1.000  C
  C4       1.0000 0.41676  0.51249  0.83961  Biso   1.000  C
  C5       1.0000 0.41676  0.98751  0.33961  Biso   1.000  C
  C6       1.0000 0.08324  0.01249  0.83961  Biso   1.000  C
  C7       1.0000 0.91676  0.51249  0.66039  Biso   1.000  C
  C8       1.0000 0.58324  0.48751  0.16039  Biso   1.000  C
  H1       1.0000 0.59060  0.06550  0.65500  Biso   1.000  H
  H2       1.0000 0.90940  0.93450  0.15500  Biso   1.000  H
  H3       1.0000 0.09060  0.43450  0.34500  Biso   1.000  H
  H4       1.0000 0.40940  0.56550  0.84500  Biso   1.000  H
  H5       1.0000 0.40940  0.93450  0.34500  Biso   1.000  H
  H6       1.0000 0.09060  0.06550  0.84500  Biso   1.000  H
  H7       1.0000 0.90940  0.56550  0.65500  Biso   1.000  H
  H8       1.0000 0.59060  0.43450  0.15500  Biso   1.000  H
  C9       1.0000 0.66209  0.98229  0.82957  Biso   1.000  C
  C10      1.0000 0.83791  0.01771  0.32957  Biso   1.000  C
  C11      1.0000 0.16209  0.51771  0.17043  Biso   1.000  C
  C12      1.0000 0.33791  0.48229  0.67043  Biso   1.000  C
  C13      1.0000 0.33791  0.01771  0.17043  Biso   1.000  C
  C14      1.0000 0.16209  0.98229  0.67043  Biso   1.000  C
  C15      1.0000 0.83791  0.48229  0.82957  Biso   1.000  C
  C16      1.0000 0.66209  0.51771  0.32957  Biso   1.000  C
  H9       1.0000 0.68220  0.01110  0.86530  Biso   1.000  H
  H10      1.0000 0.81780  0.98890  0.36530  Biso   1.000  H
  H11      1.0000 0.18220  0.48890  0.13470  Biso   1.000  H
  H12      1.0000 0.31780  0.51110  0.63470  Biso   1.000  H
  H13      1.0000 0.31780  0.98890  0.13470  Biso   1.000  H
  H14      1.0000 0.18220  0.01110  0.63470  Biso   1.000  H
  H15      1.0000 0.81780  0.51110  0.86530  Biso   1.000  H
  H16      1.0000 0.68220  0.48890  0.36530  Biso   1.000  H
  N1       1.0000 0.59173  0.08856  0.12783  Biso   1.000  N
  N2       1.0000 0.90827  0.91144  0.62783  Biso   1.000  N
  N3       1.0000 0.09173  0.41144  0.87217  Biso   1.000  N
  N4       1.0000 0.40827  0.58856  0.37217  Biso   1.000  N
  N5       1.0000 0.40827  0.91144  0.87217  Biso   1.000  N
  N6       1.0000 0.09173  0.08856  0.37217  Biso   1.000  N
  N7       1.0000 0.90827  0.58856  0.12783  Biso   1.000  N
  N8       1.0000 0.59173  0.41144  0.62783  Biso   1.000  N
  N9       1.0000 0.66476  0.13390  0.02346  Biso   1.000  N
  N10      1.0000 0.83524  0.86610  0.52346  Biso   1.000  N
  N11      1.0000 0.16476  0.36610  0.97654  Biso   1.000  N
  N12      1.0000 0.33524  0.63390  0.47654  Biso   1.000  N
  N13      1.0000 0.33524  0.86610  0.97654  Biso   1.000  N
  N14      1.0000 0.16476  0.13390  0.47654  Biso   1.000  N
  N15      1.0000 0.83524  0.63390  0.02346  Biso   1.000  N
  N16      1.0000 0.66476  0.36610  0.52346  Biso   1.000  N
  C17      1.0000 0.63348  0.68330  0.69483  Biso   1.000  C
  C18      1.0000 0.86652  0.31670  0.19483  Biso   1.000  C
  C19      1.0000 0.13348  0.81670  0.30517  Biso   1.000  C
  C20      1.0000 0.36652  0.18330  0.80517  Biso   1.000  C
  C21      1.0000 0.36652  0.31670  0.30517  Biso   1.000  C
  C22      1.0000 0.13348  0.68330  0.80517  Biso   1.000  C
  C23      1.0000 0.86652  0.18330  0.69483  Biso   1.000  C
  C24      1.0000 0.63348  0.81670  0.19483  Biso   1.000  C
  C25      1.0000 0.70466  0.12591  0.07965  Biso   1.000  C
  C26      1.0000 0.79534  0.87409  0.57965  Biso   1.000  C
  C27      1.0000 0.20466  0.37409  0.92035  Biso   1.000  C
  C28      1.0000 0.29534  0.62591  0.42035  Biso   1.000  C
  C29      1.0000 0.29534  0.87409  0.92035  Biso   1.000  C
  C30      1.0000 0.20466  0.12591  0.42035  Biso   1.000  C
  C31      1.0000 0.79534  0.62591  0.07965  Biso   1.000  C
  C32      1.0000 0.70466  0.37409  0.57965  Biso   1.000  C
  C33      1.0000 0.74660  0.65834  0.63903  Biso   1.000  C
  C34      1.0000 0.75340  0.34166  0.13903  Biso   1.000  C
  C35      1.0000 0.24660  0.84166  0.36097  Biso   1.000  C
  C36      1.0000 0.25340  0.15834  0.86097  Biso   1.000  C
  C37      1.0000 0.25340  0.34166  0.36097  Biso   1.000  C
  C38      1.0000 0.24660  0.65834  0.86097  Biso   1.000  C
  C39      1.0000 0.75340  0.15834  0.63903  Biso   1.000  C
  C40      1.0000 0.74660  0.84166  0.13903  Biso   1.000  C
  H17      1.0000 0.77270  0.63630  0.60280  Biso   1.000  H
  H18      1.0000 0.72730  0.36370  0.10280  Biso   1.000  H
  H19      1.0000 0.27270  0.86370  0.39720  Biso   1.000  H
  H20      1.0000 0.22730  0.13630  0.89720  Biso   1.000  H
  H21      1.0000 0.22730  0.36370  0.39720  Biso   1.000  H
  H22      1.0000 0.27270  0.63630  0.89720  Biso   1.000  H
  H23      1.0000 0.72730  0.13630  0.60280  Biso   1.000  H
  H24      1.0000 0.77270  0.86370  0.10280  Biso   1.000  H
  C41      1.0000 0.67305  0.64717  0.64373  Biso   1.000  C
  C42      1.0000 0.82695  0.35283  0.14373  Biso   1.000  C
  C43      1.0000 0.17305  0.85283  0.35627  Biso   1.000  C
  C44      1.0000 0.32695  0.14717  0.85627  Biso   1.000  C
  C45      1.0000 0.32695  0.35283  0.35627  Biso   1.000  C
  C46      1.0000 0.17305  0.64717  0.85627  Biso   1.000  C
  C47      1.0000 0.82695  0.14717  0.64373  Biso   1.000  C
  C48      1.0000 0.67305  0.85283  0.14373  Biso   1.000  C
  H25      1.0000 0.64890  0.61510  0.61260  Biso   1.000  H
  H26      1.0000 0.85110  0.38490  0.11260  Biso   1.000  H
  H27      1.0000 0.14890  0.88490  0.38740  Biso   1.000  H
  H28      1.0000 0.35110  0.11510  0.88740  Biso   1.000  H
  H29      1.0000 0.35110  0.38490  0.38740  Biso   1.000  H
  H30      1.0000 0.14890  0.61510  0.88740  Biso   1.000  H
  H31      1.0000 0.85110  0.11510  0.61260  Biso   1.000  H
  H32      1.0000 0.64890  0.88490  0.11260  Biso   1.000  H
  C49      1.0000 0.56258  0.85724  0.67442  Biso   1.000  C
  C50      1.0000 0.93742  0.14276  0.17442  Biso   1.000  C
  C51      1.0000 0.06258  0.64276  0.32558  Biso   1.000  C
  C52      1.0000 0.43742  0.35724  0.82558  Biso   1.000  C
  C53      1.0000 0.43742  0.14276  0.32558  Biso   1.000  C
  C54      1.0000 0.06258  0.85724  0.82558  Biso   1.000  C
  C55      1.0000 0.93742  0.35724  0.67442  Biso   1.000  C
  C56      1.0000 0.56258  0.64276  0.17442  Biso   1.000  C
  H33      1.0000 0.55470  0.80420  0.67830  Biso   1.000  H
  H34      1.0000 0.94530  0.19580  0.17830  Biso   1.000  H
  H35      1.0000 0.05470  0.69580  0.32170  Biso   1.000  H
  H36      1.0000 0.44530  0.30420  0.82170  Biso   1.000  H
  H37      1.0000 0.44530  0.19580  0.32170  Biso   1.000  H
  H38      1.0000 0.05470  0.80420  0.82170  Biso   1.000  H
  H39      1.0000 0.94530  0.30420  0.67830  Biso   1.000  H
  H40      1.0000 0.55470  0.69580  0.17830  Biso   1.000  H
  C57      1.0000 0.69730  0.07090  0.19613  Biso   1.000  C
  C58      1.0000 0.80270  0.92910  0.69613  Biso   1.000  C
  C59      1.0000 0.19730  0.42910  0.80387  Biso   1.000  C
  C60      1.0000 0.30270  0.57090  0.30387  Biso   1.000  C
  C61      1.0000 0.30270  0.92910  0.80387  Biso   1.000  C
  C62      1.0000 0.19730  0.07090  0.30387  Biso   1.000  C
  C63      1.0000 0.80270  0.57090  0.19613  Biso   1.000  C
  C64      1.0000 0.69730  0.42910  0.69613  Biso   1.000  C
  H41      1.0000 0.74870  0.07350  0.20120  Biso   1.000  H
  H42      1.0000 0.75130  0.92650  0.70120  Biso   1.000  H
  H43      1.0000 0.24870  0.42650  0.79880  Biso   1.000  H
  H44      1.0000 0.25130  0.57350  0.29880  Biso   1.000  H
  H45      1.0000 0.25130  0.92650  0.79880  Biso   1.000  H
  H46      1.0000 0.24870  0.07350  0.29880  Biso   1.000  H
  H47      1.0000 0.75130  0.57350  0.20120  Biso   1.000  H
  H48      1.0000 0.74870  0.42650  0.70120  Biso   1.000  H
  C65      1.0000 0.57943  0.04143  0.23900  Biso   1.000  C
  C66      1.0000 0.92057  0.95857  0.73900  Biso   1.000  C
  C67      1.0000 0.07943  0.45857  0.76100  Biso   1.000  C
  C68      1.0000 0.42057  0.54143  0.26100  Biso   1.000  C
  C69      1.0000 0.42057  0.95857  0.76100  Biso   1.000  C
  C70      1.0000 0.07943  0.04143  0.26100  Biso   1.000  C
  C71      1.0000 0.92057  0.54143  0.23900  Biso   1.000  C
  C72      1.0000 0.57943  0.45857  0.73900  Biso   1.000  C
  H49      1.0000 0.54860  0.02460  0.27420  Biso   1.000  H
  H50      1.0000 0.95140  0.97540  0.77420  Biso   1.000  H
  H51      1.0000 0.04860  0.47540  0.72580  Biso   1.000  H
  H52      1.0000 0.45140  0.52460  0.22580  Biso   1.000  H
  H53      1.0000 0.45140  0.97540  0.72580  Biso   1.000  H
  H54      1.0000 0.04860  0.02460  0.22580  Biso   1.000  H
  H55      1.0000 0.95140  0.52460  0.27420  Biso   1.000  H
  H56      1.0000 0.54860  0.47540  0.77420  Biso   1.000  H
  C73      1.0000 0.60023  0.89596  0.72626  Biso   1.000  C
  C74      1.0000 0.89977  0.10404  0.22626  Biso   1.000  C
  C75      1.0000 0.10023  0.60404  0.27374  Biso   1.000  C
  C76      1.0000 0.39977  0.39596  0.77374  Biso   1.000  C
  C77      1.0000 0.39977  0.10404  0.27374  Biso   1.000  C
  C78      1.0000 0.10023  0.89596  0.77374  Biso   1.000  C
  C79      1.0000 0.89977  0.39596  0.72626  Biso   1.000  C
  C80      1.0000 0.60023  0.60404  0.22626  Biso   1.000  C
  C81      1.0000 0.53737  0.89459  0.61886  Biso   1.000  C
  C82      1.0000 0.96263  0.10541  0.11886  Biso   1.000  C
  C83      1.0000 0.03737  0.60541  0.38114  Biso   1.000  C
  C84      1.0000 0.46263  0.39459  0.88114  Biso   1.000  C
  C85      1.0000 0.46263  0.10541  0.38114  Biso   1.000  C
  C86      1.0000 0.03737  0.89459  0.88114  Biso   1.000  C
  C87      1.0000 0.96263  0.39459  0.61886  Biso   1.000  C
  C88      1.0000 0.53737  0.60541  0.11886  Biso   1.000  C
  H57      1.0000 0.51220  0.86720  0.58500  Biso   1.000  H
  H58      1.0000 0.98780  0.13280  0.08500  Biso   1.000  H
  H59      1.0000 0.01220  0.63280  0.41500  Biso   1.000  H
  H60      1.0000 0.48780  0.36720  0.91500  Biso   1.000  H
  H61      1.0000 0.48780  0.13280  0.41500  Biso   1.000  H
  H62      1.0000 0.01220  0.86720  0.91500  Biso   1.000  H
  H63      1.0000 0.98780  0.36720  0.58500  Biso   1.000  H
  H64      1.0000 0.51220  0.63280  0.08500  Biso   1.000  H
  C89      1.0000 0.51956  0.62547  0.65965  Biso   1.000  C
  C90      1.0000 0.98044  0.37453  0.15965  Biso   1.000  C
  C91      1.0000 0.01956  0.87453  0.34035  Biso   1.000  C
  C92      1.0000 0.48044  0.12547  0.84035  Biso   1.000  C
  C93      1.0000 0.48044  0.37453  0.34035  Biso   1.000  C
  C94      1.0000 0.01956  0.62547  0.84035  Biso   1.000  C
  C95      1.0000 0.98044  0.12547  0.65965  Biso   1.000  C
  C96      1.0000 0.51956  0.87453  0.15965  Biso   1.000  C
  H65      1.0000 0.47380  0.61140  0.68280  Biso   1.000  H
  H66      1.0000 0.02620  0.38860  0.18280  Biso   1.000  H
  H67      1.0000 0.97380  0.88860  0.31720  Biso   1.000  H
  H68      1.0000 0.52620  0.11140  0.81720  Biso   1.000  H
  H69      1.0000 0.52620  0.38860  0.31720  Biso   1.000  H
  H70      1.0000 0.97380  0.61140  0.81720  Biso   1.000  H
  H71      1.0000 0.02620  0.11140  0.68280  Biso   1.000  H
  H72      1.0000 0.47380  0.88860  0.18280  Biso   1.000  H
  H73      1.0000 0.54860  0.57860  0.65400  Biso   1.000  H
  H74      1.0000 0.95140  0.42140  0.15400  Biso   1.000  H
  H75      1.0000 0.04860  0.92140  0.34600  Biso   1.000  H
  H76      1.0000 0.45140  0.07860  0.84600  Biso   1.000  H
  H77      1.0000 0.45140  0.42140  0.34600  Biso   1.000  H
  H78      1.0000 0.04860  0.57860  0.84600  Biso   1.000  H
  H79      1.0000 0.95140  0.07860  0.65400  Biso   1.000  H
  H80      1.0000 0.54860  0.92140  0.15400  Biso   1.000  H
  C97      1.0000 0.78462  0.77019  0.79330  Biso   1.000  C
  C98      1.0000 0.71538  0.22981  0.29330  Biso   1.000  C
  C99      1.0000 0.28462  0.72981  0.20670  Biso   1.000  C
  C100     1.0000 0.21538  0.27019  0.70670  Biso   1.000  C
  C101     1.0000 0.21538  0.22981  0.20670  Biso   1.000  C
  C102     1.0000 0.28462  0.77019  0.70670  Biso   1.000  C
  C103     1.0000 0.71538  0.27019  0.79330  Biso   1.000  C
  C104     1.0000 0.78462  0.72981  0.29330  Biso   1.000  C
  H81      1.0000 0.75930  0.79120  0.83040  Biso   1.000  H
  H82      1.0000 0.74070  0.20880  0.33040  Biso   1.000  H
  H83      1.0000 0.25930  0.70880  0.16960  Biso   1.000  H
  H84      1.0000 0.24070  0.29120  0.66960  Biso   1.000  H
  H85      1.0000 0.24070  0.20880  0.16960  Biso   1.000  H
  H86      1.0000 0.25930  0.79120  0.66960  Biso   1.000  H
  H87      1.0000 0.74070  0.29120  0.83040  Biso   1.000  H
  H88      1.0000 0.75930  0.70880  0.33040  Biso   1.000  H
  C105     1.0000 0.66466  0.09406  0.13724  Biso   1.000  C
  C106     1.0000 0.83534  0.90594  0.63724  Biso   1.000  C
  C107     1.0000 0.16466  0.40594  0.86276  Biso   1.000  C
  C108     1.0000 0.33534  0.59406  0.36276  Biso   1.000  C
  C109     1.0000 0.33534  0.90594  0.86276  Biso   1.000  C
  C110     1.0000 0.16466  0.09406  0.36276  Biso   1.000  C
  C111     1.0000 0.83534  0.59406  0.13724  Biso   1.000  C
  C112     1.0000 0.66466  0.40594  0.63724  Biso   1.000  C
  C113     1.0000 0.62636  0.85855  0.78528  Biso   1.000  C
  C114     1.0000 0.87364  0.14145  0.28528  Biso   1.000  C
  C115     1.0000 0.12636  0.64145  0.21472  Biso   1.000  C
  C116     1.0000 0.37364  0.35855  0.71472  Biso   1.000  C
  C117     1.0000 0.37364  0.14145  0.21472  Biso   1.000  C
  C118     1.0000 0.12636  0.85855  0.71472  Biso   1.000  C
  C119     1.0000 0.87364  0.35855  0.78528  Biso   1.000  C
  C120     1.0000 0.62636  0.64145  0.28528  Biso   1.000  C
  C121     1.0000 0.66678  0.72941  0.74189  Biso   1.000  C
  C122     1.0000 0.83322  0.27059  0.24189  Biso   1.000  C
  C123     1.0000 0.16678  0.77059  0.25811  Biso   1.000  C
  C124     1.0000 0.33322  0.22941  0.75811  Biso   1.000  C
  C125     1.0000 0.33322  0.27059  0.25811  Biso   1.000  C
  C126     1.0000 0.16678  0.72941  0.75811  Biso   1.000  C
  C127     1.0000 0.83322  0.22941  0.74189  Biso   1.000  C
  C128     1.0000 0.66678  0.77059  0.24189  Biso   1.000  C
  C129     1.0000 0.65389  0.90282  0.83649  Biso   1.000  C
  C130     1.0000 0.84611  0.09718  0.33649  Biso   1.000  C
  C131     1.0000 0.15389  0.59718  0.16351  Biso   1.000  C
  C132     1.0000 0.34611  0.40282  0.66351  Biso   1.000  C
  C133     1.0000 0.34611  0.09718  0.16351  Biso   1.000  C
  C134     1.0000 0.15389  0.90282  0.66351  Biso   1.000  C
  C135     1.0000 0.84611  0.40282  0.83649  Biso   1.000  C
  C136     1.0000 0.65389  0.59718  0.33649  Biso   1.000  C
  C137     1.0000 0.60888  0.97602  0.71937  Biso   1.000  C
  C138     1.0000 0.89112  0.02398  0.21937  Biso   1.000  C
  C139     1.0000 0.10888  0.52398  0.28063  Biso   1.000  C
  C140     1.0000 0.39112  0.47602  0.78063  Biso   1.000  C
  C141     1.0000 0.39112  0.02398  0.28063  Biso   1.000  C
  C142     1.0000 0.10888  0.97602  0.78063  Biso   1.000  C
  C143     1.0000 0.89112  0.47602  0.71937  Biso   1.000  C
  C144     1.0000 0.60888  0.52398  0.21937  Biso   1.000  C
  C145     1.0000 0.89706  0.74766  0.73485  Biso   1.000  C
  C146     1.0000 0.60294  0.25234  0.23485  Biso   1.000  C
  C147     1.0000 0.39706  0.75234  0.26515  Biso   1.000  C
  C148     1.0000 0.10294  0.24766  0.76515  Biso   1.000  C
  C149     1.0000 0.10294  0.25234  0.26515  Biso   1.000  C
  C150     1.0000 0.39706  0.74766  0.76515  Biso   1.000  C
  C151     1.0000 0.60294  0.24766  0.73485  Biso   1.000  C
  C152     1.0000 0.89706  0.75234  0.23485  Biso   1.000  C
  H89      1.0000 0.94840  0.75380  0.73240  Biso   1.000  H
  H90      1.0000 0.55160  0.24620  0.23240  Biso   1.000  H
  H91      1.0000 0.44840  0.74620  0.26760  Biso   1.000  H
  H92      1.0000 0.05160  0.25380  0.76760  Biso   1.000  H
  H93      1.0000 0.05160  0.24620  0.26760  Biso   1.000  H
  H94      1.0000 0.44840  0.75380  0.76760  Biso   1.000  H
  H95      1.0000 0.55160  0.25380  0.73240  Biso   1.000  H
  H96      1.0000 0.94840  0.74620  0.23240  Biso   1.000  H
  C153     1.0000 0.65410  0.04401  0.24745  Biso   1.000  C
  C154     1.0000 0.84590  0.95599  0.74745  Biso   1.000  C
  C155     1.0000 0.15410  0.45599  0.75255  Biso   1.000  C
  C156     1.0000 0.34590  0.54401  0.25255  Biso   1.000  C
  C157     1.0000 0.34590  0.95599  0.75255  Biso   1.000  C
  C158     1.0000 0.15410  0.04401  0.25255  Biso   1.000  C
  C159     1.0000 0.84590  0.54401  0.24745  Biso   1.000  C
  C160     1.0000 0.65410  0.45599  0.74745  Biso   1.000  C
  H97      1.0000 0.67550  0.02740  0.28820  Biso   1.000  H
  H98      1.0000 0.82450  0.97260  0.78820  Biso   1.000  H
  H99      1.0000 0.17550  0.47260  0.71180  Biso   1.000  H
  H100     1.0000 0.32450  0.52740  0.21180  Biso   1.000  H
  H101     1.0000 0.32450  0.97260  0.71180  Biso   1.000  H
  H102     1.0000 0.17550  0.02740  0.21180  Biso   1.000  H
  H103     1.0000 0.82450  0.52740  0.28820  Biso   1.000  H
  H104     1.0000 0.67550  0.47260  0.78820  Biso   1.000  H
  C161     1.0000 0.78435  0.70189  0.68686  Biso   1.000  C
  C162     1.0000 0.71565  0.29811  0.18686  Biso   1.000  C
  C163     1.0000 0.28435  0.79811  0.31314  Biso   1.000  C
  C164     1.0000 0.21565  0.20189  0.81314  Biso   1.000  C
  C165     1.0000 0.21565  0.29811  0.31314  Biso   1.000  C
  C166     1.0000 0.28435  0.70189  0.81314  Biso   1.000  C
  C167     1.0000 0.71565  0.20189  0.68686  Biso   1.000  C
  C168     1.0000 0.78435  0.79811  0.18686  Biso   1.000  C
  C169     1.0000 0.74463  0.73465  0.74101  Biso   1.000  C
  C170     1.0000 0.75537  0.26535  0.24101  Biso   1.000  C
  C171     1.0000 0.24463  0.76535  0.25899  Biso   1.000  C
  C172     1.0000 0.25537  0.23465  0.75899  Biso   1.000  C
  C173     1.0000 0.25537  0.26535  0.25899  Biso   1.000  C
  C174     1.0000 0.24463  0.73465  0.75899  Biso   1.000  C
  C175     1.0000 0.75537  0.23465  0.74101  Biso   1.000  C
  C176     1.0000 0.74463  0.76535  0.24101  Biso   1.000  C
  C177     1.0000 0.59466  0.93090  0.97552  Biso   1.000  C
  C178     1.0000 0.90534  0.06910  0.47552  Biso   1.000  C
  C179     1.0000 0.09466  0.56910  0.02448  Biso   1.000  C
  C180     1.0000 0.40534  0.43090  0.52448  Biso   1.000  C
  C181     1.0000 0.40534  0.06910  0.02448  Biso   1.000  C
  C182     1.0000 0.09466  0.93090  0.52448  Biso   1.000  C
  C183     1.0000 0.90534  0.43090  0.97552  Biso   1.000  C
  C184     1.0000 0.59466  0.56910  0.47552  Biso   1.000  C
  C185     1.0000 0.76817  0.18790  0.96907  Biso   1.000  C
  C186     1.0000 0.73183  0.81210  0.46907  Biso   1.000  C
  C187     1.0000 0.26817  0.31210  0.03093  Biso   1.000  C
  C188     1.0000 0.23183  0.68790  0.53093  Biso   1.000  C
  C189     1.0000 0.23183  0.81210  0.03093  Biso   1.000  C
  C190     1.0000 0.26817  0.18790  0.53093  Biso   1.000  C
  C191     1.0000 0.73183  0.68790  0.96907  Biso   1.000  C
  C192     1.0000 0.76817  0.31210  0.46907  Biso   1.000  C
  H105     1.0000 0.78900  0.20930  0.92980  Biso   1.000  H
  H106     1.0000 0.71100  0.79070  0.42980  Biso   1.000  H
  H107     1.0000 0.28900  0.29070  0.07020  Biso   1.000  H
  H108     1.0000 0.21100  0.70930  0.57020  Biso   1.000  H
  H109     1.0000 0.21100  0.79070  0.07020  Biso   1.000  H
  H110     1.0000 0.28900  0.20930  0.57020  Biso   1.000  H
  H111     1.0000 0.71100  0.70930  0.92980  Biso   1.000  H
  H112     1.0000 0.78900  0.29070  0.42980  Biso   1.000  H
  C193     1.0000 0.64147  0.01751  0.77240  Biso   1.000  C
  C194     1.0000 0.85853  0.98249  0.27240  Biso   1.000  C
  C195     1.0000 0.14147  0.48249  0.22760  Biso   1.000  C
  C196     1.0000 0.35853  0.51751  0.72760  Biso   1.000  C
  C197     1.0000 0.35853  0.98249  0.22760  Biso   1.000  C
  C198     1.0000 0.14147  0.01751  0.72760  Biso   1.000  C
  C199     1.0000 0.85853  0.51751  0.77240  Biso   1.000  C
  C200     1.0000 0.64147  0.48249  0.27240  Biso   1.000  C
  H113     1.0000 0.64890  0.07060  0.76770  Biso   1.000  H
  H114     1.0000 0.85110  0.92940  0.26770  Biso   1.000  H
  H115     1.0000 0.14890  0.42940  0.23230  Biso   1.000  H
  H116     1.0000 0.35110  0.57060  0.73230  Biso   1.000  H
  H117     1.0000 0.35110  0.92940  0.23230  Biso   1.000  H
  H118     1.0000 0.14890  0.07060  0.73230  Biso   1.000  H
  H119     1.0000 0.85110  0.57060  0.76770  Biso   1.000  H
  H120     1.0000 0.64890  0.42940  0.26770  Biso   1.000  H
  C201     1.0000 0.55063  0.06390  0.17823  Biso   1.000  C
  C202     1.0000 0.94937  0.93610  0.67823  Biso   1.000  C
  C203     1.0000 0.05063  0.43610  0.82177  Biso   1.000  C
  C204     1.0000 0.44937  0.56390  0.32177  Biso   1.000  C
  C205     1.0000 0.44937  0.93610  0.82177  Biso   1.000  C
  C206     1.0000 0.05063  0.06390  0.32177  Biso   1.000  C
  C207     1.0000 0.94937  0.56390  0.17823  Biso   1.000  C
  C208     1.0000 0.55063  0.43610  0.67823  Biso   1.000  C
  H121     1.0000 0.49940  0.06170  0.17220  Biso   1.000  H
  H122     1.0000 0.00060  0.93830  0.67220  Biso   1.000  H
  H123     1.0000 0.99940  0.43830  0.82780  Biso   1.000  H
  H124     1.0000 0.50060  0.56170  0.32780  Biso   1.000  H
  H125     1.0000 0.50060  0.93830  0.82780  Biso   1.000  H
  H126     1.0000 0.99940  0.06170  0.32780  Biso   1.000  H
  H127     1.0000 0.00060  0.56170  0.17220  Biso   1.000  H
  H128     1.0000 0.49940  0.43830  0.67220  Biso   1.000  H
  C209     1.0000 0.86097  0.71280  0.68387  Biso   1.000  C
  C210     1.0000 0.63903  0.28720  0.18387  Biso   1.000  C
  C211     1.0000 0.36097  0.78720  0.31613  Biso   1.000  C
  C212     1.0000 0.13903  0.21280  0.81613  Biso   1.000  C
  C213     1.0000 0.13903  0.28720  0.31613  Biso   1.000  C
  C214     1.0000 0.36097  0.71280  0.81613  Biso   1.000  C
  C215     1.0000 0.63903  0.21280  0.68387  Biso   1.000  C
  C216     1.0000 0.86097  0.78720  0.18387  Biso   1.000  C
  H129     1.0000 0.88730  0.69550  0.64580  Biso   1.000  H
  H130     1.0000 0.61270  0.30450  0.14580  Biso   1.000  H
  H131     1.0000 0.38730  0.80450  0.35420  Biso   1.000  H
  H132     1.0000 0.11270  0.19550  0.85420  Biso   1.000  H
  H133     1.0000 0.11270  0.30450  0.35420  Biso   1.000  H
  H134     1.0000 0.38730  0.69550  0.85420  Biso   1.000  H
  H135     1.0000 0.61270  0.19550  0.64580  Biso   1.000  H
  H136     1.0000 0.88730  0.80450  0.14580  Biso   1.000  H
  C217     1.0000 0.85895  0.77463  0.79107  Biso   1.000  C
  C218     1.0000 0.64105  0.22537  0.29107  Biso   1.000  C
  C219     1.0000 0.35895  0.72537  0.20893  Biso   1.000  C
  C220     1.0000 0.14105  0.27463  0.70893  Biso   1.000  C
  C221     1.0000 0.14105  0.22537  0.20893  Biso   1.000  C
  C222     1.0000 0.35895  0.77463  0.70893  Biso   1.000  C
  C223     1.0000 0.64105  0.27463  0.79107  Biso   1.000  C
  C224     1.0000 0.85895  0.72537  0.29107  Biso   1.000  C
  H137     1.0000 0.88490  0.79600  0.82770  Biso   1.000  H
  H138     1.0000 0.61510  0.20400  0.32770  Biso   1.000  H
  H139     1.0000 0.38490  0.70400  0.17230  Biso   1.000  H
  H140     1.0000 0.11510  0.29600  0.67230  Biso   1.000  H
  H141     1.0000 0.11510  0.20400  0.17230  Biso   1.000  H
  H142     1.0000 0.38490  0.79600  0.67230  Biso   1.000  H
  H143     1.0000 0.61510  0.29600  0.82770  Biso   1.000  H
  H144     1.0000 0.88490  0.70400  0.32770  Biso   1.000  H
  C225     1.0000 0.54845  0.97291  0.61157  Biso   1.000  C
  C226     1.0000 0.95155  0.02709  0.11157  Biso   1.000  C
  C227     1.0000 0.04845  0.52709  0.38843  Biso   1.000  C
  C228     1.0000 0.45155  0.47291  0.88843  Biso   1.000  C
  C229     1.0000 0.45155  0.02709  0.38843  Biso   1.000  C
  C230     1.0000 0.04845  0.97291  0.88843  Biso   1.000  C
  C231     1.0000 0.95155  0.47291  0.61157  Biso   1.000  C
  C232     1.0000 0.54845  0.52709  0.11157  Biso   1.000  C
  H145     1.0000 0.53160  0.99820  0.57250  Biso   1.000  H
  H146     1.0000 0.96840  0.00180  0.07250  Biso   1.000  H
  H147     1.0000 0.03160  0.50180  0.42750  Biso   1.000  H
  H148     1.0000 0.46840  0.49820  0.92750  Biso   1.000  H
  H149     1.0000 0.46840  0.00180  0.42750  Biso   1.000  H
  H150     1.0000 0.03160  0.99820  0.92750  Biso   1.000  H
  H151     1.0000 0.96840  0.49820  0.57250  Biso   1.000  H
  H152     1.0000 0.53160  0.50180  0.07250  Biso   1.000  H
  C233     1.0000 0.50066  0.65602  0.59085  Biso   1.000  C
  C234     1.0000 0.99934  0.34398  0.09085  Biso   1.000  C
  C235     1.0000 0.00066  0.84398  0.40915  Biso   1.000  C
  C236     1.0000 0.49934  0.15602  0.90915  Biso   1.000  C
  C237     1.0000 0.49934  0.34398  0.40915  Biso   1.000  C
  C238     1.0000 0.00066  0.65602  0.90915  Biso   1.000  C
  C239     1.0000 0.99934  0.15602  0.59085  Biso   1.000  C
  C240     1.0000 0.50066  0.84398  0.09085  Biso   1.000  C
  C241     1.0000 0.67142  0.90536  0.95601  Biso   1.000  C
  C242     1.0000 0.82858  0.09464  0.45601  Biso   1.000  C
  C243     1.0000 0.17142  0.59464  0.04399  Biso   1.000  C
  C244     1.0000 0.32858  0.40536  0.54399  Biso   1.000  C
  C245     1.0000 0.32858  0.09464  0.04399  Biso   1.000  C
  C246     1.0000 0.17142  0.90536  0.54399  Biso   1.000  C
  C247     1.0000 0.82858  0.40536  0.95601  Biso   1.000  C
  C248     1.0000 0.67142  0.59464  0.45601  Biso   1.000  C
  H153     1.0000 0.70320  0.95070  0.95340  Biso   1.000  H
  H154     1.0000 0.79680  0.04930  0.45340  Biso   1.000  H
  H155     1.0000 0.20320  0.54930  0.04660  Biso   1.000  H
  H156     1.0000 0.29680  0.45070  0.54660  Biso   1.000  H
  H157     1.0000 0.29680  0.04930  0.04660  Biso   1.000  H
  H158     1.0000 0.20320  0.95070  0.54660  Biso   1.000  H
  H159     1.0000 0.79680  0.45070  0.95340  Biso   1.000  H
  H160     1.0000 0.70320  0.54930  0.45340  Biso   1.000  H
  H161     1.0000 0.69070  0.87230  0.99200  Biso   1.000  H
  H162     1.0000 0.80930  0.12770  0.49200  Biso   1.000  H
  H163     1.0000 0.19070  0.62770  0.00800  Biso   1.000  H
  H164     1.0000 0.30930  0.37230  0.50800  Biso   1.000  H
  H165     1.0000 0.30930  0.12770  0.00800  Biso   1.000  H
  H166     1.0000 0.19070  0.87230  0.50800  Biso   1.000  H
  H167     1.0000 0.80930  0.37230  0.99200  Biso   1.000  H
  H168     1.0000 0.69070  0.62770  0.49200  Biso   1.000  H
  C249     1.0000 0.80867  0.18020  0.02612  Biso   1.000  C
  C250     1.0000 0.69133  0.81980  0.52612  Biso   1.000  C
  C251     1.0000 0.30867  0.31980  0.97388  Biso   1.000  C
  C252     1.0000 0.19133  0.68020  0.47388  Biso   1.000  C
  C253     1.0000 0.19133  0.81980  0.97388  Biso   1.000  C
  C254     1.0000 0.30867  0.18020  0.47388  Biso   1.000  C
  C255     1.0000 0.69133  0.68020  0.02612  Biso   1.000  C
  C256     1.0000 0.80867  0.31980  0.52612  Biso   1.000  C
  H169     1.0000 0.85800  0.19640  0.02700  Biso   1.000  H
  H170     1.0000 0.64200  0.80360  0.52700  Biso   1.000  H
  H171     1.0000 0.35800  0.30360  0.97300  Biso   1.000  H
  H172     1.0000 0.14200  0.69640  0.47300  Biso   1.000  H
  H173     1.0000 0.14200  0.80360  0.97300  Biso   1.000  H
  H174     1.0000 0.35800  0.19640  0.47300  Biso   1.000  H
  H175     1.0000 0.64200  0.69640  0.02700  Biso   1.000  H
  H176     1.0000 0.85800  0.30360  0.52700  Biso   1.000  H
  C257     1.0000 0.77726  0.14889  0.08245  Biso   1.000  C
  C258     1.0000 0.72274  0.85111  0.58245  Biso   1.000  C
  C259     1.0000 0.27726  0.35111  0.91755  Biso   1.000  C
  C260     1.0000 0.22274  0.64889  0.41755  Biso   1.000  C
  C261     1.0000 0.22274  0.85111  0.91755  Biso   1.000  C
  C262     1.0000 0.27726  0.14889  0.41755  Biso   1.000  C
  C263     1.0000 0.72274  0.64889  0.08245  Biso   1.000  C
  C264     1.0000 0.77726  0.35111  0.58245  Biso   1.000  C
  H177     1.0000 0.80460  0.14300  0.12250  Biso   1.000  H
  H178     1.0000 0.69540  0.85700  0.62250  Biso   1.000  H
  H179     1.0000 0.30460  0.35700  0.87750  Biso   1.000  H
  H180     1.0000 0.19540  0.64300  0.37750  Biso   1.000  H
  H181     1.0000 0.19540  0.85700  0.87750  Biso   1.000  H
  H182     1.0000 0.30460  0.14300  0.37750  Biso   1.000  H
  H183     1.0000 0.69540  0.64300  0.12250  Biso   1.000  H
  H184     1.0000 0.80460  0.35700  0.62250  Biso   1.000  H
  C265     1.0000 0.69607  0.16390  0.96920  Biso   1.000  C
  C266     1.0000 0.80393  0.83610  0.46920  Biso   1.000  C
  C267     1.0000 0.19607  0.33610  0.03080  Biso   1.000  C
  C268     1.0000 0.30393  0.66390  0.53080  Biso   1.000  C
  C269     1.0000 0.30393  0.83610  0.03080  Biso   1.000  C
  C270     1.0000 0.19607  0.16390  0.53080  Biso   1.000  C
  C271     1.0000 0.80393  0.66390  0.96920  Biso   1.000  C
  C272     1.0000 0.69607  0.33610  0.46920  Biso   1.000  C
  H185     1.0000 0.66810  0.16900  0.92940  Biso   1.000  H
  H186     1.0000 0.83190  0.83100  0.42940  Biso   1.000  H
  H187     1.0000 0.16810  0.33100  0.07060  Biso   1.000  H
  H188     1.0000 0.33190  0.66900  0.57060  Biso   1.000  H
  H189     1.0000 0.33190  0.83100  0.07060  Biso   1.000  H
  H190     1.0000 0.16810  0.16900  0.57060  Biso   1.000  H
  H191     1.0000 0.83190  0.66900  0.92940  Biso   1.000  H
  H192     1.0000 0.66810  0.33100  0.42940  Biso   1.000  H
  C273     1.0000 0.62186  0.77286  0.79297  Biso   1.000  C
  C274     1.0000 0.87814  0.22714  0.29297  Biso   1.000  C
  C275     1.0000 0.12186  0.72714  0.20703  Biso   1.000  C
  C276     1.0000 0.37814  0.27286  0.70703  Biso   1.000  C
  C277     1.0000 0.37814  0.22714  0.20703  Biso   1.000  C
  C278     1.0000 0.12186  0.77286  0.70703  Biso   1.000  C
  C279     1.0000 0.87814  0.27286  0.79297  Biso   1.000  C
  C280     1.0000 0.62186  0.72714  0.29297  Biso   1.000  C
  H193     1.0000 0.63860  0.75890  0.83850  Biso   1.000  H
  H194     1.0000 0.86140  0.24110  0.33850  Biso   1.000  H
  H195     1.0000 0.13860  0.74110  0.16150  Biso   1.000  H
  H196     1.0000 0.36140  0.25890  0.66150  Biso   1.000  H
  H197     1.0000 0.36140  0.24110  0.16150  Biso   1.000  H
  H198     1.0000 0.13860  0.75890  0.66150  Biso   1.000  H
  H199     1.0000 0.86140  0.25890  0.83850  Biso   1.000  H
  H200     1.0000 0.63860  0.74110  0.33850  Biso   1.000  H
  H201     1.0000 0.57030  0.75710  0.78880  Biso   1.000  H
  H202     1.0000 0.92970  0.24290  0.28880  Biso   1.000  H
  H203     1.0000 0.07030  0.74290  0.21120  Biso   1.000  H
  H204     1.0000 0.42970  0.25710  0.71120  Biso   1.000  H
  H205     1.0000 0.42970  0.24290  0.21120  Biso   1.000  H
  H206     1.0000 0.07030  0.75710  0.71120  Biso   1.000  H
  H207     1.0000 0.92970  0.25710  0.78880  Biso   1.000  H
  H208     1.0000 0.57030  0.74290  0.28880  Biso   1.000  H
  O49      1.0000 0.49510  0.26340  0.06106  Biso   1.000  O
  O50      1.0000 0.00490  0.73660  0.56106  Biso   1.000  O
  O51      1.0000 0.99510  0.23660  0.93894  Biso   1.000  O
  O52      1.0000 0.50490  0.76340  0.43894  Biso   1.000  O
  O53      1.0000 0.50490  0.73660  0.93894  Biso   1.000  O
  O54      1.0000 0.99510  0.26340  0.43894  Biso   1.000  O
  O55      1.0000 0.00490  0.76340  0.06106  Biso   1.000  O
  O56      1.0000 0.49510  0.23660  0.56106  Biso   1.000  O
  O57      1.0000 0.42750  0.38630  0.12700  Biso   1.000  O
  O58      1.0000 0.07250  0.61370  0.62700  Biso   1.000  O
  O59      1.0000 0.92750  0.11370  0.87300  Biso   1.000  O
  O60      1.0000 0.57250  0.88630  0.37300  Biso   1.000  O
  O61      1.0000 0.57250  0.61370  0.87300  Biso   1.000  O
  O62      1.0000 0.92750  0.38630  0.37300  Biso   1.000  O
  O63      1.0000 0.07250  0.88630  0.12700  Biso   1.000  O
  O64      1.0000 0.42750  0.11370  0.62700  Biso   1.000  O
  O65      1.0000 0.83900  0.99900  0.92750  Biso   1.000  O
  O66      1.0000 0.66100  0.00100  0.42750  Biso   1.000  O
  O67      1.0000 0.33900  0.50100  0.07250  Biso   1.000  O
  O68      1.0000 0.16100  0.49900  0.57250  Biso   1.000  O
  O69      1.0000 0.16100  0.00100  0.07250  Biso   1.000  O
  O70      1.0000 0.33900  0.99900  0.57250  Biso   1.000  O
  O71      1.0000 0.66100  0.49900  0.92750  Biso   1.000  O
  O72      1.0000 0.83900  0.50100  0.42750  Biso   1.000  O
  H209     1.0000 0.45610  0.25000  0.04050  Biso   1.000  H
  H210     1.0000 0.04390  0.75000  0.54050  Biso   1.000  H
  H211     1.0000 0.95610  0.25000  0.95950  Biso   1.000  H
  H212     1.0000 0.54390  0.75000  0.45950  Biso   1.000  H
  H213     1.0000 0.54390  0.75000  0.95950  Biso   1.000  H
  H214     1.0000 0.95610  0.25000  0.45950  Biso   1.000  H
  H215     1.0000 0.04390  0.75000  0.04050  Biso   1.000  H
  H216     1.0000 0.45610  0.25000  0.54050  Biso   1.000  H
  H217     1.0000 0.53160  0.27600  0.03220  Biso   1.000  H
  H218     1.0000 0.96840  0.72400  0.53220  Biso   1.000  H
  H219     1.0000 0.03160  0.22400  0.96780  Biso   1.000  H
  H220     1.0000 0.46840  0.77600  0.46780  Biso   1.000  H
  H221     1.0000 0.46840  0.72400  0.96780  Biso   1.000  H
  H222     1.0000 0.03160  0.27600  0.46780  Biso   1.000  H
  H223     1.0000 0.96840  0.77600  0.03220  Biso   1.000  H
  H224     1.0000 0.53160  0.22400  0.53220  Biso   1.000  H
