data_image0
_cell_length_a       11.359
_cell_length_b       18.258
_cell_length_c       29.443
_cell_angle_alpha    90
_cell_angle_beta     90
_cell_angle_gamma    90

_symmetry_space_group_name_H-M    "P 1"
_symmetry_int_tables_number       1

loop_
  _symmetry_equiv_pos_as_xyz
  'x, y, z'

loop_
  _atom_site_label
  _atom_site_occupancy
  _atom_site_fract_x
  _atom_site_fract_y
  _atom_site_fract_z
  _atom_site_thermal_displace_type
  _atom_site_B_iso_or_equiv
  _atom_site_type_symbol
  Cu1      1.0000 0.10645  0.01007  0.12434  Biso   1.000  Cu
  Cu2      1.0000 0.39355  0.98993  0.62434  Biso   1.000  Cu
  Cu3      1.0000 0.60645  0.48993  0.87566  Biso   1.000  Cu
  Cu4      1.0000 0.89355  0.51007  0.37566  Biso   1.000  Cu
  Cu5      1.0000 0.89355  0.98993  0.87566  Biso   1.000  Cu
  Cu6      1.0000 0.60645  0.01007  0.37566  Biso   1.000  Cu
  Cu7      1.0000 0.39355  0.51007  0.12434  Biso   1.000  Cu
  Cu8      1.0000 0.10645  0.48993  0.62434  Biso   1.000  Cu
  O1       1.0000 0.18863  0.90523  0.28546  Biso   1.000  O
  O2       1.0000 0.31137  0.09477  0.78546  Biso   1.000  O
  O3       1.0000 0.68863  0.59477  0.71454  Biso   1.000  O
  O4       1.0000 0.81137  0.40523  0.21454  Biso   1.000  O
  O5       1.0000 0.81137  0.09477  0.71454  Biso   1.000  O
  O6       1.0000 0.68863  0.90523  0.21454  Biso   1.000  O
  O7       1.0000 0.31137  0.40523  0.28546  Biso   1.000  O
  O8       1.0000 0.18863  0.59477  0.78546  Biso   1.000  O
  O9       1.0000 0.50812  0.76288  0.40142  Biso   1.000  O
  O10      1.0000 0.99188  0.23712  0.90142  Biso   1.000  O
  O11      1.0000 0.00812  0.73712  0.59858  Biso   1.000  O
  O12      1.0000 0.49188  0.26288  0.09858  Biso   1.000  O
  O13      1.0000 0.49188  0.23712  0.59858  Biso   1.000  O
  O14      1.0000 0.00812  0.76288  0.09858  Biso   1.000  O
  O15      1.0000 0.99188  0.26288  0.40142  Biso   1.000  O
  O16      1.0000 0.50812  0.73712  0.90142  Biso   1.000  O
  O17      1.0000 0.75669  0.88146  0.41983  Biso   1.000  O
  O18      1.0000 0.74331  0.11854  0.91983  Biso   1.000  O
  O19      1.0000 0.25669  0.61854  0.58017  Biso   1.000  O
  O20      1.0000 0.24331  0.38146  0.08017  Biso   1.000  O
  O21      1.0000 0.24331  0.11854  0.58017  Biso   1.000  O
  O22      1.0000 0.25669  0.88146  0.08017  Biso   1.000  O
  O23      1.0000 0.74331  0.38146  0.41983  Biso   1.000  O
  O24      1.0000 0.75669  0.61854  0.91983  Biso   1.000  O
  O25      1.0000 0.57745  0.90688  0.39122  Biso   1.000  O
  O26      1.0000 0.92255  0.09312  0.89122  Biso   1.000  O
  O27      1.0000 0.07745  0.59312  0.60878  Biso   1.000  O
  O28      1.0000 0.42255  0.40688  0.10878  Biso   1.000  O
  O29      1.0000 0.42255  0.09312  0.60878  Biso   1.000  O
  O30      1.0000 0.07745  0.90688  0.10878  Biso   1.000  O
  O31      1.0000 0.92255  0.40688  0.39122  Biso   1.000  O
  O32      1.0000 0.57745  0.59312  0.89122  Biso   1.000  O
  O33      1.0000 0.21158  0.98248  0.17404  Biso   1.000  O
  O34      1.0000 0.28842  0.01752  0.67404  Biso   1.000  O
  O35      1.0000 0.71158  0.51752  0.82596  Biso   1.000  O
  O36      1.0000 0.78842  0.48248  0.32596  Biso   1.000  O
  O37      1.0000 0.78842  0.01752  0.82596  Biso   1.000  O
  O38      1.0000 0.71158  0.98248  0.32596  Biso   1.000  O
  O39      1.0000 0.28842  0.48248  0.17404  Biso   1.000  O
  O40      1.0000 0.21158  0.51752  0.67404  Biso   1.000  O
  O41      1.0000 0.05187  0.96440  0.21732  Biso   1.000  O
  O42      1.0000 0.44813  0.03560  0.71732  Biso   1.000  O
  O43      1.0000 0.55187  0.53560  0.78268  Biso   1.000  O
  O44      1.0000 0.94813  0.46440  0.28268  Biso   1.000  O
  O45      1.0000 0.94813  0.03560  0.78268  Biso   1.000  O
  O46      1.0000 0.55187  0.96440  0.28268  Biso   1.000  O
  O47      1.0000 0.44813  0.46440  0.21732  Biso   1.000  O
  O48      1.0000 0.05187  0.53560  0.71732  Biso   1.000  O
  O49      1.0000 0.25789  0.02789  0.07504  Biso   1.000  O
  O50      1.0000 0.24211  0.97211  0.57504  Biso   1.000  O
  O51      1.0000 0.75789  0.47211  0.92496  Biso   1.000  O
  O52      1.0000 0.74211  0.52789  0.42496  Biso   1.000  O
  O53      1.0000 0.74211  0.97211  0.92496  Biso   1.000  O
  O54      1.0000 0.75789  0.02789  0.42496  Biso   1.000  O
  O55      1.0000 0.24211  0.52789  0.07504  Biso   1.000  O
  O56      1.0000 0.25789  0.47211  0.57504  Biso   1.000  O
  N1       1.0000 0.10838  0.11747  0.14001  Biso   1.000  N
  N2       1.0000 0.39162  0.88253  0.64001  Biso   1.000  N
  N3       1.0000 0.60838  0.38253  0.85999  Biso   1.000  N
  N4       1.0000 0.89162  0.61747  0.35999  Biso   1.000  N
  N5       1.0000 0.89162  0.88253  0.85999  Biso   1.000  N
  N6       1.0000 0.60838  0.11747  0.35999  Biso   1.000  N
  N7       1.0000 0.39162  0.61747  0.14001  Biso   1.000  N
  N8       1.0000 0.10838  0.38253  0.64001  Biso   1.000  N
  C1       1.0000 0.13954  0.67937  0.29019  Biso   1.000  C
  C2       1.0000 0.36046  0.32063  0.79019  Biso   1.000  C
  C3       1.0000 0.63954  0.82063  0.70981  Biso   1.000  C
  C4       1.0000 0.86046  0.17937  0.20981  Biso   1.000  C
  C5       1.0000 0.86046  0.32063  0.70981  Biso   1.000  C
  C6       1.0000 0.63954  0.67937  0.20981  Biso   1.000  C
  C7       1.0000 0.36046  0.17937  0.29019  Biso   1.000  C
  C8       1.0000 0.13954  0.82063  0.79019  Biso   1.000  C
  N9       1.0000 0.98092  0.04508  0.08158  Biso   1.000  N
  N10      1.0000 0.51908  0.95492  0.58158  Biso   1.000  N
  N11      1.0000 0.48092  0.45492  0.91842  Biso   1.000  N
  N12      1.0000 0.01908  0.54508  0.41842  Biso   1.000  N
  N13      1.0000 0.01908  0.95492  0.91842  Biso   1.000  N
  N14      1.0000 0.48092  0.04508  0.41842  Biso   1.000  N
  N15      1.0000 0.51908  0.54508  0.08158  Biso   1.000  N
  N16      1.0000 0.98092  0.45492  0.58158  Biso   1.000  N
  C9       1.0000 0.33746  0.82832  0.34548  Biso   1.000  C
  C10      1.0000 0.16254  0.17168  0.84548  Biso   1.000  C
  C11      1.0000 0.83746  0.67168  0.65452  Biso   1.000  C
  C12      1.0000 0.66254  0.32832  0.15452  Biso   1.000  C
  C13      1.0000 0.66254  0.17168  0.65452  Biso   1.000  C
  C14      1.0000 0.83746  0.82832  0.15452  Biso   1.000  C
  C15      1.0000 0.16254  0.32832  0.34548  Biso   1.000  C
  C16      1.0000 0.33746  0.67168  0.84548  Biso   1.000  C
  H1       1.0000 0.33910  0.88070  0.33680  Biso   1.000  H
  H2       1.0000 0.16090  0.11930  0.83680  Biso   1.000  H
  H3       1.0000 0.83910  0.61930  0.66320  Biso   1.000  H
  H4       1.0000 0.66090  0.38070  0.16320  Biso   1.000  H
  H5       1.0000 0.66090  0.11930  0.66320  Biso   1.000  H
  H6       1.0000 0.83910  0.88070  0.16320  Biso   1.000  H
  H7       1.0000 0.16090  0.38070  0.33680  Biso   1.000  H
  H8       1.0000 0.33910  0.61930  0.83680  Biso   1.000  H
  H9       1.0000 0.41480  0.80710  0.33730  Biso   1.000  H
  H10      1.0000 0.08520  0.19290  0.83730  Biso   1.000  H
  H11      1.0000 0.91480  0.69290  0.66270  Biso   1.000  H
  H12      1.0000 0.58520  0.30710  0.16270  Biso   1.000  H
  H13      1.0000 0.58520  0.19290  0.66270  Biso   1.000  H
  H14      1.0000 0.91480  0.80710  0.16270  Biso   1.000  H
  H15      1.0000 0.08520  0.30710  0.33730  Biso   1.000  H
  H16      1.0000 0.41480  0.69290  0.83730  Biso   1.000  H
  C17      1.0000 0.13621  0.89561  0.39614  Biso   1.000  C
  C18      1.0000 0.36379  0.10439  0.89614  Biso   1.000  C
  C19      1.0000 0.63621  0.60439  0.60386  Biso   1.000  C
  C20      1.0000 0.86379  0.39561  0.10386  Biso   1.000  C
  C21      1.0000 0.86379  0.10439  0.60386  Biso   1.000  C
  C22      1.0000 0.63621  0.89561  0.10386  Biso   1.000  C
  C23      1.0000 0.36379  0.39561  0.39614  Biso   1.000  C
  C24      1.0000 0.13621  0.60439  0.89614  Biso   1.000  C
  H17      1.0000 0.14360  0.90320  0.36430  Biso   1.000  H
  H18      1.0000 0.35640  0.09680  0.86430  Biso   1.000  H
  H19      1.0000 0.64360  0.59680  0.63570  Biso   1.000  H
  H20      1.0000 0.85640  0.40320  0.13570  Biso   1.000  H
  H21      1.0000 0.85640  0.09680  0.63570  Biso   1.000  H
  H22      1.0000 0.64360  0.90320  0.13570  Biso   1.000  H
  H23      1.0000 0.35640  0.40320  0.36430  Biso   1.000  H
  H24      1.0000 0.14360  0.59680  0.86430  Biso   1.000  H
  C25      1.0000 0.22361  0.85470  0.41946  Biso   1.000  C
  C26      1.0000 0.27639  0.14530  0.91946  Biso   1.000  C
  C27      1.0000 0.72361  0.64530  0.58054  Biso   1.000  C
  C28      1.0000 0.77639  0.35470  0.08054  Biso   1.000  C
  C29      1.0000 0.77639  0.14530  0.58054  Biso   1.000  C
  C30      1.0000 0.72361  0.85470  0.08054  Biso   1.000  C
  C31      1.0000 0.27639  0.35470  0.41946  Biso   1.000  C
  C32      1.0000 0.22361  0.64530  0.91946  Biso   1.000  C
  C33      1.0000 0.02759  0.91349  0.46572  Biso   1.000  C
  C34      1.0000 0.47241  0.08651  0.96572  Biso   1.000  C
  C35      1.0000 0.52759  0.58651  0.53428  Biso   1.000  C
  C36      1.0000 0.97241  0.41349  0.03428  Biso   1.000  C
  C37      1.0000 0.97241  0.08651  0.53428  Biso   1.000  C
  C38      1.0000 0.52759  0.91349  0.03428  Biso   1.000  C
  C39      1.0000 0.47241  0.41349  0.46572  Biso   1.000  C
  C40      1.0000 0.02759  0.58651  0.96572  Biso   1.000  C
  H25      1.0000 0.95990  0.93200  0.48080  Biso   1.000  H
  H26      1.0000 0.54010  0.06800  0.98080  Biso   1.000  H
  H27      1.0000 0.45990  0.56800  0.51920  Biso   1.000  H
  H28      1.0000 0.04010  0.43200  0.01920  Biso   1.000  H
  H29      1.0000 0.04010  0.06800  0.51920  Biso   1.000  H
  H30      1.0000 0.45990  0.93200  0.01920  Biso   1.000  H
  H31      1.0000 0.54010  0.43200  0.48080  Biso   1.000  H
  H32      1.0000 0.95990  0.56800  0.98080  Biso   1.000  H
  C41      1.0000 0.41002  0.79259  0.42307  Biso   1.000  C
  C42      1.0000 0.08998  0.20741  0.92307  Biso   1.000  C
  C43      1.0000 0.91002  0.70741  0.57693  Biso   1.000  C
  C44      1.0000 0.58998  0.29259  0.07693  Biso   1.000  C
  C45      1.0000 0.58998  0.20741  0.57693  Biso   1.000  C
  C46      1.0000 0.91002  0.79259  0.07693  Biso   1.000  C
  C47      1.0000 0.08998  0.29259  0.42307  Biso   1.000  C
  C48      1.0000 0.41002  0.70741  0.92307  Biso   1.000  C
  C49      1.0000 0.96340  0.11865  0.08161  Biso   1.000  C
  C50      1.0000 0.53660  0.88135  0.58161  Biso   1.000  C
  C51      1.0000 0.46340  0.38135  0.91839  Biso   1.000  C
  C52      1.0000 0.03660  0.61865  0.41839  Biso   1.000  C
  C53      1.0000 0.03660  0.88135  0.91839  Biso   1.000  C
  C54      1.0000 0.46340  0.11865  0.41839  Biso   1.000  C
  C55      1.0000 0.53660  0.61865  0.08161  Biso   1.000  C
  C56      1.0000 0.96340  0.38135  0.58161  Biso   1.000  C
  C57      1.0000 0.24332  0.92983  0.24460  Biso   1.000  C
  C58      1.0000 0.25668  0.07017  0.74460  Biso   1.000  C
  C59      1.0000 0.74332  0.57017  0.75540  Biso   1.000  C
  C60      1.0000 0.75668  0.42983  0.25540  Biso   1.000  C
  C61      1.0000 0.75668  0.07017  0.75540  Biso   1.000  C
  C62      1.0000 0.74332  0.92983  0.25540  Biso   1.000  C
  C63      1.0000 0.25668  0.42983  0.24460  Biso   1.000  C
  C64      1.0000 0.24332  0.57017  0.74460  Biso   1.000  C
  H33      1.0000 0.28610  0.88830  0.23060  Biso   1.000  H
  H34      1.0000 0.21390  0.11170  0.73060  Biso   1.000  H
  H35      1.0000 0.78610  0.61170  0.76940  Biso   1.000  H
  H36      1.0000 0.71390  0.38830  0.26940  Biso   1.000  H
  H37      1.0000 0.71390  0.11170  0.76940  Biso   1.000  H
  H38      1.0000 0.78610  0.88830  0.26940  Biso   1.000  H
  H39      1.0000 0.21390  0.38830  0.23060  Biso   1.000  H
  H40      1.0000 0.28610  0.61170  0.73060  Biso   1.000  H
  H41      1.0000 0.30190  0.96800  0.25220  Biso   1.000  H
  H42      1.0000 0.19810  0.03200  0.75220  Biso   1.000  H
  H43      1.0000 0.80190  0.53200  0.74780  Biso   1.000  H
  H44      1.0000 0.69810  0.46800  0.24780  Biso   1.000  H
  H45      1.0000 0.69810  0.03200  0.74780  Biso   1.000  H
  H46      1.0000 0.80190  0.96800  0.24780  Biso   1.000  H
  H47      1.0000 0.19810  0.46800  0.25220  Biso   1.000  H
  H48      1.0000 0.30190  0.53200  0.75220  Biso   1.000  H
  C65      1.0000 0.17477  0.82973  0.28730  Biso   1.000  C
  C66      1.0000 0.32523  0.17027  0.78730  Biso   1.000  C
  C67      1.0000 0.67477  0.67027  0.71270  Biso   1.000  C
  C68      1.0000 0.82523  0.32973  0.21270  Biso   1.000  C
  C69      1.0000 0.82523  0.17027  0.71270  Biso   1.000  C
  C70      1.0000 0.67477  0.82973  0.21270  Biso   1.000  C
  C71      1.0000 0.32523  0.32973  0.28730  Biso   1.000  C
  C72      1.0000 0.17477  0.67027  0.78730  Biso   1.000  C
  C73      1.0000 0.22623  0.71261  0.31861  Biso   1.000  C
  C74      1.0000 0.27377  0.28739  0.81861  Biso   1.000  C
  C75      1.0000 0.72623  0.78739  0.68139  Biso   1.000  C
  C76      1.0000 0.77377  0.21261  0.18139  Biso   1.000  C
  C77      1.0000 0.77377  0.28739  0.68139  Biso   1.000  C
  C78      1.0000 0.72623  0.71261  0.18139  Biso   1.000  C
  C79      1.0000 0.27377  0.21261  0.31861  Biso   1.000  C
  C80      1.0000 0.22623  0.78739  0.81861  Biso   1.000  C
  C81      1.0000 0.62068  0.78595  0.41805  Biso   1.000  C
  C82      1.0000 0.87932  0.21405  0.91805  Biso   1.000  C
  C83      1.0000 0.12068  0.71405  0.58195  Biso   1.000  C
  C84      1.0000 0.37932  0.28595  0.08195  Biso   1.000  C
  C85      1.0000 0.37932  0.21405  0.58195  Biso   1.000  C
  C86      1.0000 0.12068  0.78595  0.08195  Biso   1.000  C
  C87      1.0000 0.87932  0.28595  0.41805  Biso   1.000  C
  C88      1.0000 0.62068  0.71405  0.91805  Biso   1.000  C
  C89      1.0000 0.11010  0.26829  0.14953  Biso   1.000  C
  C90      1.0000 0.38990  0.73171  0.64953  Biso   1.000  C
  C91      1.0000 0.61010  0.23171  0.85047  Biso   1.000  C
  C92      1.0000 0.88990  0.76829  0.35047  Biso   1.000  C
  C93      1.0000 0.88990  0.73171  0.85047  Biso   1.000  C
  C94      1.0000 0.61010  0.26829  0.35047  Biso   1.000  C
  C95      1.0000 0.38990  0.76829  0.14953  Biso   1.000  C
  C96      1.0000 0.11010  0.23171  0.64953  Biso   1.000  C
  H49      1.0000 0.11120  0.32010  0.15270  Biso   1.000  H
  H50      1.0000 0.38880  0.67990  0.65270  Biso   1.000  H
  H51      1.0000 0.61120  0.17990  0.84730  Biso   1.000  H
  H52      1.0000 0.88880  0.82010  0.34730  Biso   1.000  H
  H53      1.0000 0.88880  0.67990  0.84730  Biso   1.000  H
  H54      1.0000 0.61120  0.32010  0.34730  Biso   1.000  H
  H55      1.0000 0.38880  0.82010  0.15270  Biso   1.000  H
  H56      1.0000 0.11120  0.17990  0.65270  Biso   1.000  H
  C97      1.0000 0.24345  0.79040  0.31717  Biso   1.000  C
  C98      1.0000 0.25655  0.20960  0.81717  Biso   1.000  C
  C99      1.0000 0.74345  0.70960  0.68283  Biso   1.000  C
  C100     1.0000 0.75655  0.29040  0.18283  Biso   1.000  C
  C101     1.0000 0.75655  0.20960  0.68283  Biso   1.000  C
  C102     1.0000 0.74345  0.79040  0.18283  Biso   1.000  C
  C103     1.0000 0.25655  0.29040  0.31717  Biso   1.000  C
  C104     1.0000 0.24345  0.70960  0.81717  Biso   1.000  C
  C105     1.0000 0.15765  0.96059  0.21021  Biso   1.000  C
  C106     1.0000 0.34235  0.03941  0.71021  Biso   1.000  C
  C107     1.0000 0.65765  0.53941  0.78979  Biso   1.000  C
  C108     1.0000 0.84235  0.46059  0.28979  Biso   1.000  C
  C109     1.0000 0.84235  0.03941  0.78979  Biso   1.000  C
  C110     1.0000 0.65765  0.96059  0.28979  Biso   1.000  C
  C111     1.0000 0.34235  0.46059  0.21021  Biso   1.000  C
  C112     1.0000 0.15765  0.53941  0.71021  Biso   1.000  C
  C113     1.0000 0.08913  0.79743  0.25900  Biso   1.000  C
  C114     1.0000 0.41087  0.20257  0.75900  Biso   1.000  C
  C115     1.0000 0.58913  0.70257  0.74100  Biso   1.000  C
  C116     1.0000 0.91087  0.29743  0.24100  Biso   1.000  C
  C117     1.0000 0.91087  0.20257  0.74100  Biso   1.000  C
  C118     1.0000 0.58913  0.79743  0.24100  Biso   1.000  C
  C119     1.0000 0.41087  0.29743  0.25900  Biso   1.000  C
  C120     1.0000 0.08913  0.70257  0.75900  Biso   1.000  C
  H57      1.0000 0.04330  0.82690  0.23920  Biso   1.000  H
  H58      1.0000 0.45670  0.17310  0.73920  Biso   1.000  H
  H59      1.0000 0.54330  0.67310  0.76080  Biso   1.000  H
  H60      1.0000 0.95670  0.32690  0.26080  Biso   1.000  H
  H61      1.0000 0.95670  0.17310  0.76080  Biso   1.000  H
  H62      1.0000 0.54330  0.82690  0.26080  Biso   1.000  H
  H63      1.0000 0.45670  0.32690  0.23920  Biso   1.000  H
  H64      1.0000 0.04330  0.67310  0.73920  Biso   1.000  H
  C121     1.0000 0.21231  0.84740  0.46759  Biso   1.000  C
  C122     1.0000 0.28769  0.15260  0.96759  Biso   1.000  C
  C123     1.0000 0.71231  0.65260  0.53241  Biso   1.000  C
  C124     1.0000 0.78769  0.34740  0.03241  Biso   1.000  C
  C125     1.0000 0.78769  0.15260  0.53241  Biso   1.000  C
  C126     1.0000 0.71231  0.84740  0.03241  Biso   1.000  C
  C127     1.0000 0.28769  0.34740  0.46759  Biso   1.000  C
  C128     1.0000 0.21231  0.65260  0.96759  Biso   1.000  C
  C129     1.0000 0.82895  0.03161  0.02628  Biso   1.000  C
  C130     1.0000 0.67105  0.96839  0.52628  Biso   1.000  C
  C131     1.0000 0.32895  0.46839  0.97372  Biso   1.000  C
  C132     1.0000 0.17105  0.53161  0.47372  Biso   1.000  C
  C133     1.0000 0.17105  0.96839  0.97372  Biso   1.000  C
  C134     1.0000 0.32895  0.03161  0.47372  Biso   1.000  C
  C135     1.0000 0.67105  0.53161  0.02628  Biso   1.000  C
  C136     1.0000 0.82895  0.46839  0.52628  Biso   1.000  C
  H65      1.0000 0.78380  0.00050  0.00720  Biso   1.000  H
  H66      1.0000 0.71620  0.99950  0.50720  Biso   1.000  H
  H67      1.0000 0.28380  0.49950  0.99280  Biso   1.000  H
  H68      1.0000 0.21620  0.50050  0.49280  Biso   1.000  H
  H69      1.0000 0.21620  0.99950  0.99280  Biso   1.000  H
  H70      1.0000 0.28380  0.00050  0.49280  Biso   1.000  H
  H71      1.0000 0.71620  0.50050  0.00720  Biso   1.000  H
  H72      1.0000 0.78380  0.49950  0.50720  Biso   1.000  H
  C137     1.0000 0.11131  0.87657  0.48959  Biso   1.000  C
  C138     1.0000 0.38869  0.12343  0.98959  Biso   1.000  C
  C139     1.0000 0.61131  0.62343  0.51041  Biso   1.000  C
  C140     1.0000 0.88869  0.37657  0.01041  Biso   1.000  C
  C141     1.0000 0.88869  0.12343  0.51041  Biso   1.000  C
  C142     1.0000 0.61131  0.87657  0.01041  Biso   1.000  C
  C143     1.0000 0.38869  0.37657  0.48959  Biso   1.000  C
  C144     1.0000 0.11131  0.62343  0.98959  Biso   1.000  C
  H73      1.0000 0.10210  0.87020  0.52140  Biso   1.000  H
  H74      1.0000 0.39790  0.12980  0.02140  Biso   1.000  H
  H75      1.0000 0.60210  0.62980  0.47860  Biso   1.000  H
  H76      1.0000 0.89790  0.37020  0.97860  Biso   1.000  H
  H77      1.0000 0.89790  0.12980  0.47860  Biso   1.000  H
  H78      1.0000 0.60210  0.87020  0.97860  Biso   1.000  H
  H79      1.0000 0.39790  0.37020  0.52140  Biso   1.000  H
  H80      1.0000 0.10210  0.62980  0.02140  Biso   1.000  H
  C145     1.0000 0.07263  0.72327  0.26034  Biso   1.000  C
  C146     1.0000 0.42737  0.27673  0.76034  Biso   1.000  C
  C147     1.0000 0.57263  0.77673  0.73966  Biso   1.000  C
  C148     1.0000 0.92737  0.22327  0.23966  Biso   1.000  C
  C149     1.0000 0.92737  0.27673  0.73966  Biso   1.000  C
  C150     1.0000 0.57263  0.72327  0.23966  Biso   1.000  C
  C151     1.0000 0.42737  0.22327  0.26034  Biso   1.000  C
  C152     1.0000 0.07263  0.77673  0.76034  Biso   1.000  C
  H81      1.0000 0.01580  0.70120  0.24110  Biso   1.000  H
  H82      1.0000 0.48420  0.29880  0.74110  Biso   1.000  H
  H83      1.0000 0.51580  0.79880  0.75890  Biso   1.000  H
  H84      1.0000 0.98420  0.20120  0.25890  Biso   1.000  H
  H85      1.0000 0.98420  0.29880  0.75890  Biso   1.000  H
  H86      1.0000 0.51580  0.70120  0.25890  Biso   1.000  H
  H87      1.0000 0.48420  0.20120  0.24110  Biso   1.000  H
  H88      1.0000 0.01580  0.79880  0.74110  Biso   1.000  H
  C153     1.0000 0.32366  0.82373  0.39681  Biso   1.000  C
  C154     1.0000 0.17634  0.17627  0.89681  Biso   1.000  C
  C155     1.0000 0.82366  0.67627  0.60319  Biso   1.000  C
  C156     1.0000 0.67634  0.32373  0.10319  Biso   1.000  C
  C157     1.0000 0.67634  0.17627  0.60319  Biso   1.000  C
  C158     1.0000 0.82366  0.82373  0.10319  Biso   1.000  C
  C159     1.0000 0.17634  0.32373  0.39681  Biso   1.000  C
  C160     1.0000 0.32366  0.67627  0.89681  Biso   1.000  C
  C161     1.0000 0.39960  0.78559  0.47060  Biso   1.000  C
  C162     1.0000 0.10040  0.21441  0.97060  Biso   1.000  C
  C163     1.0000 0.89960  0.71441  0.52940  Biso   1.000  C
  C164     1.0000 0.60040  0.28559  0.02940  Biso   1.000  C
  C165     1.0000 0.60040  0.21441  0.52940  Biso   1.000  C
  C166     1.0000 0.89960  0.78559  0.02940  Biso   1.000  C
  C167     1.0000 0.10040  0.28559  0.47060  Biso   1.000  C
  C168     1.0000 0.39960  0.71441  0.97060  Biso   1.000  C
  H89      1.0000 0.46020  0.76230  0.48750  Biso   1.000  H
  H90      1.0000 0.03980  0.23770  0.98750  Biso   1.000  H
  H91      1.0000 0.96020  0.73770  0.51250  Biso   1.000  H
  H92      1.0000 0.53980  0.26230  0.01250  Biso   1.000  H
  H93      1.0000 0.53980  0.23770  0.51250  Biso   1.000  H
  H94      1.0000 0.96020  0.76230  0.01250  Biso   1.000  H
  H95      1.0000 0.03980  0.26230  0.48750  Biso   1.000  H
  H96      1.0000 0.46020  0.73770  0.98750  Biso   1.000  H
  C169     1.0000 0.03863  0.15981  0.11357  Biso   1.000  C
  C170     1.0000 0.46137  0.84019  0.61357  Biso   1.000  C
  C171     1.0000 0.53863  0.34019  0.88643  Biso   1.000  C
  C172     1.0000 0.96137  0.65981  0.38643  Biso   1.000  C
  C173     1.0000 0.96137  0.84019  0.88643  Biso   1.000  C
  C174     1.0000 0.53863  0.15981  0.38643  Biso   1.000  C
  C175     1.0000 0.46137  0.65981  0.11357  Biso   1.000  C
  C176     1.0000 0.03863  0.34019  0.61357  Biso   1.000  C
  C177     1.0000 0.30300  0.81215  0.49213  Biso   1.000  C
  C178     1.0000 0.19700  0.18785  0.99213  Biso   1.000  C
  C179     1.0000 0.80300  0.68785  0.50787  Biso   1.000  C
  C180     1.0000 0.69700  0.31215  0.00787  Biso   1.000  C
  C181     1.0000 0.69700  0.18785  0.50787  Biso   1.000  C
  C182     1.0000 0.80300  0.81215  0.00787  Biso   1.000  C
  C183     1.0000 0.19700  0.31215  0.49213  Biso   1.000  C
  C184     1.0000 0.30300  0.68785  0.99213  Biso   1.000  C
  H97      1.0000 0.29620  0.80700  0.52410  Biso   1.000  H
  H98      1.0000 0.20380  0.19300  0.02410  Biso   1.000  H
  H99      1.0000 0.79620  0.69300  0.47590  Biso   1.000  H
  H100     1.0000 0.70380  0.30700  0.97590  Biso   1.000  H
  H101     1.0000 0.70380  0.19300  0.47590  Biso   1.000  H
  H102     1.0000 0.79620  0.80700  0.97590  Biso   1.000  H
  H103     1.0000 0.20380  0.30700  0.52410  Biso   1.000  H
  H104     1.0000 0.29620  0.69300  0.02410  Biso   1.000  H
  C185     1.0000 0.87776  0.15047  0.05444  Biso   1.000  C
  C186     1.0000 0.62224  0.84953  0.55444  Biso   1.000  C
  C187     1.0000 0.37776  0.34953  0.94556  Biso   1.000  C
  C188     1.0000 0.12224  0.65047  0.44556  Biso   1.000  C
  C189     1.0000 0.12224  0.84953  0.94556  Biso   1.000  C
  C190     1.0000 0.37776  0.15047  0.44556  Biso   1.000  C
  C191     1.0000 0.62224  0.65047  0.05444  Biso   1.000  C
  C192     1.0000 0.87776  0.34953  0.55444  Biso   1.000  C
  H105     1.0000 0.86580  0.20200  0.05500  Biso   1.000  H
  H106     1.0000 0.63420  0.79800  0.55500  Biso   1.000  H
  H107     1.0000 0.36580  0.29800  0.94500  Biso   1.000  H
  H108     1.0000 0.13420  0.70200  0.44500  Biso   1.000  H
  H109     1.0000 0.13420  0.79800  0.94500  Biso   1.000  H
  H110     1.0000 0.36580  0.20200  0.44500  Biso   1.000  H
  H111     1.0000 0.63420  0.70200  0.05500  Biso   1.000  H
  H112     1.0000 0.86580  0.29800  0.55500  Biso   1.000  H
  C193     1.0000 0.17925  0.22480  0.17702  Biso   1.000  C
  C194     1.0000 0.32075  0.77520  0.67702  Biso   1.000  C
  C195     1.0000 0.67925  0.27520  0.82298  Biso   1.000  C
  C196     1.0000 0.82075  0.72480  0.32298  Biso   1.000  C
  C197     1.0000 0.82075  0.77520  0.82298  Biso   1.000  C
  C198     1.0000 0.67925  0.22480  0.32298  Biso   1.000  C
  C199     1.0000 0.32075  0.72480  0.17702  Biso   1.000  C
  C200     1.0000 0.17925  0.27520  0.67702  Biso   1.000  C
  H113     1.0000 0.22780  0.24620  0.19970  Biso   1.000  H
  H114     1.0000 0.27220  0.75380  0.69970  Biso   1.000  H
  H115     1.0000 0.72780  0.25380  0.80030  Biso   1.000  H
  H116     1.0000 0.77220  0.74620  0.30030  Biso   1.000  H
  H117     1.0000 0.77220  0.75380  0.80030  Biso   1.000  H
  H118     1.0000 0.72780  0.24620  0.30030  Biso   1.000  H
  H119     1.0000 0.27220  0.74620  0.19970  Biso   1.000  H
  H120     1.0000 0.22780  0.25380  0.69970  Biso   1.000  H
  C201     1.0000 0.91533  0.00277  0.05451  Biso   1.000  C
  C202     1.0000 0.58467  0.99723  0.55451  Biso   1.000  C
  C203     1.0000 0.41533  0.49723  0.94549  Biso   1.000  C
  C204     1.0000 0.08467  0.50277  0.44549  Biso   1.000  C
  C205     1.0000 0.08467  0.99723  0.94549  Biso   1.000  C
  C206     1.0000 0.41533  0.00277  0.44549  Biso   1.000  C
  C207     1.0000 0.58467  0.50277  0.05451  Biso   1.000  C
  C208     1.0000 0.91533  0.49723  0.55451  Biso   1.000  C
  H121     1.0000 0.92820  0.95140  0.05460  Biso   1.000  H
  H122     1.0000 0.57180  0.04860  0.55460  Biso   1.000  H
  H123     1.0000 0.42820  0.54860  0.94540  Biso   1.000  H
  H124     1.0000 0.07180  0.45140  0.44540  Biso   1.000  H
  H125     1.0000 0.07180  0.04860  0.94540  Biso   1.000  H
  H126     1.0000 0.42820  0.95140  0.44540  Biso   1.000  H
  H127     1.0000 0.57180  0.45140  0.05460  Biso   1.000  H
  H128     1.0000 0.92820  0.54860  0.55460  Biso   1.000  H
  C209     1.0000 0.03868  0.23519  0.11712  Biso   1.000  C
  C210     1.0000 0.46132  0.76481  0.61712  Biso   1.000  C
  C211     1.0000 0.53868  0.26481  0.88288  Biso   1.000  C
  C212     1.0000 0.96132  0.73519  0.38288  Biso   1.000  C
  C213     1.0000 0.96132  0.76481  0.88288  Biso   1.000  C
  C214     1.0000 0.53868  0.23519  0.38288  Biso   1.000  C
  C215     1.0000 0.46132  0.73519  0.11712  Biso   1.000  C
  C216     1.0000 0.03868  0.26481  0.61712  Biso   1.000  C
  H129     1.0000 0.99060  0.26400  0.09770  Biso   1.000  H
  H130     1.0000 0.50940  0.73600  0.59770  Biso   1.000  H
  H131     1.0000 0.49060  0.23600  0.90230  Biso   1.000  H
  H132     1.0000 0.00940  0.76400  0.40230  Biso   1.000  H
  H133     1.0000 0.00940  0.73600  0.90230  Biso   1.000  H
  H134     1.0000 0.49060  0.26400  0.40230  Biso   1.000  H
  H135     1.0000 0.50940  0.76400  0.09770  Biso   1.000  H
  H136     1.0000 0.99060  0.23600  0.59770  Biso   1.000  H
  C217     1.0000 0.12070  0.60266  0.29342  Biso   1.000  C
  C218     1.0000 0.37930  0.39734  0.79342  Biso   1.000  C
  C219     1.0000 0.62070  0.89734  0.70658  Biso   1.000  C
  C220     1.0000 0.87930  0.10266  0.20658  Biso   1.000  C
  C221     1.0000 0.87930  0.39734  0.70658  Biso   1.000  C
  C222     1.0000 0.62070  0.60266  0.20658  Biso   1.000  C
  C223     1.0000 0.37930  0.10266  0.29342  Biso   1.000  C
  C224     1.0000 0.12070  0.89734  0.79342  Biso   1.000  C
  H137     1.0000 0.06260  0.58020  0.27480  Biso   1.000  H
  H138     1.0000 0.43740  0.41980  0.77480  Biso   1.000  H
  H139     1.0000 0.56260  0.91980  0.72520  Biso   1.000  H
  H140     1.0000 0.93740  0.08020  0.22520  Biso   1.000  H
  H141     1.0000 0.93740  0.41980  0.72520  Biso   1.000  H
  H142     1.0000 0.56260  0.58020  0.22520  Biso   1.000  H
  H143     1.0000 0.43740  0.08020  0.27480  Biso   1.000  H
  H144     1.0000 0.06260  0.91980  0.77480  Biso   1.000  H
  C225     1.0000 0.29365  0.66656  0.34729  Biso   1.000  C
  C226     1.0000 0.20635  0.33344  0.84729  Biso   1.000  C
  C227     1.0000 0.79365  0.83344  0.65271  Biso   1.000  C
  C228     1.0000 0.70635  0.16656  0.15271  Biso   1.000  C
  C229     1.0000 0.70635  0.33344  0.65271  Biso   1.000  C
  C230     1.0000 0.79365  0.66656  0.15271  Biso   1.000  C
  C231     1.0000 0.20635  0.16656  0.34729  Biso   1.000  C
  C232     1.0000 0.29365  0.83344  0.84729  Biso   1.000  C
  H145     1.0000 0.35410  0.68720  0.36560  Biso   1.000  H
  H146     1.0000 0.14590  0.31280  0.86560  Biso   1.000  H
  H147     1.0000 0.85410  0.81280  0.63440  Biso   1.000  H
  H148     1.0000 0.64590  0.18720  0.13440  Biso   1.000  H
  H149     1.0000 0.64590  0.31280  0.63440  Biso   1.000  H
  H150     1.0000 0.85410  0.68720  0.13440  Biso   1.000  H
  H151     1.0000 0.14590  0.18720  0.36560  Biso   1.000  H
  H152     1.0000 0.35410  0.81280  0.86560  Biso   1.000  H
  C233     1.0000 0.18420  0.56081  0.32255  Biso   1.000  C
  C234     1.0000 0.31580  0.43919  0.82255  Biso   1.000  C
  C235     1.0000 0.68420  0.93919  0.67745  Biso   1.000  C
  C236     1.0000 0.81580  0.06081  0.17745  Biso   1.000  C
  C237     1.0000 0.81580  0.43919  0.67745  Biso   1.000  C
  C238     1.0000 0.68420  0.56081  0.17745  Biso   1.000  C
  C239     1.0000 0.31580  0.06081  0.32255  Biso   1.000  C
  C240     1.0000 0.18420  0.93919  0.82255  Biso   1.000  C
  H153     1.0000 0.16840  0.50990  0.32500  Biso   1.000  H
  H154     1.0000 0.33160  0.49010  0.82500  Biso   1.000  H
  H155     1.0000 0.66840  0.99010  0.67500  Biso   1.000  H
  H156     1.0000 0.83160  0.00990  0.17500  Biso   1.000  H
  H157     1.0000 0.83160  0.49010  0.67500  Biso   1.000  H
  H158     1.0000 0.66840  0.50990  0.17500  Biso   1.000  H
  H159     1.0000 0.33160  0.00990  0.32500  Biso   1.000  H
  H160     1.0000 0.16840  0.99010  0.82500  Biso   1.000  H
  C241     1.0000 0.17708  0.14965  0.17113  Biso   1.000  C
  C242     1.0000 0.32292  0.85035  0.67113  Biso   1.000  C
  C243     1.0000 0.67708  0.35035  0.82887  Biso   1.000  C
  C244     1.0000 0.82292  0.64965  0.32887  Biso   1.000  C
  C245     1.0000 0.82292  0.85035  0.82887  Biso   1.000  C
  C246     1.0000 0.67708  0.14965  0.32887  Biso   1.000  C
  C247     1.0000 0.32292  0.64965  0.17113  Biso   1.000  C
  C248     1.0000 0.17708  0.35035  0.67113  Biso   1.000  C
  H161     1.0000 0.22590  0.11990  0.18970  Biso   1.000  H
  H162     1.0000 0.27410  0.88010  0.68970  Biso   1.000  H
  H163     1.0000 0.72590  0.38010  0.81030  Biso   1.000  H
  H164     1.0000 0.77410  0.61990  0.31030  Biso   1.000  H
  H165     1.0000 0.77410  0.88010  0.81030  Biso   1.000  H
  H166     1.0000 0.72590  0.11990  0.31030  Biso   1.000  H
  H167     1.0000 0.27410  0.61990  0.18970  Biso   1.000  H
  H168     1.0000 0.22590  0.38010  0.68970  Biso   1.000  H
  C249     1.0000 0.27310  0.59260  0.34912  Biso   1.000  C
  C250     1.0000 0.22690  0.40740  0.84912  Biso   1.000  C
  C251     1.0000 0.77310  0.90740  0.65088  Biso   1.000  C
  C252     1.0000 0.72690  0.09260  0.15088  Biso   1.000  C
  C253     1.0000 0.72690  0.40740  0.65088  Biso   1.000  C
  C254     1.0000 0.77310  0.59260  0.15088  Biso   1.000  C
  C255     1.0000 0.22690  0.09260  0.34912  Biso   1.000  C
  C256     1.0000 0.27310  0.90740  0.84912  Biso   1.000  C
  H169     1.0000 0.31950  0.56270  0.36850  Biso   1.000  H
  H170     1.0000 0.18050  0.43730  0.86850  Biso   1.000  H
  H171     1.0000 0.81950  0.93730  0.63150  Biso   1.000  H
  H172     1.0000 0.68050  0.06270  0.13150  Biso   1.000  H
  H173     1.0000 0.68050  0.43730  0.63150  Biso   1.000  H
  H174     1.0000 0.81950  0.56270  0.13150  Biso   1.000  H
  H175     1.0000 0.18050  0.06270  0.36850  Biso   1.000  H
  H176     1.0000 0.31950  0.93730  0.86850  Biso   1.000  H
  C257     1.0000 0.65481  0.86519  0.40863  Biso   1.000  C
  C258     1.0000 0.84519  0.13481  0.90863  Biso   1.000  C
  C259     1.0000 0.15481  0.63481  0.59137  Biso   1.000  C
  C260     1.0000 0.34519  0.36519  0.09137  Biso   1.000  C
  C261     1.0000 0.34519  0.13481  0.59137  Biso   1.000  C
  C262     1.0000 0.15481  0.86519  0.09137  Biso   1.000  C
  C263     1.0000 0.84519  0.36519  0.40863  Biso   1.000  C
  C264     1.0000 0.65481  0.63481  0.90863  Biso   1.000  C
  C265     1.0000 0.04130  0.92429  0.41870  Biso   1.000  C
  C266     1.0000 0.45870  0.07571  0.91870  Biso   1.000  C
  C267     1.0000 0.54130  0.57571  0.58130  Biso   1.000  C
  C268     1.0000 0.95870  0.42429  0.08130  Biso   1.000  C
  C269     1.0000 0.95870  0.07571  0.58130  Biso   1.000  C
  C270     1.0000 0.54130  0.92429  0.08130  Biso   1.000  C
  C271     1.0000 0.45870  0.42429  0.41870  Biso   1.000  C
  C272     1.0000 0.04130  0.57571  0.91870  Biso   1.000  C
  H177     1.0000 0.98420  0.95180  0.40240  Biso   1.000  H
  H178     1.0000 0.51580  0.04820  0.90240  Biso   1.000  H
  H179     1.0000 0.48420  0.54820  0.59760  Biso   1.000  H
  H180     1.0000 0.01580  0.45180  0.09760  Biso   1.000  H
  H181     1.0000 0.01580  0.04820  0.59760  Biso   1.000  H
  H182     1.0000 0.48420  0.95180  0.09760  Biso   1.000  H
  H183     1.0000 0.51580  0.45180  0.40240  Biso   1.000  H
  H184     1.0000 0.98420  0.54820  0.90240  Biso   1.000  H
  C273     1.0000 0.80988  0.10633  0.02652  Biso   1.000  C
  C274     1.0000 0.69012  0.89367  0.52652  Biso   1.000  C
  C275     1.0000 0.30988  0.39367  0.97348  Biso   1.000  C
  C276     1.0000 0.19012  0.60633  0.47348  Biso   1.000  C
  C277     1.0000 0.19012  0.89367  0.97348  Biso   1.000  C
  C278     1.0000 0.30988  0.10633  0.47348  Biso   1.000  C
  C279     1.0000 0.69012  0.60633  0.02652  Biso   1.000  C
  C280     1.0000 0.80988  0.39367  0.52652  Biso   1.000  C
  H185     1.0000 0.75080  0.12730  0.00770  Biso   1.000  H
  H186     1.0000 0.74920  0.87270  0.50770  Biso   1.000  H
  H187     1.0000 0.25080  0.37270  0.99230  Biso   1.000  H
  H188     1.0000 0.24920  0.62730  0.49230  Biso   1.000  H
  H189     1.0000 0.24920  0.87270  0.99230  Biso   1.000  H
  H190     1.0000 0.25080  0.12730  0.49230  Biso   1.000  H
  H191     1.0000 0.74920  0.62730  0.00770  Biso   1.000  H
  H192     1.0000 0.75080  0.37270  0.50770  Biso   1.000  H
  O57      1.0000 0.46308  0.00578  0.18238  Biso   1.000  O
  O58      1.0000 0.03692  0.99422  0.68238  Biso   1.000  O
  O59      1.0000 0.96308  0.49422  0.81762  Biso   1.000  O
  O60      1.0000 0.53692  0.50578  0.31762  Biso   1.000  O
  O61      1.0000 0.53692  0.99422  0.81762  Biso   1.000  O
  O62      1.0000 0.96308  0.00578  0.31762  Biso   1.000  O
  O63      1.0000 0.03692  0.50578  0.18238  Biso   1.000  O
  O64      1.0000 0.46308  0.49422  0.68238  Biso   1.000  O
  O65      1.0000 0.43084  0.10970  0.11646  Biso   1.000  O
  O66      1.0000 0.06916  0.89030  0.61646  Biso   1.000  O
  O67      1.0000 0.93084  0.39030  0.88354  Biso   1.000  O
  O68      1.0000 0.56916  0.60970  0.38354  Biso   1.000  O
  O69      1.0000 0.56916  0.89030  0.88354  Biso   1.000  O
  O70      1.0000 0.93084  0.10970  0.38354  Biso   1.000  O
  O71      1.0000 0.06916  0.60970  0.11646  Biso   1.000  O
  O72      1.0000 0.43084  0.39030  0.61646  Biso   1.000  O
  H193     1.0000 0.50240  0.98140  0.20480  Biso   1.000  H
  H194     1.0000 0.99760  0.01860  0.70480  Biso   1.000  H
  H195     1.0000 0.00240  0.51860  0.79520  Biso   1.000  H
  H196     1.0000 0.49760  0.48140  0.29520  Biso   1.000  H
  H197     1.0000 0.49760  0.01860  0.79520  Biso   1.000  H
  H198     1.0000 0.00240  0.98140  0.29520  Biso   1.000  H
  H199     1.0000 0.99760  0.48140  0.20480  Biso   1.000  H
  H200     1.0000 0.50240  0.51860  0.70480  Biso   1.000  H
  H201     1.0000 0.44660  0.08680  0.14600  Biso   1.000  H
  H202     1.0000 0.05340  0.91320  0.64600  Biso   1.000  H
  H203     1.0000 0.94660  0.41320  0.85400  Biso   1.000  H
  H204     1.0000 0.55340  0.58680  0.35400  Biso   1.000  H
  H205     1.0000 0.55340  0.91320  0.85400  Biso   1.000  H
  H206     1.0000 0.94660  0.08680  0.35400  Biso   1.000  H
  H207     1.0000 0.05340  0.58680  0.14600  Biso   1.000  H
  H208     1.0000 0.44660  0.41320  0.64600  Biso   1.000  H
  H209     1.0000 0.46500  0.15710  0.11680  Biso   1.000  H
  H210     1.0000 0.03500  0.84290  0.61680  Biso   1.000  H
  H211     1.0000 0.96500  0.34290  0.88320  Biso   1.000  H
  H212     1.0000 0.53500  0.65710  0.38320  Biso   1.000  H
  H213     1.0000 0.53500  0.84290  0.88320  Biso   1.000  H
  H214     1.0000 0.96500  0.15710  0.38320  Biso   1.000  H
  H215     1.0000 0.03500  0.65710  0.11680  Biso   1.000  H
  H216     1.0000 0.46500  0.34290  0.61680  Biso   1.000  H
  H217     1.0000 0.67480  0.75490  0.40340  Biso   1.000  H
  H218     1.0000 0.82520  0.24510  0.90340  Biso   1.000  H
  H219     1.0000 0.17480  0.74510  0.59660  Biso   1.000  H
  H220     1.0000 0.32520  0.25490  0.09660  Biso   1.000  H
  H221     1.0000 0.32520  0.24510  0.59660  Biso   1.000  H
  H222     1.0000 0.17480  0.75490  0.09660  Biso   1.000  H
  H223     1.0000 0.82520  0.25490  0.40340  Biso   1.000  H
  H224     1.0000 0.67480  0.74510  0.90340  Biso   1.000  H
  H225     1.0000 0.62800  0.77880  0.45140  Biso   1.000  H
  H226     1.0000 0.87200  0.22120  0.95140  Biso   1.000  H
  H227     1.0000 0.12800  0.72120  0.54860  Biso   1.000  H
  H228     1.0000 0.37200  0.27880  0.04860  Biso   1.000  H
  H229     1.0000 0.37200  0.22120  0.54860  Biso   1.000  H
  H230     1.0000 0.12800  0.77880  0.04860  Biso   1.000  H
  H231     1.0000 0.87200  0.27880  0.45140  Biso   1.000  H
  H232     1.0000 0.62800  0.72120  0.95140  Biso   1.000  H
  H233     1.0000 0.38300  0.99360  0.18160  Biso   1.000  H
  H234     1.0000 0.11700  0.00640  0.68160  Biso   1.000  H
  H235     1.0000 0.88300  0.50640  0.81840  Biso   1.000  H
  H236     1.0000 0.61700  0.49360  0.31840  Biso   1.000  H
  H237     1.0000 0.61700  0.00640  0.81840  Biso   1.000  H
  H238     1.0000 0.88300  0.99360  0.31840  Biso   1.000  H
  H239     1.0000 0.11700  0.49360  0.18160  Biso   1.000  H
  H240     1.0000 0.38300  0.50640  0.68160  Biso   1.000  H
  H241     1.0000 0.30900  0.05030  0.08590  Biso   1.000  H
  H242     1.0000 0.19100  0.94970  0.58590  Biso   1.000  H
  H243     1.0000 0.80900  0.44970  0.91410  Biso   1.000  H
  H244     1.0000 0.69100  0.55030  0.41410  Biso   1.000  H
  H245     1.0000 0.69100  0.94970  0.91410  Biso   1.000  H
  H246     1.0000 0.80900  0.05030  0.41410  Biso   1.000  H
  H247     1.0000 0.19100  0.55030  0.08590  Biso   1.000  H
  H248     1.0000 0.30900  0.44970  0.58590  Biso   1.000  H
  H249     1.0000 0.27700  0.97890  0.07440  Biso   1.000  H
  H250     1.0000 0.22300  0.02110  0.57440  Biso   1.000  H
  H251     1.0000 0.77700  0.52110  0.92560  Biso   1.000  H
  H252     1.0000 0.72300  0.47890  0.42560  Biso   1.000  H
  H253     1.0000 0.72300  0.02110  0.92560  Biso   1.000  H
  H254     1.0000 0.77700  0.97890  0.42560  Biso   1.000  H
  H255     1.0000 0.22300  0.47890  0.07440  Biso   1.000  H
  H256     1.0000 0.27700  0.52110  0.57440  Biso   1.000  H
