data_image0
_cell_length_a       12.996
_cell_length_b       13.425
_cell_length_c       18.89
_cell_angle_alpha    90
_cell_angle_beta     95.79
_cell_angle_gamma    90

_symmetry_space_group_name_H-M    "P 1"
_symmetry_int_tables_number       1

loop_
  _symmetry_equiv_pos_as_xyz
  'x, y, z'

loop_
  _atom_site_label
  _atom_site_occupancy
  _atom_site_fract_x
  _atom_site_fract_y
  _atom_site_fract_z
  _atom_site_thermal_displace_type
  _atom_site_B_iso_or_equiv
  _atom_site_type_symbol
  Cu1      1.0000 0.26799  0.65183  0.73448  Biso   1.000  Cu
  Cu2      1.0000 0.73201  0.15183  0.26552  Biso   1.000  Cu
  Cu3      1.0000 0.27957  0.84696  0.74486  Biso   1.000  Cu
  Cu4      1.0000 0.72043  0.34696  0.25514  Biso   1.000  Cu
  S1       1.0000 0.67409  0.97324  0.93436  Biso   1.000  S
  S2       1.0000 0.32591  0.47324  0.06564  Biso   1.000  S
  S3       1.0000 0.17212  0.52004  0.42295  Biso   1.000  S
  S4       1.0000 0.82788  0.02004  0.57705  Biso   1.000  S
  O1       1.0000 0.61230  0.79740  0.85203  Biso   1.000  O
  O2       1.0000 0.38770  0.29740  0.14797  Biso   1.000  O
  O3       1.0000 0.26340  0.69740  0.49012  Biso   1.000  O
  O4       1.0000 0.73660  0.19740  0.50988  Biso   1.000  O
  O5       1.0000 0.42210  0.81730  0.78368  Biso   1.000  O
  O6       1.0000 0.57790  0.31730  0.21632  Biso   1.000  O
  O7       1.0000 0.41980  0.65730  0.74769  Biso   1.000  O
  O8       1.0000 0.58020  0.15730  0.25231  Biso   1.000  O
  O9       1.0000 0.23220  0.49620  0.72159  Biso   1.000  O
  O10      1.0000 0.76780  0.99620  0.27841  Biso   1.000  O
  O11      1.0000 0.86770  0.34560  0.29612  Biso   1.000  O
  O12      1.0000 0.13230  0.84560  0.70388  Biso   1.000  O
  O13      1.0000 0.27150  0.67890  0.63295  Biso   1.000  O
  O14      1.0000 0.72850  0.17890  0.36705  Biso   1.000  O
  O15      1.0000 0.32040  0.84000  0.64756  Biso   1.000  O
  O16      1.0000 0.67960  0.34000  0.35244  Biso   1.000  O
  N1       1.0000 0.19240  0.14910  0.76476  Biso   1.000  N
  N2       1.0000 0.80760  0.64910  0.23524  Biso   1.000  N
  O17      1.0000 0.88120  0.18093  0.27470  Biso   1.000  O
  O18      1.0000 0.11880  0.68093  0.72530  Biso   1.000  O
  C1       1.0000 0.00440  0.80690  0.06580  Biso   1.000  C
  C2       1.0000 0.99560  0.30690  0.93420  Biso   1.000  C
  H1       1.0000 0.06250  0.80850  0.10070  Biso   1.000  H
  H2       1.0000 0.93750  0.30850  0.89930  Biso   1.000  H
  C3       1.0000 0.60540  0.87030  0.96465  Biso   1.000  C
  C4       1.0000 0.39460  0.37030  0.03535  Biso   1.000  C
  C5       1.0000 0.57090  0.86730  0.03477  Biso   1.000  C
  C6       1.0000 0.42910  0.36730  0.96523  Biso   1.000  C
  O19      1.0000 0.28370  0.00460  0.75850  Biso   1.000  O
  O20      1.0000 0.71630  0.50460  0.24150  Biso   1.000  O
  C7       1.0000 0.32030  0.77050  0.53290  Biso   1.000  C
  C8       1.0000 0.67970  0.27050  0.46710  Biso   1.000  C
  H3       1.0000 0.29980  0.83770  0.51520  Biso   1.000  H
  H4       1.0000 0.70020  0.33770  0.48480  Biso   1.000  H
  H5       1.0000 0.39500  0.76200  0.52820  Biso   1.000  H
  H6       1.0000 0.60500  0.26200  0.47180  Biso   1.000  H
  C9       1.0000 0.17600  0.59630  0.28470  Biso   1.000  C
  C10      1.0000 0.82400  0.09630  0.71530  Biso   1.000  C
  N3       1.0000 0.06460  0.46090  0.67970  Biso   1.000  N
  N4       1.0000 0.93540  0.96090  0.32030  Biso   1.000  N
  C11      1.0000 0.10220  0.62530  0.45067  Biso   1.000  C
  C12      1.0000 0.89780  0.12530  0.54933  Biso   1.000  C
  C13      1.0000 0.59320  0.94560  0.08610  Biso   1.000  C
  C14      1.0000 0.40680  0.44560  0.91390  Biso   1.000  C
  H7       1.0000 0.63190  0.00190  0.07370  Biso   1.000  H
  H8       1.0000 0.36810  0.50190  0.92630  Biso   1.000  H
  C15      1.0000 0.08110  0.42350  0.22270  Biso   1.000  C
  C16      1.0000 0.91890  0.92350  0.77730  Biso   1.000  C
  H9       1.0000 0.04820  0.36590  0.20180  Biso   1.000  H
  H10      1.0000 0.95180  0.86590  0.79820  Biso   1.000  H
  C17      1.0000 0.57690  0.72330  0.80180  Biso   1.000  C
  C18      1.0000 0.42310  0.22330  0.19820  Biso   1.000  C
  H11      1.0000 0.58880  0.65680  0.82380  Biso   1.000  H
  H12      1.0000 0.41120  0.15680  0.17620  Biso   1.000  H
  H13      1.0000 0.61790  0.72720  0.76050  Biso   1.000  H
  H14      1.0000 0.38210  0.22720  0.23950  Biso   1.000  H
  C19      1.0000 0.14380  0.51660  0.32853  Biso   1.000  C
  C20      1.0000 0.85620  0.01660  0.67147  Biso   1.000  C
  C21      1.0000 0.57540  0.79360  0.91808  Biso   1.000  C
  C22      1.0000 0.42460  0.29360  0.08192  Biso   1.000  C
  C23      1.0000 0.51120  0.78700  0.05500  Biso   1.000  C
  C24      1.0000 0.48880  0.28700  0.94500  Biso   1.000  C
  C25      1.0000 0.85460  0.88970  0.00282  Biso   1.000  C
  C26      1.0000 0.14540  0.38970  0.99718  Biso   1.000  C
  C27      1.0000 0.96380  0.98040  0.09332  Biso   1.000  C
  C28      1.0000 0.03620  0.48040  0.90668  Biso   1.000  C
  H15      1.0000 0.02300  0.98280  0.12720  Biso   1.000  H
  H16      1.0000 0.97700  0.48280  0.87280  Biso   1.000  H
  C29      1.0000 0.92820  0.54730  0.41390  Biso   1.000  C
  C30      1.0000 0.07180  0.04730  0.58610  Biso   1.000  C
  H17      1.0000 0.96040  0.49240  0.39340  Biso   1.000  H
  H18      1.0000 0.03960  0.99240  0.60660  Biso   1.000  H
  C31      1.0000 0.90310  0.06330  0.08341  Biso   1.000  C
  C32      1.0000 0.09690  0.56330  0.91659  Biso   1.000  C
  H19      1.0000 0.91960  0.12210  0.11010  Biso   1.000  H
  H20      1.0000 0.08040  0.62210  0.88990  Biso   1.000  H
  C33      1.0000 0.82540  0.54860  0.41280  Biso   1.000  C
  C34      1.0000 0.17460  0.04860  0.58720  Biso   1.000  C
  H21      1.0000 0.78590  0.49420  0.39280  Biso   1.000  H
  H22      1.0000 0.21410  0.99420  0.60720  Biso   1.000  H
  C35      1.0000 0.83970  0.80270  0.96004  Biso   1.000  C
  C36      1.0000 0.16030  0.30270  0.03996  Biso   1.000  C
  H23      1.0000 0.78520  0.80150  0.92250  Biso   1.000  H
  H24      1.0000 0.21480  0.30150  0.07750  Biso   1.000  H
  C37      1.0000 0.15650  0.70280  0.48530  Biso   1.000  C
  C38      1.0000 0.84350  0.20280  0.51470  Biso   1.000  C
  C39      1.0000 0.14410  0.46370  0.72960  Biso   1.000  C
  C40      1.0000 0.85590  0.96370  0.27040  Biso   1.000  C
  H25      1.0000 0.13300  0.43880  0.77530  Biso   1.000  H
  H26      1.0000 0.86700  0.93880  0.22470  Biso   1.000  H
  C41      1.0000 0.90160  0.72110  0.97140  Biso   1.000  C
  C42      1.0000 0.09840  0.22110  0.02860  Biso   1.000  C
  H27      1.0000 0.88980  0.66380  0.94230  Biso   1.000  H
  H28      1.0000 0.11020  0.16380  0.05770  Biso   1.000  H
  C43      1.0000 0.09910  0.43210  0.29751  Biso   1.000  C
  C44      1.0000 0.90090  0.93210  0.70249  Biso   1.000  C
  C45      1.0000 0.00070  0.78720  0.50560  Biso   1.000  C
  C46      1.0000 0.99930  0.28720  0.49440  Biso   1.000  C
  H29      1.0000 0.96730  0.84350  0.52340  Biso   1.000  H
  H30      1.0000 0.03270  0.34350  0.47660  Biso   1.000  H
  C47      1.0000 0.11130  0.49850  0.18068  Biso   1.000  C
  C48      1.0000 0.88870  0.99850  0.81932  Biso   1.000  C
  H31      1.0000 0.09960  0.49160  0.13050  Biso   1.000  H
  H32      1.0000 0.90040  0.99160  0.86950  Biso   1.000  H
  C49      1.0000 0.48340  0.71100  0.00500  Biso   1.000  C
  C50      1.0000 0.51660  0.21100  0.99500  Biso   1.000  C
  H33      1.0000 0.44270  0.65650  0.01820  Biso   1.000  H
  H34      1.0000 0.55730  0.15650  0.98180  Biso   1.000  H
  C51      1.0000 0.19180  0.66310  0.16578  Biso   1.000  C
  C52      1.0000 0.80820  0.16310  0.83422  Biso   1.000  C
  H35      1.0000 0.18310  0.65560  0.11550  Biso   1.000  H
  H36      1.0000 0.81690  0.15560  0.88450  Biso   1.000  H
  C53      1.0000 0.94160  0.89140  0.05508  Biso   1.000  C
  C54      1.0000 0.05840  0.39140  0.94492  Biso   1.000  C
  C55      1.0000 0.15880  0.58500  0.20914  Biso   1.000  C
  C56      1.0000 0.84120  0.08500  0.79086  Biso   1.000  C
  C57      1.0000 0.81510  0.06030  0.03270  Biso   1.000  C
  C58      1.0000 0.18490  0.56030  0.96730  Biso   1.000  C
  C59      1.0000 0.50070  0.85890  0.17150  Biso   1.000  C
  C60      1.0000 0.49930  0.35890  0.82850  Biso   1.000  C
  H37      1.0000 0.47770  0.85560  0.21760  Biso   1.000  H
  H38      1.0000 0.52230  0.35560  0.78240  Biso   1.000  H
  C61      1.0000 0.99100  0.62600  0.44506  Biso   1.000  C
  C62      1.0000 0.00900  0.12600  0.55494  Biso   1.000  C
  C63      1.0000 0.47640  0.78410  0.12360  Biso   1.000  C
  C64      1.0000 0.52360  0.28410  0.87640  Biso   1.000  C
  H39      1.0000 0.43570  0.72950  0.13650  Biso   1.000  H
  H40      1.0000 0.56430  0.22950  0.86350  Biso   1.000  H
  C65      1.0000 0.09200  0.19520  0.75850  Biso   1.000  C
  C66      1.0000 0.90800  0.69520  0.24150  Biso   1.000  C
  H41      1.0000 0.03850  0.14350  0.75670  Biso   1.000  H
  H42      1.0000 0.96150  0.64350  0.24330  Biso   1.000  H
  H43      1.0000 0.08310  0.23510  0.71490  Biso   1.000  H
  H44      1.0000 0.91690  0.73510  0.28510  Biso   1.000  H
  H45      1.0000 0.08600  0.23820  0.79980  Biso   1.000  H
  H46      1.0000 0.91400  0.73820  0.20020  Biso   1.000  H
  C67      1.0000 0.25240  0.75840  0.26880  Biso   1.000  C
  C68      1.0000 0.74760  0.25840  0.73120  Biso   1.000  C
  H47      1.0000 0.28290  0.81760  0.28890  Biso   1.000  H
  H48      1.0000 0.71710  0.31760  0.71110  Biso   1.000  H
  C69      1.0000 0.23520  0.74760  0.19390  Biso   1.000  C
  C70      1.0000 0.76480  0.24760  0.80610  Biso   1.000  C
  H49      1.0000 0.25400  0.79960  0.16360  Biso   1.000  H
  H50      1.0000 0.74600  0.29960  0.83640  Biso   1.000  H
  C71      1.0000 0.55960  0.94050  0.15260  Biso   1.000  C
  C72      1.0000 0.44040  0.44050  0.84740  Biso   1.000  C
  H51      1.0000 0.57640  0.99240  0.18600  Biso   1.000  H
  H52      1.0000 0.42360  0.49240  0.81400  Biso   1.000  H
  C73      1.0000 0.98360  0.72210  0.02690  Biso   1.000  C
  C74      1.0000 0.01640  0.22210  0.97310  Biso   1.000  C
  H53      1.0000 0.02410  0.66400  0.03710  Biso   1.000  H
  H54      1.0000 0.97590  0.16400  0.96290  Biso   1.000  H
  C75      1.0000 0.22530  0.68380  0.31190  Biso   1.000  C
  C76      1.0000 0.77470  0.18380  0.68810  Biso   1.000  C
  H55      1.0000 0.23990  0.69090  0.36200  Biso   1.000  H
  H56      1.0000 0.76010  0.19090  0.63800  Biso   1.000  H
  C77      1.0000 0.30220  0.76260  0.61076  Biso   1.000  C
  C78      1.0000 0.69780  0.26260  0.38924  Biso   1.000  C
  C79      1.0000 0.93980  0.70970  0.47330  Biso   1.000  C
  C80      1.0000 0.06020  0.20970  0.52670  Biso   1.000  C
  C81      1.0000 0.20080  0.05030  0.75840  Biso   1.000  C
  C82      1.0000 0.79920  0.55030  0.24160  Biso   1.000  C
  H57      1.0000 0.13870  0.01230  0.75340  Biso   1.000  H
  H58      1.0000 0.86130  0.51230  0.24660  Biso   1.000  H
  C83      1.0000 0.10450  0.78410  0.51220  Biso   1.000  C
  C84      1.0000 0.89550  0.28410  0.48780  Biso   1.000  C
  H59      1.0000 0.14300  0.83720  0.53510  Biso   1.000  H
  H60      1.0000 0.85700  0.33720  0.46490  Biso   1.000  H
  C85      1.0000 0.83010  0.70870  0.47030  Biso   1.000  C
  C86      1.0000 0.16990  0.20870  0.52970  Biso   1.000  C
  H61      1.0000 0.79560  0.76370  0.48900  Biso   1.000  H
  H62      1.0000 0.20440  0.26370  0.51100  Biso   1.000  H
  C87      1.0000 0.91770  0.26600  0.29339  Biso   1.000  C
  C88      1.0000 0.08230  0.76600  0.70661  Biso   1.000  C
  C89      1.0000 0.46320  0.73380  0.77590  Biso   1.000  C
  C90      1.0000 0.53680  0.23380  0.22410  Biso   1.000  C
  C91      1.0000 0.51410  0.71450  0.93850  Biso   1.000  C
  C92      1.0000 0.48590  0.21450  0.06150  Biso   1.000  C
  H63      1.0000 0.49390  0.66310  0.90540  Biso   1.000  H
  H64      1.0000 0.50610  0.16310  0.09460  Biso   1.000  H
  C93      1.0000 0.28170  0.21270  0.77180  Biso   1.000  C
  C94      1.0000 0.71830  0.71270  0.22820  Biso   1.000  C
  H65      1.0000 0.34370  0.17310  0.76630  Biso   1.000  H
  H66      1.0000 0.65630  0.67310  0.23370  Biso   1.000  H
  H67      1.0000 0.28820  0.24400  0.81900  Biso   1.000  H
  H68      1.0000 0.71180  0.74400  0.18100  Biso   1.000  H
  H69      1.0000 0.27420  0.26450  0.73510  Biso   1.000  H
  H70      1.0000 0.72580  0.76450  0.26490  Biso   1.000  H
  C95      1.0000 0.96310  0.42450  0.69540  Biso   1.000  C
  C96      1.0000 0.03690  0.92450  0.30460  Biso   1.000  C
  H71      1.0000 0.97050  0.38750  0.74030  Biso   1.000  H
  H72      1.0000 0.02950  0.88750  0.25970  Biso   1.000  H
  H73      1.0000 0.93450  0.38050  0.65690  Biso   1.000  H
  H74      1.0000 0.06550  0.88050  0.34310  Biso   1.000  H
  H75      1.0000 0.91650  0.48110  0.69940  Biso   1.000  H
  H76      1.0000 0.08350  0.98110  0.30060  Biso   1.000  H
  C97      1.0000 0.77410  0.63210  0.44170  Biso   1.000  C
  C98      1.0000 0.22590  0.13210  0.55830  Biso   1.000  C
  H77      1.0000 0.70090  0.63290  0.44060  Biso   1.000  H
  H78      1.0000 0.29910  0.13290  0.55940  Biso   1.000  H
  C99      1.0000 0.07160  0.50350  0.60960  Biso   1.000  C
  C100     1.0000 0.92840  0.00350  0.39040  Biso   1.000  C
  H79      1.0000 0.02520  0.56110  0.60290  Biso   1.000  H
  H80      1.0000 0.97480  0.06110  0.39710  Biso   1.000  H
  H81      1.0000 0.05150  0.45340  0.57310  Biso   1.000  H
  H82      1.0000 0.94850  0.95340  0.42690  Biso   1.000  H
  H83      1.0000 0.14290  0.52490  0.60550  Biso   1.000  H
  H84      1.0000 0.85710  0.02490  0.39450  Biso   1.000  H
  O21      1.0000 0.73040  0.15520  0.16103  Biso   1.000  O
  O22      1.0000 0.26960  0.65520  0.83897  Biso   1.000  O
  O23      1.0000 0.75050  0.14039  0.01889  Biso   1.000  O
  O24      1.0000 0.24950  0.64039  0.98111  Biso   1.000  O
  O25      1.0000 0.07390  0.35820  0.34250  Biso   1.000  O
  O26      1.0000 0.92610  0.85820  0.65750  Biso   1.000  O
  O27      1.0000 0.76670  0.31841  0.16096  Biso   1.000  O
  O28      1.0000 0.23330  0.81841  0.83904  Biso   1.000  O
  C101     1.0000 0.77410  0.23210  0.05427  Biso   1.000  C
  C102     1.0000 0.22590  0.73210  0.94573  Biso   1.000  C
  H85      1.0000 0.73260  0.28540  0.02890  Biso   1.000  H
  H86      1.0000 0.26740  0.78540  0.97110  Biso   1.000  H
  H87      1.0000 0.84800  0.24760  0.05090  Biso   1.000  H
  H88      1.0000 0.15200  0.74760  0.94910  Biso   1.000  H
  C103     1.0000 0.75450  0.23450  0.13181  Biso   1.000  C
  C104     1.0000 0.24550  0.73450  0.86819  Biso   1.000  C
  C105     1.0000 0.03430  0.26760  0.31470  Biso   1.000  C
  C106     1.0000 0.96570  0.76760  0.68530  Biso   1.000  C
  H89      1.0000 0.05120  0.21480  0.35060  Biso   1.000  H
  H90      1.0000 0.94880  0.71480  0.64940  Biso   1.000  H
  H91      1.0000 0.06990  0.25070  0.27240  Biso   1.000  H
  H92      1.0000 0.93010  0.75070  0.72760  Biso   1.000  H
  N5       1.0000 0.27180  0.99670  0.98242  Biso   1.000  N
  N6       1.0000 0.72820  0.49670  0.01758  Biso   1.000  N
  O29      1.0000 0.22680  0.98130  0.09455  Biso   1.000  O
  O30      1.0000 0.77320  0.48130  0.90545  Biso   1.000  O
  H93      1.0000 0.25590  0.98410  0.13630  Biso   1.000  H
  H94      1.0000 0.74410  0.48410  0.86370  Biso   1.000  H
  C107     1.0000 0.16700  0.99990  0.94860  Biso   1.000  C
  C108     1.0000 0.83300  0.49990  0.05140  Biso   1.000  C
  H95      1.0000 0.11870  0.98570  0.98390  Biso   1.000  H
  H96      1.0000 0.88130  0.48570  0.01610  Biso   1.000  H
  H97      1.0000 0.15860  0.94990  0.91060  Biso   1.000  H
  H98      1.0000 0.84140  0.44990  0.08940  Biso   1.000  H
  H99      1.0000 0.15270  0.06630  0.92830  Biso   1.000  H
  H100     1.0000 0.84730  0.56630  0.07170  Biso   1.000  H
  C109     1.0000 0.29270  0.98910  0.05160  Biso   1.000  C
  C110     1.0000 0.70730  0.48910  0.94840  Biso   1.000  C
  H101     1.0000 0.36340  0.98980  0.07030  Biso   1.000  H
  H102     1.0000 0.63660  0.48980  0.92970  Biso   1.000  H
  C111     1.0000 0.35550  0.00770  0.93700  Biso   1.000  C
  C112     1.0000 0.64450  0.50770  0.06300  Biso   1.000  C
  H103     1.0000 0.34980  0.07270  0.91320  Biso   1.000  H
  H104     1.0000 0.65020  0.57270  0.08680  Biso   1.000  H
  H105     1.0000 0.35070  0.95470  0.90120  Biso   1.000  H
  H106     1.0000 0.64930  0.45470  0.09880  Biso   1.000  H
  H107     1.0000 0.42220  0.00320  0.96610  Biso   1.000  H
  H108     1.0000 0.57780  0.50320  0.03390  Biso   1.000  H
  O31      1.0000 0.83300  0.61600  0.79580  Biso   1.000  O
  O32      1.0000 0.16700  0.11600  0.20420  Biso   1.000  O
  C113     1.0000 0.78950  0.97460  0.99465  Biso   1.000  C
  C114     1.0000 0.21050  0.47460  0.00535  Biso   1.000  C
  O33      1.0000 0.73580  0.64470  0.65950  Biso   1.000  O
  O34      1.0000 0.26420  0.14470  0.34050  Biso   1.000  O
  O35      1.0000 0.45860  0.41560  0.60000  Biso   1.000  O
  O36      1.0000 0.54140  0.91560  0.40000  Biso   1.000  O
  H109     1.0000 0.49120  0.46970  0.60280  Biso   1.000  H
  H110     1.0000 0.50880  0.96970  0.39720  Biso   1.000  H
  C115     1.0000 0.35410  0.43430  0.58050  Biso   1.000  C
  C116     1.0000 0.64590  0.93430  0.41950  Biso   1.000  C
  H111     1.0000 0.31340  0.41080  0.61810  Biso   1.000  H
  H112     1.0000 0.68660  0.91080  0.38190  Biso   1.000  H
  H113     1.0000 0.33200  0.39920  0.53610  Biso   1.000  H
  H114     1.0000 0.66800  0.89920  0.46390  Biso   1.000  H
  H115     1.0000 0.34340  0.50600  0.57360  Biso   1.000  H
  H116     1.0000 0.65660  0.00600  0.42640  Biso   1.000  H
