data_image0
_cell_length_a       5.1723
_cell_length_b       7.9587
_cell_length_c       8.2298
_cell_angle_alpha    118.221
_cell_angle_beta     91.52
_cell_angle_gamma    100.148

_symmetry_space_group_name_H-M    "P 1"
_symmetry_int_tables_number       1

loop_
  _symmetry_equiv_pos_as_xyz
  'x, y, z'

loop_
  _atom_site_label
  _atom_site_occupancy
  _atom_site_fract_x
  _atom_site_fract_y
  _atom_site_fract_z
  _atom_site_thermal_displace_type
  _atom_site_B_iso_or_equiv
  _atom_site_type_symbol
  Cu1      1.0000 0.50000  0.50000  0.50000  Biso   1.000  Cu
  O1       1.0000 0.46390  0.35820  0.61910  Biso   1.000  O
  O2       1.0000 0.53610  0.64180  0.38090  Biso   1.000  O
  C1       1.0000 0.47450  0.42480  0.79750  Biso   1.000  C
  C2       1.0000 0.52550  0.57520  0.20250  Biso   1.000  C
  C3       1.0000 0.67020  0.58250  0.92170  Biso   1.000  C
  C4       1.0000 0.32980  0.41750  0.07830  Biso   1.000  C
  N1       1.0000 0.84620  0.66930  0.86050  Biso   1.000  N
  N2       1.0000 0.15380  0.33070  0.13950  Biso   1.000  N
  N3       1.0000 0.80500  0.66310  0.70010  Biso   1.000  N
  N4       1.0000 0.19500  0.33690  0.29990  Biso   1.000  N
  C5       1.0000 0.02680  0.76870  0.68270  Biso   1.000  C
  C6       1.0000 0.97320  0.23130  0.31730  Biso   1.000  C
  C7       1.0000 0.20790  0.84010  0.84010  Biso   1.000  C
  C8       1.0000 0.79210  0.15990  0.15990  Biso   1.000  C
  C9       1.0000 0.08680  0.77350  0.95130  Biso   1.000  C
  C10      1.0000 0.91320  0.22650  0.04870  Biso   1.000  C
  H1       1.0000 0.15900  0.79660  0.06930  Biso   1.000  H
  H2       1.0000 0.84100  0.20340  0.93070  Biso   1.000  H
  H3       1.0000 0.38030  0.91890  0.86550  Biso   1.000  H
  H4       1.0000 0.61970  0.08110  0.13450  Biso   1.000  H
  H5       1.0000 0.05420  0.79030  0.57990  Biso   1.000  H
  H6       1.0000 0.94580  0.20970  0.42010  Biso   1.000  H
  C11      1.0000 0.31270  0.34640  0.88730  Biso   1.000  C
  C12      1.0000 0.68730  0.65360  0.11270  Biso   1.000  C
  H7       1.0000 0.17440  0.23980  0.80610  Biso   1.000  H
  H8       1.0000 0.82560  0.76020  0.19390  Biso   1.000  H
