data_image0
_cell_length_a       13.3364
_cell_length_b       8.2735
_cell_length_c       14.9996
_cell_angle_alpha    90
_cell_angle_beta     97.258
_cell_angle_gamma    90

_symmetry_space_group_name_H-M    "P 1"
_symmetry_int_tables_number       1

loop_
  _symmetry_equiv_pos_as_xyz
  'x, y, z'

loop_
  _atom_site_label
  _atom_site_occupancy
  _atom_site_fract_x
  _atom_site_fract_y
  _atom_site_fract_z
  _atom_site_thermal_displace_type
  _atom_site_B_iso_or_equiv
  _atom_site_type_symbol
  Cu1      1.0000 0.50000  0.58631  0.75000  Biso   1.000  Cu
  Cu2      1.0000 0.00000  0.08631  0.75000  Biso   1.000  Cu
  Cu3      1.0000 0.50000  0.41369  0.25000  Biso   1.000  Cu
  Cu4      1.0000 0.00000  0.91369  0.25000  Biso   1.000  Cu
  Cu5      1.0000 0.50000  0.92771  0.75000  Biso   1.000  Cu
  Cu6      1.0000 0.00000  0.42771  0.75000  Biso   1.000  Cu
  Cu7      1.0000 0.50000  0.07229  0.25000  Biso   1.000  Cu
  Cu8      1.0000 0.00000  0.57229  0.25000  Biso   1.000  Cu
  O1       1.0000 0.48035  0.75695  0.83271  Biso   1.000  O
  O2       1.0000 0.51965  0.75695  0.66729  Biso   1.000  O
  O3       1.0000 0.98035  0.25695  0.83271  Biso   1.000  O
  O4       1.0000 0.01965  0.25695  0.66729  Biso   1.000  O
  O5       1.0000 0.51965  0.24305  0.16729  Biso   1.000  O
  O6       1.0000 0.48035  0.24305  0.33271  Biso   1.000  O
  O7       1.0000 0.01965  0.74305  0.16729  Biso   1.000  O
  O8       1.0000 0.98035  0.74305  0.33271  Biso   1.000  O
  H1       1.0000 0.41520  0.76030  0.85270  Biso   1.000  H
  H2       1.0000 0.58480  0.76030  0.64730  Biso   1.000  H
  H3       1.0000 0.91520  0.26030  0.85270  Biso   1.000  H
  H4       1.0000 0.08480  0.26030  0.64730  Biso   1.000  H
  H5       1.0000 0.58480  0.23970  0.14730  Biso   1.000  H
  H6       1.0000 0.41520  0.23970  0.35270  Biso   1.000  H
  H7       1.0000 0.08480  0.73970  0.14730  Biso   1.000  H
  H8       1.0000 0.91520  0.73970  0.35270  Biso   1.000  H
  N1       1.0000 0.46490  0.40004  0.82928  Biso   1.000  N
  N2       1.0000 0.53510  0.40004  0.67072  Biso   1.000  N
  N3       1.0000 0.96490  0.90004  0.82928  Biso   1.000  N
  N4       1.0000 0.03510  0.90004  0.67072  Biso   1.000  N
  N5       1.0000 0.53510  0.59996  0.17072  Biso   1.000  N
  N6       1.0000 0.46490  0.59996  0.32928  Biso   1.000  N
  N7       1.0000 0.03510  0.09996  0.17072  Biso   1.000  N
  N8       1.0000 0.96490  0.09996  0.32928  Biso   1.000  N
  N9       1.0000 0.46598  0.11389  0.82982  Biso   1.000  N
  N10      1.0000 0.53402  0.11389  0.67018  Biso   1.000  N
  N11      1.0000 0.96598  0.61389  0.82982  Biso   1.000  N
  N12      1.0000 0.03402  0.61389  0.67018  Biso   1.000  N
  N13      1.0000 0.53402  0.88611  0.17018  Biso   1.000  N
  N14      1.0000 0.46598  0.88611  0.32982  Biso   1.000  N
  N15      1.0000 0.03402  0.38611  0.17018  Biso   1.000  N
  N16      1.0000 0.96598  0.38611  0.32982  Biso   1.000  N
  C1       1.0000 0.42954  0.40052  0.90946  Biso   1.000  C
  C2       1.0000 0.57046  0.40052  0.59054  Biso   1.000  C
  C3       1.0000 0.92954  0.90052  0.90946  Biso   1.000  C
  C4       1.0000 0.07046  0.90052  0.59054  Biso   1.000  C
  C5       1.0000 0.57046  0.59948  0.09054  Biso   1.000  C
  C6       1.0000 0.42954  0.59948  0.40946  Biso   1.000  C
  C7       1.0000 0.07046  0.09948  0.09054  Biso   1.000  C
  C8       1.0000 0.92954  0.09948  0.40946  Biso   1.000  C
  H9       1.0000 0.41720  0.49840  0.93660  Biso   1.000  H
  H10      1.0000 0.58280  0.49840  0.56340  Biso   1.000  H
  H11      1.0000 0.91720  0.99840  0.93660  Biso   1.000  H
  H12      1.0000 0.08280  0.99840  0.56340  Biso   1.000  H
  H13      1.0000 0.58280  0.50160  0.06340  Biso   1.000  H
  H14      1.0000 0.41720  0.50160  0.43660  Biso   1.000  H
  H15      1.0000 0.08280  0.00160  0.06340  Biso   1.000  H
  H16      1.0000 0.91720  0.00160  0.43660  Biso   1.000  H
  C9       1.0000 0.41137  0.25694  0.95191  Biso   1.000  C
  C10      1.0000 0.58863  0.25694  0.54809  Biso   1.000  C
  C11      1.0000 0.91137  0.75694  0.95191  Biso   1.000  C
  C12      1.0000 0.08863  0.75694  0.54809  Biso   1.000  C
  C13      1.0000 0.58863  0.74306  0.04809  Biso   1.000  C
  C14      1.0000 0.41137  0.74306  0.45191  Biso   1.000  C
  C15      1.0000 0.08863  0.24306  0.04809  Biso   1.000  C
  C16      1.0000 0.91137  0.24306  0.45191  Biso   1.000  C
  H17      1.0000 0.38680  0.25690  0.00720  Biso   1.000  H
  H18      1.0000 0.61320  0.25690  0.49280  Biso   1.000  H
  H19      1.0000 0.88680  0.75690  0.00720  Biso   1.000  H
  H20      1.0000 0.11320  0.75690  0.49280  Biso   1.000  H
  H21      1.0000 0.61320  0.74310  0.99280  Biso   1.000  H
  H22      1.0000 0.38680  0.74310  0.50720  Biso   1.000  H
  H23      1.0000 0.11320  0.24310  0.99280  Biso   1.000  H
  H24      1.0000 0.88680  0.24310  0.50720  Biso   1.000  H
  C17      1.0000 0.43079  0.11316  0.90983  Biso   1.000  C
  C18      1.0000 0.56921  0.11316  0.59017  Biso   1.000  C
  C19      1.0000 0.93079  0.61316  0.90983  Biso   1.000  C
  C20      1.0000 0.06921  0.61316  0.59017  Biso   1.000  C
  C21      1.0000 0.56921  0.88684  0.09017  Biso   1.000  C
  C22      1.0000 0.43079  0.88684  0.40983  Biso   1.000  C
  C23      1.0000 0.06921  0.38684  0.09017  Biso   1.000  C
  C24      1.0000 0.93079  0.38684  0.40983  Biso   1.000  C
  H25      1.0000 0.41930  0.01530  0.93730  Biso   1.000  H
  H26      1.0000 0.58070  0.01530  0.56270  Biso   1.000  H
  H27      1.0000 0.91930  0.51530  0.93730  Biso   1.000  H
  H28      1.0000 0.08070  0.51530  0.56270  Biso   1.000  H
  H29      1.0000 0.58070  0.98470  0.06270  Biso   1.000  H
  H30      1.0000 0.41930  0.98470  0.43730  Biso   1.000  H
  H31      1.0000 0.08070  0.48470  0.06270  Biso   1.000  H
  H32      1.0000 0.91930  0.48470  0.43730  Biso   1.000  H
  C25      1.0000 0.48122  0.25707  0.79399  Biso   1.000  C
  C26      1.0000 0.51878  0.25707  0.70601  Biso   1.000  C
  C27      1.0000 0.98122  0.75707  0.79399  Biso   1.000  C
  C28      1.0000 0.01878  0.75707  0.70601  Biso   1.000  C
  C29      1.0000 0.51878  0.74293  0.20601  Biso   1.000  C
  C30      1.0000 0.48122  0.74293  0.29399  Biso   1.000  C
  C31      1.0000 0.01878  0.24293  0.20601  Biso   1.000  C
  C32      1.0000 0.98122  0.24293  0.29399  Biso   1.000  C
  O9       1.0000 0.31066  0.58086  0.68670  Biso   1.000  O
  O10      1.0000 0.68934  0.58086  0.81330  Biso   1.000  O
  O11      1.0000 0.81066  0.08086  0.68670  Biso   1.000  O
  O12      1.0000 0.18934  0.08086  0.81330  Biso   1.000  O
  O13      1.0000 0.68934  0.41914  0.31330  Biso   1.000  O
  O14      1.0000 0.31066  0.41914  0.18670  Biso   1.000  O
  O15      1.0000 0.18934  0.91914  0.31330  Biso   1.000  O
  O16      1.0000 0.81066  0.91914  0.18670  Biso   1.000  O
  H33      1.0000 0.30680  0.51600  0.63590  Biso   1.000  H
  H34      1.0000 0.69320  0.51600  0.86410  Biso   1.000  H
  H35      1.0000 0.80680  0.01600  0.63590  Biso   1.000  H
  H36      1.0000 0.19320  0.01600  0.86410  Biso   1.000  H
  H37      1.0000 0.69320  0.48400  0.36410  Biso   1.000  H
  H38      1.0000 0.30680  0.48400  0.13590  Biso   1.000  H
  H39      1.0000 0.19320  0.98400  0.36410  Biso   1.000  H
  H40      1.0000 0.80680  0.98400  0.13590  Biso   1.000  H
  H41      1.0000 0.26740  0.53600  0.72440  Biso   1.000  H
  H42      1.0000 0.73260  0.53600  0.77560  Biso   1.000  H
  H43      1.0000 0.76740  0.03600  0.72440  Biso   1.000  H
  H44      1.0000 0.23260  0.03600  0.77560  Biso   1.000  H
  H45      1.0000 0.73260  0.46400  0.27560  Biso   1.000  H
  H46      1.0000 0.26740  0.46400  0.22440  Biso   1.000  H
  H47      1.0000 0.23260  0.96400  0.27560  Biso   1.000  H
  H48      1.0000 0.76740  0.96400  0.22440  Biso   1.000  H
  O17      1.0000 0.31088  0.92865  0.69369  Biso   1.000  O
  O18      1.0000 0.68912  0.92865  0.80631  Biso   1.000  O
  O19      1.0000 0.81088  0.42865  0.69369  Biso   1.000  O
  O20      1.0000 0.18912  0.42865  0.80631  Biso   1.000  O
  O21      1.0000 0.68912  0.07135  0.30631  Biso   1.000  O
  O22      1.0000 0.31088  0.07135  0.19369  Biso   1.000  O
  O23      1.0000 0.18912  0.57135  0.30631  Biso   1.000  O
  O24      1.0000 0.81088  0.57135  0.19369  Biso   1.000  O
  H49      1.0000 0.30480  0.81500  0.68460  Biso   1.000  H
  H50      1.0000 0.69520  0.81500  0.81540  Biso   1.000  H
  H51      1.0000 0.80480  0.31500  0.68460  Biso   1.000  H
  H52      1.0000 0.19520  0.31500  0.81540  Biso   1.000  H
  H53      1.0000 0.69520  0.18500  0.31540  Biso   1.000  H
  H54      1.0000 0.30480  0.18500  0.18460  Biso   1.000  H
  H55      1.0000 0.19520  0.68500  0.31540  Biso   1.000  H
  H56      1.0000 0.80480  0.68500  0.18460  Biso   1.000  H
  H57      1.0000 0.30510  0.98300  0.63850  Biso   1.000  H
  H58      1.0000 0.69490  0.98300  0.86150  Biso   1.000  H
  H59      1.0000 0.80510  0.48300  0.63850  Biso   1.000  H
  H60      1.0000 0.19490  0.48300  0.86150  Biso   1.000  H
  H61      1.0000 0.69490  0.01700  0.36150  Biso   1.000  H
  H62      1.0000 0.30510  0.01700  0.13850  Biso   1.000  H
  H63      1.0000 0.19490  0.51700  0.36150  Biso   1.000  H
  H64      1.0000 0.80510  0.51700  0.13850  Biso   1.000  H
  Si1      1.0000 0.25000  0.75000  0.00000  Biso   1.000  Si
  Si2      1.0000 0.75000  0.75000  0.50000  Biso   1.000  Si
  Si3      1.0000 0.75000  0.25000  0.00000  Biso   1.000  Si
  Si4      1.0000 0.25000  0.25000  0.50000  Biso   1.000  Si
  F1       1.0000 0.29830  0.75299  0.90178  Biso   1.000  F
  F2       1.0000 0.70170  0.75299  0.59822  Biso   1.000  F
  F3       1.0000 0.79830  0.25299  0.90178  Biso   1.000  F
  F4       1.0000 0.20170  0.25299  0.59822  Biso   1.000  F
  F5       1.0000 0.70170  0.24701  0.09822  Biso   1.000  F
  F6       1.0000 0.29830  0.24701  0.40178  Biso   1.000  F
  F7       1.0000 0.20170  0.74701  0.09822  Biso   1.000  F
  F8       1.0000 0.79830  0.74701  0.40178  Biso   1.000  F
  F9       1.0000 0.16078  0.87850  0.95602  Biso   1.000  F
  F10      1.0000 0.83922  0.87850  0.54398  Biso   1.000  F
  F11      1.0000 0.66078  0.37850  0.95602  Biso   1.000  F
  F12      1.0000 0.33922  0.37850  0.54398  Biso   1.000  F
  F13      1.0000 0.83922  0.12150  0.04398  Biso   1.000  F
  F14      1.0000 0.16078  0.12150  0.45602  Biso   1.000  F
  F15      1.0000 0.33922  0.62150  0.04398  Biso   1.000  F
  F16      1.0000 0.66078  0.62150  0.45602  Biso   1.000  F
  F17      1.0000 0.17600  0.59600  0.96148  Biso   1.000  F
  F18      1.0000 0.82400  0.59600  0.53852  Biso   1.000  F
  F19      1.0000 0.67600  0.09600  0.96148  Biso   1.000  F
  F20      1.0000 0.32400  0.09600  0.53852  Biso   1.000  F
  F21      1.0000 0.82400  0.40400  0.03852  Biso   1.000  F
  F22      1.0000 0.17600  0.40400  0.46148  Biso   1.000  F
  F23      1.0000 0.32400  0.90400  0.03852  Biso   1.000  F
  F24      1.0000 0.67600  0.90400  0.46148  Biso   1.000  F
  F25      1.0000 0.13380  0.76000  0.96300  Biso   1.000  F
  F26      1.0000 0.86620  0.76000  0.53700  Biso   1.000  F
  F27      1.0000 0.63380  0.26000  0.96300  Biso   1.000  F
  F28      1.0000 0.36620  0.26000  0.53700  Biso   1.000  F
  F29      1.0000 0.86620  0.24000  0.03700  Biso   1.000  F
  F30      1.0000 0.13380  0.24000  0.46300  Biso   1.000  F
  F31      1.0000 0.36620  0.74000  0.03700  Biso   1.000  F
  F32      1.0000 0.63380  0.74000  0.46300  Biso   1.000  F
  F33      1.0000 0.24620  0.54870  0.99580  Biso   1.000  F
  F34      1.0000 0.75380  0.54870  0.50420  Biso   1.000  F
  F35      1.0000 0.74620  0.04870  0.99580  Biso   1.000  F
  F36      1.0000 0.25380  0.04870  0.50420  Biso   1.000  F
  F37      1.0000 0.75380  0.45130  0.00420  Biso   1.000  F
  F38      1.0000 0.24620  0.45130  0.49580  Biso   1.000  F
  F39      1.0000 0.25380  0.95130  0.00420  Biso   1.000  F
  F40      1.0000 0.74620  0.95130  0.49580  Biso   1.000  F
