data_image0
_cell_length_a       8.0661
_cell_length_b       7.6108
_cell_length_c       10.0272
_cell_angle_alpha    90
_cell_angle_beta     111.535
_cell_angle_gamma    90

_symmetry_space_group_name_H-M    "P 1"
_symmetry_int_tables_number       1

loop_
  _symmetry_equiv_pos_as_xyz
  'x, y, z'

loop_
  _atom_site_label
  _atom_site_occupancy
  _atom_site_fract_x
  _atom_site_fract_y
  _atom_site_fract_z
  _atom_site_thermal_displace_type
  _atom_site_B_iso_or_equiv
  _atom_site_type_symbol
  Cu1      1.0000 0.80595  0.90256  0.91885  Biso   1.000  Cu
  Cu2      1.0000 0.69405  0.40256  0.58115  Biso   1.000  Cu
  Cu3      1.0000 0.19405  0.09744  0.08115  Biso   1.000  Cu
  Cu4      1.0000 0.30595  0.59744  0.41885  Biso   1.000  Cu
  N1       1.0000 0.72798  0.93040  0.09273  Biso   1.000  N
  N2       1.0000 0.77202  0.43040  0.40727  Biso   1.000  N
  N3       1.0000 0.27202  0.06960  0.90727  Biso   1.000  N
  N4       1.0000 0.22798  0.56960  0.59273  Biso   1.000  N
  N5       1.0000 0.49336  0.98640  0.17648  Biso   1.000  N
  N6       1.0000 0.00664  0.48640  0.32352  Biso   1.000  N
  N7       1.0000 0.50664  0.01360  0.82352  Biso   1.000  N
  N8       1.0000 0.99336  0.51360  0.67648  Biso   1.000  N
  C1       1.0000 0.83570  0.89020  0.22710  Biso   1.000  C
  C2       1.0000 0.66430  0.39020  0.27290  Biso   1.000  C
  C3       1.0000 0.16430  0.10980  0.77290  Biso   1.000  C
  C4       1.0000 0.33570  0.60980  0.72710  Biso   1.000  C
  H1       1.0000 0.95280  0.85700  0.24450  Biso   1.000  H
  H2       1.0000 0.54720  0.35700  0.25550  Biso   1.000  H
  H3       1.0000 0.04720  0.14300  0.75550  Biso   1.000  H
  H4       1.0000 0.45280  0.64300  0.74450  Biso   1.000  H
  C5       1.0000 0.77680  0.89680  0.33990  Biso   1.000  C
  C6       1.0000 0.72320  0.39680  0.16010  Biso   1.000  C
  C7       1.0000 0.22320  0.10320  0.66010  Biso   1.000  C
  C8       1.0000 0.27680  0.60320  0.83990  Biso   1.000  C
  H5       1.0000 0.85230  0.87030  0.43290  Biso   1.000  H
  H6       1.0000 0.64770  0.37030  0.06710  Biso   1.000  H
  H7       1.0000 0.14770  0.12970  0.56710  Biso   1.000  H
  H8       1.0000 0.35230  0.62970  0.93290  Biso   1.000  H
  C9       1.0000 0.60150  0.94430  0.30940  Biso   1.000  C
  C10      1.0000 0.89850  0.44430  0.19060  Biso   1.000  C
  C11      1.0000 0.39850  0.05570  0.69060  Biso   1.000  C
  C12      1.0000 0.10150  0.55570  0.80940  Biso   1.000  C
  H9       1.0000 0.55760  0.94710  0.38320  Biso   1.000  H
  H10      1.0000 0.94240  0.44710  0.11680  Biso   1.000  H
  H11      1.0000 0.44240  0.05290  0.61680  Biso   1.000  H
  H12      1.0000 0.05760  0.55290  0.88320  Biso   1.000  H
  C13      1.0000 0.56080  0.97690  0.07415  Biso   1.000  C
  C14      1.0000 0.93920  0.47690  0.42585  Biso   1.000  C
  C15      1.0000 0.43920  0.02310  0.92585  Biso   1.000  C
  C16      1.0000 0.06080  0.52310  0.57415  Biso   1.000  C
  F1       1.0000 0.10455  0.86195  0.06546  Biso   1.000  F
  F2       1.0000 0.39545  0.36195  0.43454  Biso   1.000  F
  F3       1.0000 0.89545  0.13805  0.93454  Biso   1.000  F
  F4       1.0000 0.60455  0.63805  0.56546  Biso   1.000  F
  F5       1.0000 0.74832  0.66261  0.91681  Biso   1.000  F
  F6       1.0000 0.75168  0.16261  0.58319  Biso   1.000  F
  F7       1.0000 0.25168  0.33739  0.08319  Biso   1.000  F
  F8       1.0000 0.24832  0.83739  0.41681  Biso   1.000  F
  O1       1.0000 0.81949  0.87727  0.72610  Biso   1.000  O
  O2       1.0000 0.68051  0.37727  0.77390  Biso   1.000  O
  O3       1.0000 0.18051  0.12273  0.27390  Biso   1.000  O
  O4       1.0000 0.31949  0.62273  0.22610  Biso   1.000  O
  H13      1.0000 0.78700  0.98500  0.67700  Biso   1.000  H
  H14      1.0000 0.71300  0.48500  0.82300  Biso   1.000  H
  H15      1.0000 0.21300  0.01500  0.32300  Biso   1.000  H
  H16      1.0000 0.28700  0.51500  0.17700  Biso   1.000  H
  H17      1.0000 0.74000  0.79200  0.66900  Biso   1.000  H
  H18      1.0000 0.76000  0.29200  0.83100  Biso   1.000  H
  H19      1.0000 0.26000  0.20800  0.33100  Biso   1.000  H
  H20      1.0000 0.24000  0.70800  0.16900  Biso   1.000  H
