data_image0
_cell_length_a       11.2224
_cell_length_b       8.2587
_cell_length_c       13.2628
_cell_angle_alpha    90
_cell_angle_beta     99.245
_cell_angle_gamma    90

_symmetry_space_group_name_H-M    "P 1"
_symmetry_int_tables_number       1

loop_
  _symmetry_equiv_pos_as_xyz
  'x, y, z'

loop_
  _atom_site_label
  _atom_site_occupancy
  _atom_site_fract_x
  _atom_site_fract_y
  _atom_site_fract_z
  _atom_site_thermal_displace_type
  _atom_site_B_iso_or_equiv
  _atom_site_type_symbol
  Cu1      1.0000 0.50264  0.82858  0.99927  Biso   1.000  Cu
  Cu2      1.0000 0.49736  0.32858  0.50073  Biso   1.000  Cu
  Cu3      1.0000 0.49736  0.17142  0.00073  Biso   1.000  Cu
  Cu4      1.0000 0.50264  0.67142  0.49927  Biso   1.000  Cu
  O1       1.0000 0.43177  0.82420  0.17723  Biso   1.000  O
  O2       1.0000 0.56823  0.32420  0.32277  Biso   1.000  O
  O3       1.0000 0.56823  0.17580  0.82277  Biso   1.000  O
  O4       1.0000 0.43177  0.67580  0.67723  Biso   1.000  O
  H1       1.0000 0.49320  0.78300  0.22800  Biso   1.000  H
  H2       1.0000 0.50680  0.28300  0.27200  Biso   1.000  H
  H3       1.0000 0.50680  0.21700  0.77200  Biso   1.000  H
  H4       1.0000 0.49320  0.71700  0.72800  Biso   1.000  H
  H5       1.0000 0.37400  0.73800  0.17000  Biso   1.000  H
  H6       1.0000 0.62600  0.23800  0.33000  Biso   1.000  H
  H7       1.0000 0.62600  0.26200  0.83000  Biso   1.000  H
  H8       1.0000 0.37400  0.76200  0.67000  Biso   1.000  H
  O5       1.0000 0.61263  0.00184  0.04730  Biso   1.000  O
  O6       1.0000 0.38737  0.50184  0.45270  Biso   1.000  O
  O7       1.0000 0.38737  0.99816  0.95270  Biso   1.000  O
  O8       1.0000 0.61263  0.49816  0.54730  Biso   1.000  O
  H9       1.0000 0.63200  0.00200  0.11890  Biso   1.000  H
  H10      1.0000 0.36800  0.50200  0.38110  Biso   1.000  H
  H11      1.0000 0.36800  0.99800  0.88110  Biso   1.000  H
  H12      1.0000 0.63200  0.49800  0.61890  Biso   1.000  H
  C1       1.0000 0.71431  0.64070  0.12431  Biso   1.000  C
  C2       1.0000 0.28569  0.14070  0.37569  Biso   1.000  C
  C3       1.0000 0.28569  0.35930  0.87569  Biso   1.000  C
  C4       1.0000 0.71431  0.85930  0.62431  Biso   1.000  C
  H13      1.0000 0.75080  0.73810  0.14690  Biso   1.000  H
  H14      1.0000 0.24920  0.23810  0.35310  Biso   1.000  H
  H15      1.0000 0.24920  0.26190  0.85310  Biso   1.000  H
  H16      1.0000 0.75080  0.76190  0.64690  Biso   1.000  H
  C5       1.0000 0.77057  0.49550  0.15562  Biso   1.000  C
  C6       1.0000 0.22943  0.99550  0.34438  Biso   1.000  C
  C7       1.0000 0.22943  0.50450  0.84438  Biso   1.000  C
  C8       1.0000 0.77057  0.00450  0.65562  Biso   1.000  C
  H17      1.0000 0.84470  0.49400  0.19860  Biso   1.000  H
  H18      1.0000 0.15530  0.99400  0.30140  Biso   1.000  H
  H19      1.0000 0.15530  0.50600  0.80140  Biso   1.000  H
  H20      1.0000 0.84470  0.00600  0.69860  Biso   1.000  H
  C9       1.0000 0.71351  0.35330  0.12123  Biso   1.000  C
  C10      1.0000 0.28649  0.85330  0.37877  Biso   1.000  C
  C11      1.0000 0.28649  0.64670  0.87877  Biso   1.000  C
  C12      1.0000 0.71351  0.14670  0.62123  Biso   1.000  C
  H21      1.0000 0.74980  0.25470  0.14110  Biso   1.000  H
  H22      1.0000 0.25020  0.75470  0.35890  Biso   1.000  H
  H23      1.0000 0.25020  0.74530  0.85890  Biso   1.000  H
  H24      1.0000 0.74980  0.24530  0.64110  Biso   1.000  H
  C13      1.0000 0.55928  0.49933  0.03342  Biso   1.000  C
  C14      1.0000 0.44072  0.99933  0.46658  Biso   1.000  C
  C15      1.0000 0.44072  0.50067  0.96658  Biso   1.000  C
  C16      1.0000 0.55928  0.00067  0.53342  Biso   1.000  C
  N1       1.0000 0.60773  0.64169  0.06172  Biso   1.000  N
  N2       1.0000 0.39227  0.14169  0.43828  Biso   1.000  N
  N3       1.0000 0.39227  0.35831  0.93828  Biso   1.000  N
  N4       1.0000 0.60773  0.85831  0.56172  Biso   1.000  N
  N5       1.0000 0.60616  0.35539  0.05942  Biso   1.000  N
  N6       1.0000 0.39384  0.85539  0.44058  Biso   1.000  N
  N7       1.0000 0.39384  0.64461  0.94058  Biso   1.000  N
  N8       1.0000 0.60616  0.14461  0.55942  Biso   1.000  N
  Mn1      1.0000 0.00000  0.00000  0.00000  Biso   1.000  Mn
  Mn2      1.0000 0.00000  0.50000  0.50000  Biso   1.000  Mn
  O9       1.0000 0.99730  0.11780  0.14839  Biso   1.000  O
  O10      1.0000 0.00270  0.61780  0.35161  Biso   1.000  O
  O11      1.0000 0.00270  0.88220  0.85161  Biso   1.000  O
  O12      1.0000 0.99730  0.38220  0.64839  Biso   1.000  O
  H25      1.0000 0.95900  0.08400  0.20360  Biso   1.000  H
  H26      1.0000 0.04100  0.58400  0.29640  Biso   1.000  H
  H27      1.0000 0.04100  0.91600  0.79640  Biso   1.000  H
  H28      1.0000 0.95900  0.41600  0.70360  Biso   1.000  H
  H29      1.0000 0.04200  0.21200  0.17100  Biso   1.000  H
  H30      1.0000 0.95800  0.71200  0.32900  Biso   1.000  H
  H31      1.0000 0.95800  0.78800  0.82900  Biso   1.000  H
  H32      1.0000 0.04200  0.28800  0.67100  Biso   1.000  H
  O13      1.0000 0.18928  0.94110  0.04676  Biso   1.000  O
  O14      1.0000 0.81072  0.44110  0.45324  Biso   1.000  O
  O15      1.0000 0.81072  0.05890  0.95324  Biso   1.000  O
  O16      1.0000 0.18928  0.55890  0.54676  Biso   1.000  O
  H33      1.0000 0.25100  0.96600  0.00900  Biso   1.000  H
  H34      1.0000 0.74900  0.46600  0.49100  Biso   1.000  H
  H35      1.0000 0.74900  0.03400  0.99100  Biso   1.000  H
  H36      1.0000 0.25100  0.53400  0.50900  Biso   1.000  H
  H37      1.0000 0.20000  0.83180  0.06500  Biso   1.000  H
  H38      1.0000 0.80000  0.33180  0.43500  Biso   1.000  H
  H39      1.0000 0.80000  0.16820  0.93500  Biso   1.000  H
  H40      1.0000 0.20000  0.66820  0.56500  Biso   1.000  H
  O17      1.0000 0.94637  0.76720  0.05206  Biso   1.000  O
  O18      1.0000 0.05363  0.26720  0.44794  Biso   1.000  O
  O19      1.0000 0.05363  0.23280  0.94794  Biso   1.000  O
  O20      1.0000 0.94637  0.73280  0.55206  Biso   1.000  O
  H41      1.0000 0.89800  0.69400  0.00800  Biso   1.000  H
  H42      1.0000 0.10200  0.19400  0.49200  Biso   1.000  H
  H43      1.0000 0.10200  0.30600  0.99200  Biso   1.000  H
  H44      1.0000 0.89800  0.80600  0.50800  Biso   1.000  H
  H45      1.0000 0.01070  0.69900  0.08000  Biso   1.000  H
  H46      1.0000 0.98930  0.19900  0.42000  Biso   1.000  H
  H47      1.0000 0.98930  0.30100  0.92000  Biso   1.000  H
  H48      1.0000 0.01070  0.80100  0.58000  Biso   1.000  H
  S1       1.0000 0.79774  0.99549  0.33245  Biso   1.000  S
  S2       1.0000 0.20226  0.49549  0.16755  Biso   1.000  S
  S3       1.0000 0.20226  0.00451  0.66755  Biso   1.000  S
  S4       1.0000 0.79774  0.50451  0.83245  Biso   1.000  S
  O21      1.0000 0.92560  0.04330  0.31820  Biso   1.000  O
  O22      1.0000 0.07440  0.54330  0.18180  Biso   1.000  O
  O23      1.0000 0.07440  0.95670  0.68180  Biso   1.000  O
  O24      1.0000 0.92560  0.45670  0.81820  Biso   1.000  O
  O25      1.0000 0.71840  0.99490  0.23680  Biso   1.000  O
  O26      1.0000 0.28160  0.49490  0.26320  Biso   1.000  O
  O27      1.0000 0.28160  0.00510  0.76320  Biso   1.000  O
  O28      1.0000 0.71840  0.50510  0.73680  Biso   1.000  O
  O29      1.0000 0.80970  0.82430  0.37780  Biso   1.000  O
  O30      1.0000 0.19030  0.32430  0.12220  Biso   1.000  O
  O31      1.0000 0.19030  0.17570  0.62220  Biso   1.000  O
  O32      1.0000 0.80970  0.67570  0.87780  Biso   1.000  O
  O33      1.0000 0.75930  0.10440  0.40920  Biso   1.000  O
  O34      1.0000 0.24070  0.60440  0.09080  Biso   1.000  O
  O35      1.0000 0.24070  0.89560  0.59080  Biso   1.000  O
  O36      1.0000 0.75930  0.39560  0.90920  Biso   1.000  O
  O37      1.0000 0.58662  0.82920  0.84020  Biso   1.000  O
  O38      1.0000 0.41338  0.32920  0.65980  Biso   1.000  O
  O39      1.0000 0.41338  0.17080  0.15980  Biso   1.000  O
  O40      1.0000 0.58662  0.67080  0.34020  Biso   1.000  O
  H49      1.0000 0.60200  0.94210  0.83400  Biso   1.000  H
  H50      1.0000 0.39800  0.44210  0.66600  Biso   1.000  H
  H51      1.0000 0.39800  0.05790  0.16600  Biso   1.000  H
  H52      1.0000 0.60200  0.55790  0.33400  Biso   1.000  H
  H53      1.0000 0.66120  0.77700  0.85800  Biso   1.000  H
  H54      1.0000 0.33880  0.27700  0.64200  Biso   1.000  H
  H55      1.0000 0.33880  0.22300  0.14200  Biso   1.000  H
  H56      1.0000 0.66120  0.72300  0.35800  Biso   1.000  H
  O41      1.0000 0.89340  0.93300  0.27810  Biso   1.000  O
  O42      1.0000 0.10660  0.43300  0.22190  Biso   1.000  O
  O43      1.0000 0.10660  0.06700  0.72190  Biso   1.000  O
  O44      1.0000 0.89340  0.56700  0.77810  Biso   1.000  O
  O45      1.0000 0.68280  0.01680  0.25640  Biso   1.000  O
  O46      1.0000 0.31720  0.51680  0.24360  Biso   1.000  O
  O47      1.0000 0.31720  0.98320  0.74360  Biso   1.000  O
  O48      1.0000 0.68280  0.48320  0.75640  Biso   1.000  O
  O49      1.0000 0.77460  0.88310  0.41310  Biso   1.000  O
  O50      1.0000 0.22540  0.38310  0.08690  Biso   1.000  O
  O51      1.0000 0.22540  0.11690  0.58690  Biso   1.000  O
  O52      1.0000 0.77460  0.61690  0.91310  Biso   1.000  O
  O53      1.0000 0.83340  0.15810  0.37720  Biso   1.000  O
  O54      1.0000 0.16660  0.65810  0.12280  Biso   1.000  O
  O55      1.0000 0.16660  0.84190  0.62280  Biso   1.000  O
  O56      1.0000 0.83340  0.34190  0.87720  Biso   1.000  O
