data_image0
_cell_length_a       20.6311
_cell_length_b       14.4631
_cell_length_c       15.3892
_cell_angle_alpha    90
_cell_angle_beta     90
_cell_angle_gamma    90

_symmetry_space_group_name_H-M    "P 1"
_symmetry_int_tables_number       1

loop_
  _symmetry_equiv_pos_as_xyz
  'x, y, z'

loop_
  _atom_site_label
  _atom_site_occupancy
  _atom_site_fract_x
  _atom_site_fract_y
  _atom_site_fract_z
  _atom_site_thermal_displace_type
  _atom_site_B_iso_or_equiv
  _atom_site_type_symbol
  Cu1      1.0000 0.50000  0.14339  0.72223  Biso   1.000  Cu
  Cu2      1.0000 0.00000  0.64339  0.22223  Biso   1.000  Cu
  Cu3      1.0000 0.50000  0.64339  0.27777  Biso   1.000  Cu
  Cu4      1.0000 0.50000  0.35661  0.72223  Biso   1.000  Cu
  Cu5      1.0000 0.00000  0.14339  0.77777  Biso   1.000  Cu
  Cu6      1.0000 0.00000  0.85661  0.22223  Biso   1.000  Cu
  Cu7      1.0000 0.50000  0.85661  0.27777  Biso   1.000  Cu
  Cu8      1.0000 0.00000  0.35661  0.77777  Biso   1.000  Cu
  N1       1.0000 0.43710  0.13280  0.62270  Biso   1.000  N
  N2       1.0000 0.93710  0.63280  0.12270  Biso   1.000  N
  N3       1.0000 0.43710  0.63280  0.37730  Biso   1.000  N
  N4       1.0000 0.43710  0.36720  0.62270  Biso   1.000  N
  N5       1.0000 0.56290  0.13280  0.62270  Biso   1.000  N
  N6       1.0000 0.93710  0.13280  0.87730  Biso   1.000  N
  N7       1.0000 0.93710  0.86720  0.12270  Biso   1.000  N
  N8       1.0000 0.06290  0.63280  0.12270  Biso   1.000  N
  N9       1.0000 0.56290  0.86720  0.37730  Biso   1.000  N
  N10      1.0000 0.06290  0.36720  0.87730  Biso   1.000  N
  N11      1.0000 0.56290  0.36720  0.62270  Biso   1.000  N
  N12      1.0000 0.56290  0.63280  0.37730  Biso   1.000  N
  N13      1.0000 0.43710  0.86720  0.37730  Biso   1.000  N
  N14      1.0000 0.06290  0.86720  0.12270  Biso   1.000  N
  N15      1.0000 0.06290  0.13280  0.87730  Biso   1.000  N
  N16      1.0000 0.93710  0.36720  0.87730  Biso   1.000  N
  N17      1.0000 0.50000  0.99450  0.76150  Biso   1.000  N
  N18      1.0000 0.00000  0.49450  0.26150  Biso   1.000  N
  N19      1.0000 0.50000  0.49450  0.23850  Biso   1.000  N
  N20      1.0000 0.50000  0.50550  0.76150  Biso   1.000  N
  N21      1.0000 0.00000  0.99450  0.73850  Biso   1.000  N
  N22      1.0000 0.00000  0.00550  0.26150  Biso   1.000  N
  N23      1.0000 0.50000  0.00550  0.23850  Biso   1.000  N
  N24      1.0000 0.00000  0.50550  0.73850  Biso   1.000  N
  O1       1.0000 0.56676  0.17300  0.80580  Biso   1.000  O
  O2       1.0000 0.06676  0.67300  0.30580  Biso   1.000  O
  O3       1.0000 0.56676  0.67300  0.19420  Biso   1.000  O
  O4       1.0000 0.56676  0.32700  0.80580  Biso   1.000  O
  O5       1.0000 0.43324  0.17300  0.80580  Biso   1.000  O
  O6       1.0000 0.06676  0.17300  0.69420  Biso   1.000  O
  O7       1.0000 0.06676  0.82700  0.30580  Biso   1.000  O
  O8       1.0000 0.93324  0.67300  0.30580  Biso   1.000  O
  O9       1.0000 0.43324  0.82700  0.19420  Biso   1.000  O
  O10      1.0000 0.93324  0.32700  0.69420  Biso   1.000  O
  O11      1.0000 0.43324  0.32700  0.80580  Biso   1.000  O
  O12      1.0000 0.43324  0.67300  0.19420  Biso   1.000  O
  O13      1.0000 0.56676  0.82700  0.19420  Biso   1.000  O
  O14      1.0000 0.93324  0.82700  0.30580  Biso   1.000  O
  O15      1.0000 0.93324  0.17300  0.69420  Biso   1.000  O
  O16      1.0000 0.06676  0.32700  0.69420  Biso   1.000  O
  C1       1.0000 0.46400  0.12640  0.54390  Biso   1.000  C
  C2       1.0000 0.96400  0.62640  0.04390  Biso   1.000  C
  C3       1.0000 0.46400  0.62640  0.45610  Biso   1.000  C
  C4       1.0000 0.46400  0.37360  0.54390  Biso   1.000  C
  C5       1.0000 0.53600  0.12640  0.54390  Biso   1.000  C
  C6       1.0000 0.96400  0.12640  0.95610  Biso   1.000  C
  C7       1.0000 0.96400  0.87360  0.04390  Biso   1.000  C
  C8       1.0000 0.03600  0.62640  0.04390  Biso   1.000  C
  C9       1.0000 0.53600  0.87360  0.45610  Biso   1.000  C
  C10      1.0000 0.03600  0.37360  0.95610  Biso   1.000  C
  C11      1.0000 0.53600  0.37360  0.54390  Biso   1.000  C
  C12      1.0000 0.53600  0.62640  0.45610  Biso   1.000  C
  C13      1.0000 0.46400  0.87360  0.45610  Biso   1.000  C
  C14      1.0000 0.03600  0.87360  0.04390  Biso   1.000  C
  C15      1.0000 0.03600  0.12640  0.95610  Biso   1.000  C
  C16      1.0000 0.96400  0.37360  0.95610  Biso   1.000  C
  C17      1.0000 0.42660  0.11960  0.46940  Biso   1.000  C
  C18      1.0000 0.92660  0.61960  0.96940  Biso   1.000  C
  C19      1.0000 0.42660  0.61960  0.53060  Biso   1.000  C
  C20      1.0000 0.42660  0.38040  0.46940  Biso   1.000  C
  C21      1.0000 0.57340  0.11960  0.46940  Biso   1.000  C
  C22      1.0000 0.92660  0.11960  0.03060  Biso   1.000  C
  C23      1.0000 0.92660  0.88040  0.96940  Biso   1.000  C
  C24      1.0000 0.07340  0.61960  0.96940  Biso   1.000  C
  C25      1.0000 0.57340  0.88040  0.53060  Biso   1.000  C
  C26      1.0000 0.07340  0.38040  0.03060  Biso   1.000  C
  C27      1.0000 0.57340  0.38040  0.46940  Biso   1.000  C
  C28      1.0000 0.57340  0.61960  0.53060  Biso   1.000  C
  C29      1.0000 0.42660  0.88040  0.53060  Biso   1.000  C
  C30      1.0000 0.07340  0.88040  0.96940  Biso   1.000  C
  C31      1.0000 0.07340  0.11960  0.03060  Biso   1.000  C
  C32      1.0000 0.92660  0.38040  0.03060  Biso   1.000  C
  H1       1.0000 0.44680  0.11320  0.41330  Biso   1.000  H
  H2       1.0000 0.94680  0.61320  0.91330  Biso   1.000  H
  H3       1.0000 0.44680  0.61320  0.58670  Biso   1.000  H
  H4       1.0000 0.44680  0.38680  0.41330  Biso   1.000  H
  H5       1.0000 0.55320  0.11320  0.41330  Biso   1.000  H
  H6       1.0000 0.94680  0.11320  0.08670  Biso   1.000  H
  H7       1.0000 0.94680  0.88680  0.91330  Biso   1.000  H
  H8       1.0000 0.05320  0.61320  0.91330  Biso   1.000  H
  H9       1.0000 0.55320  0.88680  0.58670  Biso   1.000  H
  H10      1.0000 0.05320  0.38680  0.08670  Biso   1.000  H
  H11      1.0000 0.55320  0.38680  0.41330  Biso   1.000  H
  H12      1.0000 0.55320  0.61320  0.58670  Biso   1.000  H
  H13      1.0000 0.44680  0.88680  0.58670  Biso   1.000  H
  H14      1.0000 0.05320  0.88680  0.91330  Biso   1.000  H
  H15      1.0000 0.05320  0.11320  0.08670  Biso   1.000  H
  H16      1.0000 0.94680  0.38680  0.08670  Biso   1.000  H
  C33      1.0000 0.36040  0.12020  0.47620  Biso   1.000  C
  C34      1.0000 0.86040  0.62020  0.97620  Biso   1.000  C
  C35      1.0000 0.36040  0.62020  0.52380  Biso   1.000  C
  C36      1.0000 0.36040  0.37980  0.47620  Biso   1.000  C
  C37      1.0000 0.63960  0.12020  0.47620  Biso   1.000  C
  C38      1.0000 0.86040  0.12020  0.02380  Biso   1.000  C
  C39      1.0000 0.86040  0.87980  0.97620  Biso   1.000  C
  C40      1.0000 0.13960  0.62020  0.97620  Biso   1.000  C
  C41      1.0000 0.63960  0.87980  0.52380  Biso   1.000  C
  C42      1.0000 0.13960  0.37980  0.02380  Biso   1.000  C
  C43      1.0000 0.63960  0.37980  0.47620  Biso   1.000  C
  C44      1.0000 0.63960  0.62020  0.52380  Biso   1.000  C
  C45      1.0000 0.36040  0.87980  0.52380  Biso   1.000  C
  C46      1.0000 0.13960  0.87980  0.97620  Biso   1.000  C
  C47      1.0000 0.13960  0.12020  0.02380  Biso   1.000  C
  C48      1.0000 0.86040  0.37980  0.02380  Biso   1.000  C
  H17      1.0000 0.33490  0.11960  0.42390  Biso   1.000  H
  H18      1.0000 0.83490  0.61960  0.92390  Biso   1.000  H
  H19      1.0000 0.33490  0.61960  0.57610  Biso   1.000  H
  H20      1.0000 0.33490  0.38040  0.42390  Biso   1.000  H
  H21      1.0000 0.66510  0.11960  0.42390  Biso   1.000  H
  H22      1.0000 0.83490  0.11960  0.07610  Biso   1.000  H
  H23      1.0000 0.83490  0.88040  0.92390  Biso   1.000  H
  H24      1.0000 0.16510  0.61960  0.92390  Biso   1.000  H
  H25      1.0000 0.66510  0.88040  0.57610  Biso   1.000  H
  H26      1.0000 0.16510  0.38040  0.07610  Biso   1.000  H
  H27      1.0000 0.66510  0.38040  0.42390  Biso   1.000  H
  H28      1.0000 0.66510  0.61960  0.57610  Biso   1.000  H
  H29      1.0000 0.33490  0.88040  0.57610  Biso   1.000  H
  H30      1.0000 0.16510  0.88040  0.92390  Biso   1.000  H
  H31      1.0000 0.16510  0.11960  0.07610  Biso   1.000  H
  H32      1.0000 0.83490  0.38040  0.07610  Biso   1.000  H
  C49      1.0000 0.33390  0.12450  0.55580  Biso   1.000  C
  C50      1.0000 0.83390  0.62450  0.05580  Biso   1.000  C
  C51      1.0000 0.33390  0.62450  0.44420  Biso   1.000  C
  C52      1.0000 0.33390  0.37550  0.55580  Biso   1.000  C
  C53      1.0000 0.66610  0.12450  0.55580  Biso   1.000  C
  C54      1.0000 0.83390  0.12450  0.94420  Biso   1.000  C
  C55      1.0000 0.83390  0.87550  0.05580  Biso   1.000  C
  C56      1.0000 0.16610  0.62450  0.05580  Biso   1.000  C
  C57      1.0000 0.66610  0.87550  0.44420  Biso   1.000  C
  C58      1.0000 0.16610  0.37550  0.94420  Biso   1.000  C
  C59      1.0000 0.66610  0.37550  0.55580  Biso   1.000  C
  C60      1.0000 0.66610  0.62450  0.44420  Biso   1.000  C
  C61      1.0000 0.33390  0.87550  0.44420  Biso   1.000  C
  C62      1.0000 0.16610  0.87550  0.05580  Biso   1.000  C
  C63      1.0000 0.16610  0.12450  0.94420  Biso   1.000  C
  C64      1.0000 0.83390  0.37550  0.94420  Biso   1.000  C
  H33      1.0000 0.28740  0.12220  0.56070  Biso   1.000  H
  H34      1.0000 0.78740  0.62220  0.06070  Biso   1.000  H
  H35      1.0000 0.28740  0.62220  0.43930  Biso   1.000  H
  H36      1.0000 0.28740  0.37780  0.56070  Biso   1.000  H
  H37      1.0000 0.71260  0.12220  0.56070  Biso   1.000  H
  H38      1.0000 0.78740  0.12220  0.93930  Biso   1.000  H
  H39      1.0000 0.78740  0.87780  0.06070  Biso   1.000  H
  H40      1.0000 0.21260  0.62220  0.06070  Biso   1.000  H
  H41      1.0000 0.71260  0.87780  0.43930  Biso   1.000  H
  H42      1.0000 0.21260  0.37780  0.93930  Biso   1.000  H
  H43      1.0000 0.71260  0.37780  0.56070  Biso   1.000  H
  H44      1.0000 0.71260  0.62220  0.43930  Biso   1.000  H
  H45      1.0000 0.28740  0.87780  0.43930  Biso   1.000  H
  H46      1.0000 0.21260  0.87780  0.06070  Biso   1.000  H
  H47      1.0000 0.21260  0.12220  0.93930  Biso   1.000  H
  H48      1.0000 0.78740  0.37780  0.93930  Biso   1.000  H
  C65      1.0000 0.37240  0.13190  0.62960  Biso   1.000  C
  C66      1.0000 0.87240  0.63190  0.12960  Biso   1.000  C
  C67      1.0000 0.37240  0.63190  0.37040  Biso   1.000  C
  C68      1.0000 0.37240  0.36810  0.62960  Biso   1.000  C
  C69      1.0000 0.62760  0.13190  0.62960  Biso   1.000  C
  C70      1.0000 0.87240  0.13190  0.87040  Biso   1.000  C
  C71      1.0000 0.87240  0.86810  0.12960  Biso   1.000  C
  C72      1.0000 0.12760  0.63190  0.12960  Biso   1.000  C
  C73      1.0000 0.62760  0.86810  0.37040  Biso   1.000  C
  C74      1.0000 0.12760  0.36810  0.87040  Biso   1.000  C
  C75      1.0000 0.62760  0.36810  0.62960  Biso   1.000  C
  C76      1.0000 0.62760  0.63190  0.37040  Biso   1.000  C
  C77      1.0000 0.37240  0.86810  0.37040  Biso   1.000  C
  C78      1.0000 0.12760  0.86810  0.12960  Biso   1.000  C
  C79      1.0000 0.12760  0.13190  0.87040  Biso   1.000  C
  C80      1.0000 0.87240  0.36810  0.87040  Biso   1.000  C
  H49      1.0000 0.35320  0.13420  0.68660  Biso   1.000  H
  H50      1.0000 0.85320  0.63420  0.18660  Biso   1.000  H
  H51      1.0000 0.35320  0.63420  0.31340  Biso   1.000  H
  H52      1.0000 0.35320  0.36580  0.68660  Biso   1.000  H
  H53      1.0000 0.64680  0.13420  0.68660  Biso   1.000  H
  H54      1.0000 0.85320  0.13420  0.81340  Biso   1.000  H
  H55      1.0000 0.85320  0.86580  0.18660  Biso   1.000  H
  H56      1.0000 0.14680  0.63420  0.18660  Biso   1.000  H
  H57      1.0000 0.64680  0.86580  0.31340  Biso   1.000  H
  H58      1.0000 0.14680  0.36580  0.81340  Biso   1.000  H
  H59      1.0000 0.64680  0.36580  0.68660  Biso   1.000  H
  H60      1.0000 0.64680  0.63420  0.31340  Biso   1.000  H
  H61      1.0000 0.35320  0.86580  0.31340  Biso   1.000  H
  H62      1.0000 0.14680  0.86580  0.18660  Biso   1.000  H
  H63      1.0000 0.14680  0.13420  0.81340  Biso   1.000  H
  H64      1.0000 0.85320  0.36580  0.81340  Biso   1.000  H
  C81      1.0000 0.44490  0.94720  0.76800  Biso   1.000  C
  C82      1.0000 0.94490  0.44720  0.26800  Biso   1.000  C
  C83      1.0000 0.44490  0.44720  0.23200  Biso   1.000  C
  C84      1.0000 0.44490  0.55280  0.76800  Biso   1.000  C
  C85      1.0000 0.55510  0.94720  0.76800  Biso   1.000  C
  C86      1.0000 0.94490  0.94720  0.73200  Biso   1.000  C
  C87      1.0000 0.94490  0.05280  0.26800  Biso   1.000  C
  C88      1.0000 0.05510  0.44720  0.26800  Biso   1.000  C
  C89      1.0000 0.55510  0.05280  0.23200  Biso   1.000  C
  C90      1.0000 0.05510  0.55280  0.73200  Biso   1.000  C
  C91      1.0000 0.55510  0.55280  0.76800  Biso   1.000  C
  C92      1.0000 0.55510  0.44720  0.23200  Biso   1.000  C
  C93      1.0000 0.44490  0.05280  0.23200  Biso   1.000  C
  C94      1.0000 0.05510  0.05280  0.26800  Biso   1.000  C
  C95      1.0000 0.05510  0.94720  0.73200  Biso   1.000  C
  C96      1.0000 0.94490  0.55280  0.73200  Biso   1.000  C
  H65      1.0000 0.40440  0.98010  0.76390  Biso   1.000  H
  H66      1.0000 0.90440  0.48010  0.26390  Biso   1.000  H
  H67      1.0000 0.40440  0.48010  0.23610  Biso   1.000  H
  H68      1.0000 0.40440  0.51990  0.76390  Biso   1.000  H
  H69      1.0000 0.59560  0.98010  0.76390  Biso   1.000  H
  H70      1.0000 0.90440  0.98010  0.73610  Biso   1.000  H
  H71      1.0000 0.90440  0.01990  0.26390  Biso   1.000  H
  H72      1.0000 0.09560  0.48010  0.26390  Biso   1.000  H
  H73      1.0000 0.59560  0.01990  0.23610  Biso   1.000  H
  H74      1.0000 0.09560  0.51990  0.73610  Biso   1.000  H
  H75      1.0000 0.59560  0.51990  0.76390  Biso   1.000  H
  H76      1.0000 0.59560  0.48010  0.23610  Biso   1.000  H
  H77      1.0000 0.40440  0.01990  0.23610  Biso   1.000  H
  H78      1.0000 0.09560  0.01990  0.26390  Biso   1.000  H
  H79      1.0000 0.09560  0.98010  0.73610  Biso   1.000  H
  H80      1.0000 0.90440  0.51990  0.73610  Biso   1.000  H
  C97      1.0000 0.44250  0.85210  0.77770  Biso   1.000  C
  C98      1.0000 0.94250  0.35210  0.27770  Biso   1.000  C
  C99      1.0000 0.44250  0.35210  0.22230  Biso   1.000  C
  C100     1.0000 0.44250  0.64790  0.77770  Biso   1.000  C
  C101     1.0000 0.55750  0.85210  0.77770  Biso   1.000  C
  C102     1.0000 0.94250  0.85210  0.72230  Biso   1.000  C
  C103     1.0000 0.94250  0.14790  0.27770  Biso   1.000  C
  C104     1.0000 0.05750  0.35210  0.27770  Biso   1.000  C
  C105     1.0000 0.55750  0.14790  0.22230  Biso   1.000  C
  C106     1.0000 0.05750  0.64790  0.72230  Biso   1.000  C
  C107     1.0000 0.55750  0.64790  0.77770  Biso   1.000  C
  C108     1.0000 0.55750  0.35210  0.22230  Biso   1.000  C
  C109     1.0000 0.44250  0.14790  0.22230  Biso   1.000  C
  C110     1.0000 0.05750  0.14790  0.27770  Biso   1.000  C
  C111     1.0000 0.05750  0.85210  0.72230  Biso   1.000  C
  C112     1.0000 0.94250  0.64790  0.72230  Biso   1.000  C
  H81      1.0000 0.40160  0.82100  0.78480  Biso   1.000  H
  H82      1.0000 0.90160  0.32100  0.28480  Biso   1.000  H
  H83      1.0000 0.40160  0.32100  0.21520  Biso   1.000  H
  H84      1.0000 0.40160  0.67900  0.78480  Biso   1.000  H
  H85      1.0000 0.59840  0.82100  0.78480  Biso   1.000  H
  H86      1.0000 0.90160  0.82100  0.71520  Biso   1.000  H
  H87      1.0000 0.90160  0.17900  0.28480  Biso   1.000  H
  H88      1.0000 0.09840  0.32100  0.28480  Biso   1.000  H
  H89      1.0000 0.59840  0.17900  0.21520  Biso   1.000  H
  H90      1.0000 0.09840  0.67900  0.71520  Biso   1.000  H
  H91      1.0000 0.59840  0.67900  0.78480  Biso   1.000  H
  H92      1.0000 0.59840  0.32100  0.21520  Biso   1.000  H
  H93      1.0000 0.40160  0.17900  0.21520  Biso   1.000  H
  H94      1.0000 0.09840  0.17900  0.28480  Biso   1.000  H
  H95      1.0000 0.09840  0.82100  0.71520  Biso   1.000  H
  H96      1.0000 0.90160  0.67900  0.71520  Biso   1.000  H
  C113     1.0000 0.50000  0.80160  0.78060  Biso   1.000  C
  C114     1.0000 0.00000  0.30160  0.28060  Biso   1.000  C
  C115     1.0000 0.50000  0.30160  0.21940  Biso   1.000  C
  C116     1.0000 0.50000  0.69840  0.78060  Biso   1.000  C
  C117     1.0000 0.00000  0.80160  0.71940  Biso   1.000  C
  C118     1.0000 0.00000  0.19840  0.28060  Biso   1.000  C
  C119     1.0000 0.50000  0.19840  0.21940  Biso   1.000  C
  C120     1.0000 0.00000  0.69840  0.71940  Biso   1.000  C
  C121     1.0000 0.58300  0.25000  0.83790  Biso   1.000  C
  C122     1.0000 0.08300  0.75000  0.33790  Biso   1.000  C
  C123     1.0000 0.58300  0.75000  0.16210  Biso   1.000  C
  C124     1.0000 0.41700  0.25000  0.83790  Biso   1.000  C
  C125     1.0000 0.08300  0.25000  0.66210  Biso   1.000  C
  C126     1.0000 0.91700  0.75000  0.33790  Biso   1.000  C
  C127     1.0000 0.41700  0.75000  0.16210  Biso   1.000  C
  C128     1.0000 0.91700  0.25000  0.66210  Biso   1.000  C
  C129     1.0000 0.62150  0.25000  0.91890  Biso   1.000  C
  C130     1.0000 0.12150  0.75000  0.41890  Biso   1.000  C
  C131     1.0000 0.62150  0.75000  0.08110  Biso   1.000  C
  C132     1.0000 0.37850  0.25000  0.91890  Biso   1.000  C
  C133     1.0000 0.12150  0.25000  0.58110  Biso   1.000  C
  C134     1.0000 0.87850  0.75000  0.41890  Biso   1.000  C
  C135     1.0000 0.37850  0.75000  0.08110  Biso   1.000  C
  C136     1.0000 0.87850  0.25000  0.58110  Biso   1.000  C
  C137     1.0000 0.63910  0.16770  0.95830  Biso   1.000  C
  C138     1.0000 0.13910  0.66770  0.45830  Biso   1.000  C
  C139     1.0000 0.63910  0.66770  0.04170  Biso   1.000  C
  C140     1.0000 0.63910  0.33230  0.95830  Biso   1.000  C
  C141     1.0000 0.36090  0.16770  0.95830  Biso   1.000  C
  C142     1.0000 0.13910  0.16770  0.54170  Biso   1.000  C
  C143     1.0000 0.13910  0.83230  0.45830  Biso   1.000  C
  C144     1.0000 0.86090  0.66770  0.45830  Biso   1.000  C
  C145     1.0000 0.36090  0.83230  0.04170  Biso   1.000  C
  C146     1.0000 0.86090  0.33230  0.54170  Biso   1.000  C
  C147     1.0000 0.36090  0.33230  0.95830  Biso   1.000  C
  C148     1.0000 0.36090  0.66770  0.04170  Biso   1.000  C
  C149     1.0000 0.63910  0.83230  0.04170  Biso   1.000  C
  C150     1.0000 0.86090  0.83230  0.45830  Biso   1.000  C
  C151     1.0000 0.86090  0.16770  0.54170  Biso   1.000  C
  C152     1.0000 0.13910  0.33230  0.54170  Biso   1.000  C
  H97      1.0000 0.62720  0.11020  0.93100  Biso   1.000  H
  H98      1.0000 0.12720  0.61020  0.43100  Biso   1.000  H
  H99      1.0000 0.62720  0.61020  0.06900  Biso   1.000  H
  H100     1.0000 0.62720  0.38980  0.93100  Biso   1.000  H
  H101     1.0000 0.37280  0.11020  0.93100  Biso   1.000  H
  H102     1.0000 0.12720  0.11020  0.56900  Biso   1.000  H
  H103     1.0000 0.12720  0.88980  0.43100  Biso   1.000  H
  H104     1.0000 0.87280  0.61020  0.43100  Biso   1.000  H
  H105     1.0000 0.37280  0.88980  0.06900  Biso   1.000  H
  H106     1.0000 0.87280  0.38980  0.56900  Biso   1.000  H
  H107     1.0000 0.37280  0.38980  0.93100  Biso   1.000  H
  H108     1.0000 0.37280  0.61020  0.06900  Biso   1.000  H
  H109     1.0000 0.62720  0.88980  0.06900  Biso   1.000  H
  H110     1.0000 0.87280  0.88980  0.43100  Biso   1.000  H
  H111     1.0000 0.87280  0.11020  0.56900  Biso   1.000  H
  H112     1.0000 0.12720  0.38980  0.56900  Biso   1.000  H
  C153     1.0000 0.67290  0.16650  0.03540  Biso   1.000  C
  C154     1.0000 0.17290  0.66650  0.53540  Biso   1.000  C
  C155     1.0000 0.67290  0.66650  0.96460  Biso   1.000  C
  C156     1.0000 0.67290  0.33350  0.03540  Biso   1.000  C
  C157     1.0000 0.32710  0.16650  0.03540  Biso   1.000  C
  C158     1.0000 0.17290  0.16650  0.46460  Biso   1.000  C
  C159     1.0000 0.17290  0.83350  0.53540  Biso   1.000  C
  C160     1.0000 0.82710  0.66650  0.53540  Biso   1.000  C
  C161     1.0000 0.32710  0.83350  0.96460  Biso   1.000  C
  C162     1.0000 0.82710  0.33350  0.46460  Biso   1.000  C
  C163     1.0000 0.32710  0.33350  0.03540  Biso   1.000  C
  C164     1.0000 0.32710  0.66650  0.96460  Biso   1.000  C
  C165     1.0000 0.67290  0.83350  0.96460  Biso   1.000  C
  C166     1.0000 0.82710  0.83350  0.53540  Biso   1.000  C
  C167     1.0000 0.82710  0.16650  0.46460  Biso   1.000  C
  C168     1.0000 0.17290  0.33350  0.46460  Biso   1.000  C
  H113     1.0000 0.68460  0.10900  0.06270  Biso   1.000  H
  H114     1.0000 0.18460  0.60900  0.56270  Biso   1.000  H
  H115     1.0000 0.68460  0.60900  0.93730  Biso   1.000  H
  H116     1.0000 0.68460  0.39100  0.06270  Biso   1.000  H
  H117     1.0000 0.31540  0.10900  0.06270  Biso   1.000  H
  H118     1.0000 0.18460  0.10900  0.43730  Biso   1.000  H
  H119     1.0000 0.18460  0.89100  0.56270  Biso   1.000  H
  H120     1.0000 0.81540  0.60900  0.56270  Biso   1.000  H
  H121     1.0000 0.31540  0.89100  0.93730  Biso   1.000  H
  H122     1.0000 0.81540  0.39100  0.43730  Biso   1.000  H
  H123     1.0000 0.31540  0.39100  0.06270  Biso   1.000  H
  H124     1.0000 0.31540  0.60900  0.93730  Biso   1.000  H
  H125     1.0000 0.68460  0.89100  0.93730  Biso   1.000  H
  H126     1.0000 0.81540  0.89100  0.56270  Biso   1.000  H
  H127     1.0000 0.81540  0.10900  0.43730  Biso   1.000  H
  H128     1.0000 0.18460  0.39100  0.43730  Biso   1.000  H
  C169     1.0000 0.69030  0.25000  0.07470  Biso   1.000  C
  C170     1.0000 0.19030  0.75000  0.57470  Biso   1.000  C
  C171     1.0000 0.69030  0.75000  0.92530  Biso   1.000  C
  C172     1.0000 0.30970  0.25000  0.07470  Biso   1.000  C
  C173     1.0000 0.19030  0.25000  0.42530  Biso   1.000  C
  C174     1.0000 0.80970  0.75000  0.57470  Biso   1.000  C
  C175     1.0000 0.30970  0.75000  0.92530  Biso   1.000  C
  C176     1.0000 0.80970  0.25000  0.42530  Biso   1.000  C
  N25      1.0000 0.72330  0.25000  0.15490  Biso   1.000  N
  N26      1.0000 0.22330  0.75000  0.65490  Biso   1.000  N
  N27      1.0000 0.72330  0.75000  0.84510  Biso   1.000  N
  N28      1.0000 0.27670  0.25000  0.15490  Biso   1.000  N
  N29      1.0000 0.22330  0.25000  0.34510  Biso   1.000  N
  N30      1.0000 0.77670  0.75000  0.65490  Biso   1.000  N
  N31      1.0000 0.27670  0.75000  0.84510  Biso   1.000  N
  N32      1.0000 0.77670  0.25000  0.34510  Biso   1.000  N
  H129     1.0000 0.73430  0.19600  0.18030  Biso   1.000  H
  H130     1.0000 0.23430  0.69600  0.68030  Biso   1.000  H
  H131     1.0000 0.73430  0.69600  0.81970  Biso   1.000  H
  H132     1.0000 0.73430  0.30400  0.18030  Biso   1.000  H
  H133     1.0000 0.26570  0.19600  0.18030  Biso   1.000  H
  H134     1.0000 0.23430  0.19600  0.31970  Biso   1.000  H
  H135     1.0000 0.23430  0.80400  0.68030  Biso   1.000  H
  H136     1.0000 0.76570  0.69600  0.68030  Biso   1.000  H
  H137     1.0000 0.26570  0.80400  0.81970  Biso   1.000  H
  H138     1.0000 0.76570  0.30400  0.31970  Biso   1.000  H
  H139     1.0000 0.26570  0.30400  0.18030  Biso   1.000  H
  H140     1.0000 0.26570  0.69600  0.81970  Biso   1.000  H
  H141     1.0000 0.73430  0.80400  0.81970  Biso   1.000  H
  H142     1.0000 0.76570  0.80400  0.68030  Biso   1.000  H
  H143     1.0000 0.76570  0.19600  0.31970  Biso   1.000  H
  H144     1.0000 0.23430  0.30400  0.31970  Biso   1.000  H
  Cl1      1.0000 0.25000  0.01000  0.25000  Biso   1.000  Cl
  Cl2      1.0000 0.75000  0.51000  0.75000  Biso   1.000  Cl
  Cl3      1.0000 0.25000  0.51000  0.75000  Biso   1.000  Cl
  Cl4      1.0000 0.25000  0.49000  0.25000  Biso   1.000  Cl
  Cl5      1.0000 0.75000  0.01000  0.25000  Biso   1.000  Cl
  Cl6      1.0000 0.75000  0.99000  0.75000  Biso   1.000  Cl
  Cl7      1.0000 0.75000  0.49000  0.25000  Biso   1.000  Cl
  Cl8      1.0000 0.25000  0.99000  0.75000  Biso   1.000  Cl
  O17      1.0000 0.29110  0.06690  0.29160  Biso   1.000  O
  O18      1.0000 0.79110  0.56690  0.79160  Biso   1.000  O
  O19      1.0000 0.29110  0.56690  0.70840  Biso   1.000  O
  O20      1.0000 0.29110  0.43310  0.29160  Biso   1.000  O
  O21      1.0000 0.70890  0.06690  0.29160  Biso   1.000  O
  O22      1.0000 0.79110  0.06690  0.20840  Biso   1.000  O
  O23      1.0000 0.79110  0.93310  0.79160  Biso   1.000  O
  O24      1.0000 0.20890  0.56690  0.79160  Biso   1.000  O
  O25      1.0000 0.70890  0.93310  0.70840  Biso   1.000  O
  O26      1.0000 0.20890  0.43310  0.20840  Biso   1.000  O
  O27      1.0000 0.70890  0.43310  0.29160  Biso   1.000  O
  O28      1.0000 0.70890  0.56690  0.70840  Biso   1.000  O
  O29      1.0000 0.29110  0.93310  0.70840  Biso   1.000  O
  O30      1.0000 0.20890  0.93310  0.79160  Biso   1.000  O
  O31      1.0000 0.20890  0.06690  0.20840  Biso   1.000  O
  O32      1.0000 0.79110  0.43310  0.20840  Biso   1.000  O
  O33      1.0000 0.28400  0.94780  0.20380  Biso   1.000  O
  O34      1.0000 0.78400  0.44780  0.70380  Biso   1.000  O
  O35      1.0000 0.28400  0.44780  0.79620  Biso   1.000  O
  O36      1.0000 0.28400  0.55220  0.20380  Biso   1.000  O
  O37      1.0000 0.71600  0.94780  0.20380  Biso   1.000  O
  O38      1.0000 0.78400  0.94780  0.29620  Biso   1.000  O
  O39      1.0000 0.78400  0.05220  0.70380  Biso   1.000  O
  O40      1.0000 0.21600  0.44780  0.70380  Biso   1.000  O
  O41      1.0000 0.71600  0.05220  0.79620  Biso   1.000  O
  O42      1.0000 0.21600  0.55220  0.29620  Biso   1.000  O
  O43      1.0000 0.71600  0.55220  0.20380  Biso   1.000  O
  O44      1.0000 0.71600  0.44780  0.79620  Biso   1.000  O
  O45      1.0000 0.28400  0.05220  0.79620  Biso   1.000  O
  O46      1.0000 0.21600  0.05220  0.70380  Biso   1.000  O
  O47      1.0000 0.21600  0.94780  0.29620  Biso   1.000  O
  O48      1.0000 0.78400  0.55220  0.29620  Biso   1.000  O
  O49      1.0000 0.25000  0.25000  0.75000  Biso   1.000  O
  O50      1.0000 0.75000  0.75000  0.25000  Biso   1.000  O
  O51      1.0000 0.25000  0.75000  0.25000  Biso   1.000  O
  O52      1.0000 0.75000  0.25000  0.75000  Biso   1.000  O
  H145     1.0000 0.25000  0.30460  0.75000  Biso   1.000  H
  H146     1.0000 0.75000  0.80460  0.25000  Biso   1.000  H
  H147     1.0000 0.25000  0.80460  0.25000  Biso   1.000  H
  H148     1.0000 0.25000  0.19540  0.75000  Biso   1.000  H
  H149     1.0000 0.75000  0.30460  0.75000  Biso   1.000  H
  H150     1.0000 0.75000  0.69540  0.25000  Biso   1.000  H
  H151     1.0000 0.75000  0.19540  0.75000  Biso   1.000  H
  H152     1.0000 0.25000  0.69540  0.25000  Biso   1.000  H
