data_image0
_cell_length_a       15.1391
_cell_length_b       15.5615
_cell_length_c       17.1216
_cell_angle_alpha    72.1
_cell_angle_beta     77.87
_cell_angle_gamma    66.827

_symmetry_space_group_name_H-M    "P 1"
_symmetry_int_tables_number       1

loop_
  _symmetry_equiv_pos_as_xyz
  'x, y, z'

loop_
  _atom_site_label
  _atom_site_occupancy
  _atom_site_fract_x
  _atom_site_fract_y
  _atom_site_fract_z
  _atom_site_thermal_displace_type
  _atom_site_B_iso_or_equiv
  _atom_site_type_symbol
  La1      1.0000 0.11363  0.14324  0.86147  Biso   1.000  La
  La2      1.0000 0.52648  0.03351  0.22270  Biso   1.000  La
  Cu1      1.0000 0.90531  0.06300  0.84536  Biso   1.000  Cu
  Cu2      1.0000 0.89435  0.37698  0.78264  Biso   1.000  Cu
  Cu3      1.0000 0.17220  0.36816  0.85703  Biso   1.000  Cu
  Cu4      1.0000 0.36049  0.05166  0.95163  Biso   1.000  Cu
  Cu5      1.0000 0.18693  0.86328  0.96244  Biso   1.000  Cu
  Cu6      1.0000 0.34804  0.93264  0.18233  Biso   1.000  Cu
  Cu7      1.0000 0.65489  0.75313  0.25723  Biso   1.000  Cu
  Cu8      1.0000 0.79299  0.96447  0.26556  Biso   1.000  Cu
  Cu9      1.0000 0.58327  0.27059  0.17758  Biso   1.000  Cu
  Cu10     1.0000 0.31297  0.25423  0.11231  Biso   1.000  Cu
  N1       1.0000 0.75100  0.42330  0.77480  Biso   1.000  N
  H1       1.0000 0.71760  0.44180  0.82190  Biso   1.000  H
  H2       1.0000 0.73430  0.47610  0.73070  Biso   1.000  H
  N2       1.0000 0.88050  0.25420  0.80940  Biso   1.000  N
  N3       1.0000 0.12480  0.51200  0.82600  Biso   1.000  N
  H3       1.0000 0.10470  0.53430  0.87310  Biso   1.000  H
  H4       1.0000 0.17450  0.53260  0.79750  Biso   1.000  H
  N4       1.0000 0.05840  0.38840  0.81030  Biso   1.000  N
  N5       1.0000 0.46890  0.09060  0.95680  Biso   1.000  N
  H5       1.0000 0.48780  0.06520  0.00930  Biso   1.000  H
  H6       1.0000 0.52060  0.06480  0.92120  Biso   1.000  H
  N6       1.0000 0.29820  0.18650  0.91170  Biso   1.000  N
  N7       1.0000 0.29260  0.74610  0.01620  Biso   1.000  N
  H7       1.0000 0.27190  0.72530  0.07070  Biso   1.000  H
  H8       1.0000 0.30590  0.69730  0.99090  Biso   1.000  H
  N8       1.0000 0.26940  0.92630  0.96830  Biso   1.000  N
  N9       1.0000 0.86750  0.94550  0.86830  Biso   1.000  N
  H9       1.0000 0.81170  0.95360  0.90370  Biso   1.000  H
  H10      1.0000 0.85450  0.94140  0.81960  Biso   1.000  H
  N10      1.0000 0.01870  0.96700  0.88930  Biso   1.000  N
  N11      1.0000 0.63340  0.63190  0.25930  Biso   1.000  N
  H11      1.0000 0.66740  0.61000  0.21380  Biso   1.000  H
  H12      1.0000 0.65650  0.58470  0.30560  Biso   1.000  H
  N12      1.0000 0.52870  0.81270  0.22070  Biso   1.000  N
  N13      1.0000 0.90490  0.85380  0.31560  Biso   1.000  N
  H13      1.0000 0.96140  0.85960  0.28610  Biso   1.000  H
  H14      1.0000 0.90510  0.85540  0.36880  Biso   1.000  H
  N14      1.0000 0.75060  0.86460  0.26600  Biso   1.000  N
  N15      1.0000 0.67470  0.32450  0.19780  Biso   1.000  N
  H15      1.0000 0.68390  0.37080  0.15170  Biso   1.000  H
  H16      1.0000 0.64830  0.35340  0.24100  Biso   1.000  H
  N16      1.0000 0.67640  0.15190  0.22430  Biso   1.000  N
  N17      1.0000 0.27330  0.39420  0.05250  Biso   1.000  N
  H17      1.0000 0.28360  0.39980  0.99660  Biso   1.000  H
  H18      1.0000 0.20830  0.42410  0.06580  Biso   1.000  H
  N18      1.0000 0.42090  0.27880  0.12750  Biso   1.000  N
  N19      1.0000 0.20810  0.97160  0.17110  Biso   1.000  N
  H19      1.0000 0.20140  0.93630  0.13980  Biso   1.000  H
  H20      1.0000 0.17630  0.95670  0.22260  Biso   1.000  H
  N20      1.0000 0.31700  0.06930  0.15000  Biso   1.000  N
  O1       1.0000 0.78800  0.16840  0.80850  Biso   1.000  O
  O2       1.0000 0.95040  0.16450  0.83760  Biso   1.000  O
  O3       1.0000 0.92050  0.49610  0.75720  Biso   1.000  O
  O4       1.0000 0.02440  0.31740  0.81130  Biso   1.000  O
  O5       1.0000 0.29910  0.33970  0.89010  Biso   1.000  O
  O6       1.0000 0.20610  0.23170  0.88700  Biso   1.000  O
  O7       1.0000 0.41540  0.91310  0.99690  Biso   1.000  O
  O8       1.0000 0.24620  0.02680  0.94700  Biso   1.000  O
  O9       1.0000 0.09970  0.80680  0.94640  Biso   1.000  O
  O10      1.0000 0.09880  0.98180  0.90350  Biso   1.000  O
  O11      1.0000 0.39090  0.79260  0.20800  Biso   1.000  O
  O12      1.0000 0.47930  0.90990  0.19510  Biso   1.000  O
  O13      1.0000 0.77700  0.70360  0.30340  Biso   1.000  O
  O14      1.0000 0.66030  0.87790  0.24640  Biso   1.000  O
  O15      1.0000 0.83290  0.07110  0.25620  Biso   1.000  O
  O16      1.0000 0.67360  0.06000  0.23520  Biso   1.000  O
  O17      1.0000 0.48640  0.38830  0.12420  Biso   1.000  O
  O18      1.0000 0.50260  0.20930  0.16410  Biso   1.000  O
  O19      1.0000 0.20330  0.22090  0.11030  Biso   1.000  O
  O20      1.0000 0.37940  0.11850  0.14380  Biso   1.000  O
  O21      1.0000 0.12820  0.11270  0.71740  Biso   1.000  O
  O22      1.0000 0.25170  0.13420  0.74540  Biso   1.000  O
  O23      1.0000 0.48940  0.09630  0.35480  Biso   1.000  O
  O24      1.0000 0.37710  0.05670  0.32910  Biso   1.000  O
  O25      1.0000 0.02240  0.18060  0.98920  Biso   1.000  O
  O26      1.0000 0.89970  0.31020  0.01220  Biso   1.000  O
  O27      1.0000 0.59940  0.03680  0.07830  Biso   1.000  O
  O28      1.0000 0.72240  0.93190  0.01960  Biso   1.000  O
  C1       1.0000 0.80160  0.24810  0.79530  Biso   1.000  C
  C2       1.0000 0.72320  0.34470  0.76420  Biso   1.000  C
  H21      1.0000 0.66040  0.34580  0.79780  Biso   1.000  H
  C3       1.0000 0.71400  0.35580  0.67290  Biso   1.000  C
  H22      1.0000 0.70480  0.29800  0.66840  Biso   1.000  H
  H23      1.0000 0.65600  0.41250  0.65520  Biso   1.000  H
  C4       1.0000 0.80010  0.36810  0.61660  Biso   1.000  C
  C5       1.0000 0.88490  0.29090  0.60540  Biso   1.000  C
  H24      1.0000 0.88580  0.22670  0.62860  Biso   1.000  H
  C6       1.0000 0.96770  0.30550  0.56120  Biso   1.000  C
  H25      1.0000 0.02340  0.25110  0.55390  Biso   1.000  H
  C7       1.0000 0.97170  0.39470  0.52820  Biso   1.000  C
  H26      1.0000 0.02960  0.40400  0.49990  Biso   1.000  H
  C8       1.0000 0.89020  0.47010  0.53710  Biso   1.000  C
  H27      1.0000 0.89170  0.53340  0.51380  Biso   1.000  H
  C9       1.0000 0.80200  0.46000  0.57940  Biso   1.000  C
  H28      1.0000 0.74550  0.51530  0.58210  Biso   1.000  H
  C10      1.0000 0.00310  0.47630  0.78110  Biso   1.000  C
  C11      1.0000 0.04330  0.55260  0.77420  Biso   1.000  C
  H29      1.0000 0.99140  0.60660  0.79520  Biso   1.000  H
  C12      1.0000 0.07690  0.59350  0.68280  Biso   1.000  C
  H30      1.0000 0.02060  0.62240  0.65040  Biso   1.000  H
  H31      1.0000 0.10000  0.64570  0.68020  Biso   1.000  H
  C13      1.0000 0.15610  0.51930  0.64300  Biso   1.000  C
  C14      1.0000 0.13650  0.45730  0.61330  Biso   1.000  C
  H32      1.0000 0.07190  0.45960  0.61880  Biso   1.000  H
  C15      1.0000 0.21030  0.39050  0.57470  Biso   1.000  C
  H33      1.0000 0.19540  0.34680  0.55580  Biso   1.000  H
  C16      1.0000 0.30240  0.38730  0.56400  Biso   1.000  C
  H34      1.0000 0.35180  0.34470  0.53490  Biso   1.000  H
  C17      1.0000 0.32310  0.44830  0.59680  Biso   1.000  C
  H35      1.0000 0.38830  0.44410  0.59160  Biso   1.000  H
  C18      1.0000 0.25350  0.51430  0.63620  Biso   1.000  C
  H36      1.0000 0.26970  0.55490  0.65810  Biso   1.000  H
  C19      1.0000 0.33920  0.24650  0.90960  Biso   1.000  C
  C20      1.0000 0.44390  0.19670  0.93530  Biso   1.000  C
  H37      1.0000 0.44480  0.21540  0.98590  Biso   1.000  H
  C21      1.0000 0.51810  0.22850  0.86820  Biso   1.000  C
  H38      1.0000 0.49110  0.29960  0.84750  Biso   1.000  H
  H39      1.0000 0.57680  0.21280  0.89430  Biso   1.000  H
  C22      1.0000 0.54730  0.18590  0.79660  Biso   1.000  C
  C23      1.0000 0.62290  0.10010  0.79130  Biso   1.000  C
  H40      1.0000 0.66070  0.06460  0.83630  Biso   1.000  H
  C24      1.0000 0.64440  0.06480  0.72110  Biso   1.000  C
  H41      1.0000 0.69760  0.00680  0.71820  Biso   1.000  H
  C25      1.0000 0.58960  0.11300  0.65710  Biso   1.000  C
  H42      1.0000 0.60120  0.08610  0.61150  Biso   1.000  H
  C26      1.0000 0.51780  0.20000  0.65780  Biso   1.000  C
  H43      1.0000 0.48390  0.23630  0.61060  Biso   1.000  H
  C27      1.0000 0.49370  0.23650  0.72880  Biso   1.000  C
  H44      1.0000 0.44130  0.29520  0.73040  Biso   1.000  H
  C28      1.0000 0.01330  0.80480  0.76830  Biso   1.000  C
  C29      1.0000 0.95330  0.83650  0.70570  Biso   1.000  C
  H45      1.0000 0.88880  0.83740  0.71860  Biso   1.000  H
  C30      1.0000 0.98880  0.86710  0.62360  Biso   1.000  C
  H46      1.0000 0.94750  0.89100  0.58100  Biso   1.000  H
  C31      1.0000 0.08130  0.86260  0.60460  Biso   1.000  C
  H47      1.0000 0.10460  0.87990  0.54810  Biso   1.000  H
  C32      1.0000 0.14340  0.83410  0.66360  Biso   1.000  C
  H48      1.0000 0.20720  0.83510  0.64890  Biso   1.000  H
  C33      1.0000 0.10820  0.80280  0.74810  Biso   1.000  C
  H49      1.0000 0.14970  0.78070  0.79030  Biso   1.000  H
  C34      1.0000 0.35730  0.87310  0.99230  Biso   1.000  C
  C35      1.0000 0.38440  0.76650  0.01080  Biso   1.000  C
  H50      1.0000 0.40930  0.73760  0.06620  Biso   1.000  H
  C36      1.0000 0.46330  0.72400  0.94850  Biso   1.000  C
  H51      1.0000 0.52310  0.73220  0.95420  Biso   1.000  H
  H52      1.0000 0.47630  0.65380  0.96180  Biso   1.000  H
  C37      1.0000 0.44150  0.76730  0.85990  Biso   1.000  C
  C38      1.0000 0.36120  0.78560  0.81860  Biso   1.000  C
  H53      1.0000 0.31080  0.76330  0.84880  Biso   1.000  H
  C39      1.0000 0.35290  0.83500  0.73580  Biso   1.000  C
  H54      1.0000 0.29580  0.84730  0.71290  Biso   1.000  H
  C40      1.0000 0.42270  0.86600  0.68660  Biso   1.000  C
  H55      1.0000 0.41650  0.89690  0.62980  Biso   1.000  H
  C41      1.0000 0.50300  0.85000  0.72240  Biso   1.000  C
  H56      1.0000 0.55400  0.86970  0.68990  Biso   1.000  H
  C42      1.0000 0.50970  0.80500  0.80630  Biso   1.000  C
  H57      1.0000 0.56440  0.79890  0.82910  Biso   1.000  H
  C43      1.0000 0.02610  0.87600  0.91350  Biso   1.000  C
  C44      1.0000 0.93990  0.85700  0.90330  Biso   1.000  C
  H58      1.0000 0.91220  0.83060  0.95970  Biso   1.000  H
  C45      1.0000 0.96980  0.77910  0.85470  Biso   1.000  C
  H59      1.0000 0.01670  0.71920  0.88510  Biso   1.000  H
  H60      1.0000 0.91190  0.76480  0.85350  Biso   1.000  H
  C46      1.0000 0.47930  0.75740  0.22590  Biso   1.000  C
  C47      1.0000 0.53030  0.64970  0.25970  Biso   1.000  C
  H61      1.0000 0.52370  0.61410  0.22280  Biso   1.000  H
  C48      1.0000 0.48410  0.61700  0.34550  Biso   1.000  C
  H62      1.0000 0.49800  0.64650  0.38290  Biso   1.000  H
  H63      1.0000 0.41320  0.64240  0.34390  Biso   1.000  H
  C49      1.0000 0.51590  0.51040  0.38130  Biso   1.000  C
  C50      1.0000 0.49430  0.45240  0.34700  Biso   1.000  C
  H64      1.0000 0.46020  0.48130  0.29940  Biso   1.000  H
  C51      1.0000 0.52060  0.35380  0.37950  Biso   1.000  C
  H65      1.0000 0.50210  0.31620  0.35610  Biso   1.000  H
  C52      1.0000 0.57440  0.31020  0.44690  Biso   1.000  C
  H66      1.0000 0.59530  0.24210  0.46860  Biso   1.000  H
  C53      1.0000 0.59690  0.36560  0.48140  Biso   1.000  C
  H67      1.0000 0.63180  0.33650  0.52850  Biso   1.000  H
  C54      1.0000 0.56850  0.46670  0.44750  Biso   1.000  C
  H68      1.0000 0.58630  0.50450  0.47120  Biso   1.000  H
  C55      1.0000 0.80410  0.77580  0.29400  Biso   1.000  C
  C56      1.0000 0.90050  0.75970  0.31620  Biso   1.000  C
  H69      1.0000 0.94980  0.73500  0.27170  Biso   1.000  H
  C57      1.0000 0.92760  0.68600  0.39670  Biso   1.000  C
  H70      1.0000 0.88070  0.70940  0.44210  Biso   1.000  H
  H71      1.0000 0.92290  0.62500  0.39500  Biso   1.000  H
  C58      1.0000 0.02590  0.66630  0.41460  Biso   1.000  C
  C59      1.0000 0.10640  0.60240  0.37860  Biso   1.000  C
  H72      1.0000 0.09670  0.56890  0.34500  Biso   1.000  H
  C60      1.0000 0.20020  0.58660  0.39070  Biso   1.000  C
  H73      1.0000 0.25370  0.53970  0.36880  Biso   1.000  H
  C61      1.0000 0.21430  0.64010  0.43490  Biso   1.000  C
  H74      1.0000 0.27810  0.63320  0.44030  Biso   1.000  H
  C62      1.0000 0.13800  0.70220  0.47060  Biso   1.000  C
  H75      1.0000 0.14880  0.73610  0.50310  Biso   1.000  H
  C63      1.0000 0.04350  0.71720  0.46040  Biso   1.000  C
  H76      1.0000 0.99080  0.76230  0.48470  Biso   1.000  H
  C64      1.0000 0.76090  0.14870  0.23490  Biso   1.000  C
  C65      1.0000 0.77080  0.24540  0.21790  Biso   1.000  C
  H77      1.0000 0.81920  0.25190  0.16880  Biso   1.000  H
  C66      1.0000 0.80490  0.25630  0.29010  Biso   1.000  C
  H78      1.0000 0.86290  0.19910  0.30690  Biso   1.000  H
  H79      1.0000 0.75390  0.25630  0.33700  Biso   1.000  H
  C67      1.0000 0.82920  0.34600  0.27430  Biso   1.000  C
  C68      1.0000 0.86540  0.38850  0.19730  Biso   1.000  C
  H80      1.0000 0.87220  0.36320  0.15160  Biso   1.000  H
  C69      1.0000 0.89200  0.46890  0.18640  Biso   1.000  C
  H81      1.0000 0.91830  0.49650  0.13380  Biso   1.000  H
  C70      1.0000 0.88000  0.50730  0.25120  Biso   1.000  C
  H82      1.0000 0.89700  0.56230  0.24310  Biso   1.000  H
  C71      1.0000 0.84380  0.46720  0.32790  Biso   1.000  C
  H83      1.0000 0.83580  0.49440  0.37260  Biso   1.000  H
  C72      1.0000 0.81840  0.38580  0.34040  Biso   1.000  C
  H84      1.0000 0.79390  0.35770  0.39380  Biso   1.000  H
  C73      1.0000 0.41930  0.36680  0.10910  Biso   1.000  C
  C74      1.0000 0.32850  0.44370  0.07420  Biso   1.000  C
  H85      1.0000 0.34680  0.48820  0.02300  Biso   1.000  H
  C75      1.0000 0.26650  0.50270  0.13700  Biso   1.000  C
  H86      1.0000 0.30330  0.53760  0.14770  Biso   1.000  H
  H87      1.0000 0.20750  0.55160  0.11240  Biso   1.000  H
  C76      1.0000 0.23710  0.44220  0.21790  Biso   1.000  C
  C77      1.0000 0.14620  0.43500  0.23600  Biso   1.000  C
  H88      1.0000 0.09960  0.47080  0.19760  Biso   1.000  H
  C78      1.0000 0.12340  0.37640  0.30890  Biso   1.000  C
  H89      1.0000 0.06240  0.36890  0.31870  Biso   1.000  H
  C79      1.0000 0.18660  0.32830  0.36800  Biso   1.000  C
  H90      1.0000 0.16880  0.28950  0.41890  Biso   1.000  H
  C80      1.0000 0.27540  0.33680  0.35310  Biso   1.000  C
  H91      1.0000 0.31970  0.30390  0.39370  Biso   1.000  H
  C81      1.0000 0.30110  0.39360  0.27830  Biso   1.000  C
  H92      1.0000 0.36300  0.39930  0.26830  Biso   1.000  H
  C82      1.0000 0.23100  0.12560  0.13180  Biso   1.000  C
  C83      1.0000 0.16150  0.07640  0.13230  Biso   1.000  C
  H93      1.0000 0.15430  0.08340  0.07370  Biso   1.000  H
  C84      1.0000 0.06040  0.12150  0.17520  Biso   1.000  C
  H94      1.0000 0.03640  0.19190  0.14990  Biso   1.000  H
  H95      1.0000 0.01610  0.09470  0.16430  Biso   1.000  H
  C85      1.0000 0.05550  0.10560  0.26760  Biso   1.000  C
  C86      1.0000 0.03230  0.02810  0.32010  Biso   1.000  C
  H96      1.0000 0.02220  0.98400  0.29820  Biso   1.000  H
  C87      1.0000 0.02400  0.01530  0.40470  Biso   1.000  C
  H97      1.0000 0.00870  0.96160  0.44050  Biso   1.000  H
  C88      1.0000 0.03750  0.07940  0.43790  Biso   1.000  C
  H98      1.0000 0.03200  0.06970  0.49600  Biso   1.000  H
  C89      1.0000 0.05920  0.15810  0.38520  Biso   1.000  C
  H99      1.0000 0.06690  0.20370  0.40690  Biso   1.000  H
  C90      1.0000 0.06950  0.16930  0.30020  Biso   1.000  C
  H100     1.0000 0.08640  0.22180  0.26420  Biso   1.000  H
  C91      1.0000 0.21160  0.11860  0.69670  Biso   1.000  C
  C92      1.0000 0.26300  0.10760  0.61410  Biso   1.000  C
  C93      1.0000 0.22620  0.07840  0.56300  Biso   1.000  C
  H101     1.0000 0.16790  0.06530  0.58050  Biso   1.000  H
  C94      1.0000 0.27590  0.06810  0.48490  Biso   1.000  C
  H102     1.0000 0.25100  0.04860  0.44950  Biso   1.000  H
  C95      1.0000 0.36080  0.08670  0.46010  Biso   1.000  C
  C96      1.0000 0.39510  0.11900  0.51130  Biso   1.000  C
  H103     1.0000 0.45190  0.13460  0.49310  Biso   1.000  H
  C97      1.0000 0.34730  0.12840  0.58750  Biso   1.000  C
  H104     1.0000 0.37190  0.14910  0.62220  Biso   1.000  H
  C98      1.0000 0.41340  0.07870  0.37640  Biso   1.000  C
  C99      1.0000 0.93260  0.22520  0.00660  Biso   1.000  C
  C100     1.0000 0.86660  0.16890  0.02040  Biso   1.000  C
  C101     1.0000 0.76850  0.21690  0.01280  Biso   1.000  C
  H105     1.0000 0.74250  0.28540  0.00020  Biso   1.000  H
  C102     1.0000 0.70760  0.16450  0.02360  Biso   1.000  C
  H106     1.0000 0.64020  0.19690  0.01990  Biso   1.000  H
  C103     1.0000 0.74790  0.06380  0.04000  Biso   1.000  C
  C104     1.0000 0.84700  0.01640  0.04890  Biso   1.000  C
  H107     1.0000 0.87440  0.94800  0.06080  Biso   1.000  H
  C105     1.0000 0.90440  0.07000  0.04010  Biso   1.000  C
  H108     1.0000 0.97100  0.03780  0.04770  Biso   1.000  H
  C106     1.0000 0.68540  0.00710  0.04720  Biso   1.000  C
  O29      1.0000 0.55000  0.89800  0.36840  Biso   1.000  O
  O30      1.0000 0.42860  0.03800  0.80770  Biso   1.000  O
  O31      1.0000 0.61000  0.84500  0.97200  Biso   1.000  O
  O32      1.0000 0.61820  0.47910  0.90940  Biso   1.000  O
  O33      1.0000 0.71520  0.45300  0.03790  Biso   1.000  O
  N21      1.0000 0.41140  0.49310  0.82020  Biso   1.000  N
  O34      1.0000 0.32550  0.54240  0.80660  Biso   1.000  O
  O35      1.0000 0.47100  0.46510  0.76080  Biso   1.000  O
  O36      1.0000 0.42810  0.46270  0.89670  Biso   1.000  O
  O37      1.0000 0.50260  0.58880  0.61530  Biso   1.000  O
  O38      1.0000 0.48770  0.55950  0.12890  Biso   1.000  O
  O39      1.0000 0.68900  0.65000  0.06600  Biso   1.000  O
  O40      1.0000 0.64030  0.07960  0.43280  Biso   1.000  O
  O41      1.0000 0.82650  0.92170  0.46680  Biso   1.000  O
  O42      1.0000 0.74550  0.80030  0.83600  Biso   1.000  O
  O43      1.0000 0.82310  0.60980  0.93820  Biso   1.000  O
  O44      1.0000 0.00960  0.54860  0.97970  Biso   1.000  O
  N22      1.0000 0.07930  0.84280  0.14920  Biso   1.000  N
  O45      1.0000 0.11510  0.88400  0.09840  Biso   1.000  O
  O46      1.0000 0.08640  0.83490  0.22910  Biso   1.000  O
  O47      1.0000 0.01740  0.81110  0.13860  Biso   1.000  O
  O48      1.0000 0.06640  0.36080  0.00580  Biso   1.000  O
  O49      1.0000 0.98910  0.05080  0.69580  Biso   1.000  O
  O50      1.0000 0.28660  0.68590  0.20120  Biso   1.000  O
  O51      1.0000 0.78360  0.74270  0.11790  Biso   1.000  O
  O52      1.0000 0.98770  0.66030  0.09100  Biso   1.000  O
  O53      1.0000 0.21540  0.62050  0.94090  Biso   1.000  O
  O54      1.0000 0.63330  0.63290  0.69500  Biso   1.000  O
  H109     1.0000 0.51990  0.20700  0.81890  Biso   1.000  H
  H110     1.0000 0.58280  0.19470  0.88830  Biso   1.000  H
  C107     1.0000 0.49810  0.33850  0.84120  Biso   1.000  C
  C108     1.0000 0.51210  0.37970  0.89780  Biso   1.000  C
  H111     1.0000 0.52340  0.34180  0.95250  Biso   1.000  H
  C109     1.0000 0.51000  0.47480  0.87640  Biso   1.000  C
  H112     1.0000 0.52300  0.50090  0.91420  Biso   1.000  H
  C110     1.0000 0.48900  0.52790  0.79890  Biso   1.000  C
  H113     1.0000 0.48550  0.59300  0.78380  Biso   1.000  H
  C111     1.0000 0.47100  0.49400  0.74140  Biso   1.000  C
  H114     1.0000 0.45890  0.53350  0.68740  Biso   1.000  H
  C112     1.0000 0.47090  0.39660  0.76340  Biso   1.000  C
  H115     1.0000 0.45310  0.37290  0.72650  Biso   1.000  H
  O55      1.0000 0.38340  0.21900  0.73300  Biso   1.000  O
  O56      1.0000 0.63170  0.99400  0.86030  Biso   1.000  O
  O57      1.0000 0.28830  0.93350  0.33090  Biso   1.000  O
  O58      1.0000 0.76000  0.46390  0.93820  Biso   1.000  O
  O59      1.0000 0.21810  0.66800  0.76140  Biso   1.000  O
  O60      1.0000 0.61120  0.83580  0.00570  Biso   1.000  O
  O61      1.0000 0.55340  0.63600  0.56300  Biso   1.000  O
  O62      1.0000 0.61300  0.97900  0.59100  Biso   1.000  O
  O63      1.0000 0.57100  0.06800  0.71600  Biso   1.000  O
  O64      1.0000 0.62800  0.51400  0.07100  Biso   1.000  O
  O65      1.0000 0.70400  0.14300  0.69600  Biso   1.000  O
  N23      1.0000 0.33700  0.77020  0.53280  Biso   1.000  N
  O66      1.0000 0.34600  0.70900  0.60280  Biso   1.000  O
  O67      1.0000 0.26200  0.84200  0.51090  Biso   1.000  O
  O68      1.0000 0.41000  0.76800  0.47990  Biso   1.000  O
  C113     1.0000 0.87460  0.76930  0.84340  Biso   1.000  C
  C114     1.0000 0.80930  0.80710  0.78310  Biso   1.000  C
  H116     1.0000 0.81290  0.86130  0.73950  Biso   1.000  H
  C115     1.0000 0.73980  0.76850  0.78470  Biso   1.000  C
  H117     1.0000 0.69470  0.79940  0.74470  Biso   1.000  H
  C116     1.0000 0.73570  0.68800  0.84230  Biso   1.000  C
  H118     1.0000 0.69600  0.65560  0.83730  Biso   1.000  H
  C117     1.0000 0.78900  0.65300  0.90760  Biso   1.000  C
  H119     1.0000 0.77820  0.60380  0.95350  Biso   1.000  H
  C118     1.0000 0.86100  0.69050  0.90620  Biso   1.000  C
  H120     1.0000 0.90190  0.66140  0.94940  Biso   1.000  H
  O69      1.0000 0.93200  0.89000  0.59250  Biso   1.000  O
  O70      1.0000 0.11600  0.84100  0.65500  Biso   1.000  O
  O71      1.0000 0.07760  0.53370  0.00350  Biso   1.000  O
  O72      1.0000 0.43080  0.64800  0.56610  Biso   1.000  O
  O73      1.0000 0.67100  0.62400  0.09430  Biso   1.000  O
  O74      1.0000 0.31200  0.85570  0.39520  Biso   1.000  O
  O75      1.0000 0.74700  0.91800  0.41000  Biso   1.000  O
  O76      1.0000 0.84100  0.08900  0.60500  Biso   1.000  O
  C119     1.0000 0.40230  0.71470  0.83270  Biso   1.000  C
  H121     1.0000 0.39490  0.65640  0.86660  Biso   1.000  H
  C120     1.0000 0.37470  0.75330  0.75280  Biso   1.000  C
  H122     1.0000 0.34770  0.72050  0.73150  Biso   1.000  H
  C121     1.0000 0.38580  0.83710  0.70460  Biso   1.000  C
  H123     1.0000 0.36580  0.86260  0.65060  Biso   1.000  H
  C122     1.0000 0.42590  0.88440  0.73430  Biso   1.000  C
  H124     1.0000 0.43530  0.94170  0.69980  Biso   1.000  H
  C123     1.0000 0.45360  0.84950  0.81510  Biso   1.000  C
  H125     1.0000 0.47950  0.88300  0.83670  Biso   1.000  H
  H126     1.0000 0.01290  0.71680  0.88560  Biso   1.000  H
  H127     1.0000 0.00430  0.79890  0.80030  Biso   1.000  H
  O77      1.0000 0.65010  0.71840  0.42920  Biso   1.000  O
  O78      1.0000 0.79400  0.65460  0.64510  Biso   1.000  O
