data_image0
_cell_length_a       6.53
_cell_length_b       22.2196
_cell_length_c       18.7306
_cell_angle_alpha    90
_cell_angle_beta     96.996
_cell_angle_gamma    90

_symmetry_space_group_name_H-M    "P 1"
_symmetry_int_tables_number       1

loop_
  _symmetry_equiv_pos_as_xyz
  'x, y, z'

loop_
  _atom_site_label
  _atom_site_occupancy
  _atom_site_fract_x
  _atom_site_fract_y
  _atom_site_fract_z
  _atom_site_thermal_displace_type
  _atom_site_B_iso_or_equiv
  _atom_site_type_symbol
  Cu1      1.0000 0.71184  0.37492  0.25585  Biso   1.000  Cu
  Cu2      1.0000 0.78816  0.87492  0.24415  Biso   1.000  Cu
  Cu3      1.0000 0.28816  0.62508  0.74415  Biso   1.000  Cu
  Cu4      1.0000 0.21184  0.12508  0.75585  Biso   1.000  Cu
  N1       1.0000 0.11660  0.37490  0.52520  Biso   1.000  N
  N2       1.0000 0.38340  0.87490  0.97480  Biso   1.000  N
  N3       1.0000 0.88340  0.62510  0.47480  Biso   1.000  N
  N4       1.0000 0.61660  0.12510  0.02520  Biso   1.000  N
  C1       1.0000 0.19100  0.32270  0.54440  Biso   1.000  C
  C2       1.0000 0.30900  0.82270  0.95560  Biso   1.000  C
  C3       1.0000 0.80900  0.67730  0.45560  Biso   1.000  C
  C4       1.0000 0.69100  0.17730  0.04440  Biso   1.000  C
  O1       1.0000 0.09620  0.27630  0.52880  Biso   1.000  O
  O2       1.0000 0.40380  0.77630  0.97120  Biso   1.000  O
  O3       1.0000 0.90380  0.72370  0.47120  Biso   1.000  O
  O4       1.0000 0.59620  0.22370  0.02880  Biso   1.000  O
  N5       1.0000 0.39100  0.32280  0.58290  Biso   1.000  N
  N6       1.0000 0.10900  0.82280  0.91710  Biso   1.000  N
  N7       1.0000 0.60900  0.67720  0.41710  Biso   1.000  N
  N8       1.0000 0.89100  0.17720  0.08290  Biso   1.000  N
  H1       1.0000 0.44730  0.28900  0.59630  Biso   1.000  H
  H2       1.0000 0.05270  0.78900  0.90370  Biso   1.000  H
  H3       1.0000 0.55270  0.71100  0.40370  Biso   1.000  H
  H4       1.0000 0.94730  0.21100  0.09630  Biso   1.000  H
  C5       1.0000 0.50790  0.38060  0.60140  Biso   1.000  C
  C6       1.0000 0.99210  0.88060  0.89860  Biso   1.000  C
  C7       1.0000 0.49210  0.61940  0.39860  Biso   1.000  C
  C8       1.0000 0.00790  0.11940  0.10140  Biso   1.000  C
  O5       1.0000 0.69560  0.38450  0.62540  Biso   1.000  O
  O6       1.0000 0.80440  0.88450  0.87460  Biso   1.000  O
  O7       1.0000 0.30440  0.61550  0.37460  Biso   1.000  O
  O8       1.0000 0.19560  0.11550  0.12540  Biso   1.000  O
  C9       1.0000 0.41400  0.43020  0.57800  Biso   1.000  C
  C10      1.0000 0.08600  0.93020  0.92200  Biso   1.000  C
  C11      1.0000 0.58600  0.56980  0.42200  Biso   1.000  C
  C12      1.0000 0.91400  0.06980  0.07800  Biso   1.000  C
  C13      1.0000 0.22700  0.43100  0.54340  Biso   1.000  C
  C14      1.0000 0.27300  0.93100  0.95660  Biso   1.000  C
  C15      1.0000 0.77300  0.56900  0.45660  Biso   1.000  C
  C16      1.0000 0.72700  0.06900  0.04340  Biso   1.000  C
  H5       1.0000 0.16490  0.46760  0.53010  Biso   1.000  H
  H6       1.0000 0.33510  0.96760  0.96990  Biso   1.000  H
  H7       1.0000 0.83510  0.53240  0.46990  Biso   1.000  H
  H8       1.0000 0.66490  0.03240  0.03010  Biso   1.000  H
  C17      1.0000 0.53510  0.48660  0.59740  Biso   1.000  C
  C18      1.0000 0.96490  0.98660  0.90260  Biso   1.000  C
  C19      1.0000 0.46490  0.51340  0.40260  Biso   1.000  C
  C20      1.0000 0.03510  0.01340  0.09740  Biso   1.000  C
  H9       1.0000 0.47300  0.51970  0.56980  Biso   1.000  H
  H10      1.0000 0.02700  0.01970  0.93020  Biso   1.000  H
  H11      1.0000 0.52700  0.48030  0.43020  Biso   1.000  H
  H12      1.0000 0.97300  0.98030  0.06980  Biso   1.000  H
  H13      1.0000 0.67440  0.48130  0.58700  Biso   1.000  H
  H14      1.0000 0.82560  0.98130  0.91300  Biso   1.000  H
  H15      1.0000 0.32560  0.51870  0.41300  Biso   1.000  H
  H16      1.0000 0.17440  0.01870  0.08700  Biso   1.000  H
  H17      1.0000 0.53550  0.49490  0.64770  Biso   1.000  H
  H18      1.0000 0.96450  0.99490  0.85230  Biso   1.000  H
  H19      1.0000 0.46450  0.50510  0.35230  Biso   1.000  H
  H20      1.0000 0.03550  0.00510  0.14770  Biso   1.000  H
  C21      1.0000 0.91720  0.37460  0.48150  Biso   1.000  C
  C22      1.0000 0.58280  0.87460  0.01850  Biso   1.000  C
  C23      1.0000 0.08280  0.62540  0.51850  Biso   1.000  C
  C24      1.0000 0.41720  0.12540  0.98150  Biso   1.000  C
  H21      1.0000 0.83960  0.40970  0.49320  Biso   1.000  H
  H22      1.0000 0.66040  0.90970  0.00680  Biso   1.000  H
  H23      1.0000 0.16040  0.59030  0.50680  Biso   1.000  H
  H24      1.0000 0.33960  0.09030  0.99320  Biso   1.000  H
  H25      1.0000 0.84110  0.33920  0.49310  Biso   1.000  H
  H26      1.0000 0.65890  0.83920  0.00690  Biso   1.000  H
  H27      1.0000 0.15890  0.66080  0.50690  Biso   1.000  H
  H28      1.0000 0.34110  0.16080  0.99310  Biso   1.000  H
  C25      1.0000 0.93520  0.37480  0.40040  Biso   1.000  C
  C26      1.0000 0.56480  0.87480  0.09960  Biso   1.000  C
  C27      1.0000 0.06480  0.62520  0.59960  Biso   1.000  C
  C28      1.0000 0.43520  0.12520  0.90040  Biso   1.000  C
  O9       1.0000 0.76010  0.37560  0.36174  Biso   1.000  O
  O10      1.0000 0.73990  0.87560  0.13826  Biso   1.000  O
  O11      1.0000 0.23990  0.62440  0.63826  Biso   1.000  O
  O12      1.0000 0.26010  0.12440  0.86174  Biso   1.000  O
  O13      1.0000 0.10660  0.37520  0.37700  Biso   1.000  O
  O14      1.0000 0.39340  0.87520  0.12300  Biso   1.000  O
  O15      1.0000 0.89340  0.62480  0.62300  Biso   1.000  O
  O16      1.0000 0.60660  0.12480  0.87700  Biso   1.000  O
  N9       1.0000 0.38100  0.37450  0.97680  Biso   1.000  N
  N10      1.0000 0.11900  0.87450  0.52320  Biso   1.000  N
  N11      1.0000 0.61900  0.62550  0.02320  Biso   1.000  N
  N12      1.0000 0.88100  0.12550  0.47680  Biso   1.000  N
  C29      1.0000 0.29800  0.32240  0.96250  Biso   1.000  C
  C30      1.0000 0.20200  0.82240  0.53750  Biso   1.000  C
  C31      1.0000 0.70200  0.67760  0.03750  Biso   1.000  C
  C32      1.0000 0.79800  0.17760  0.46250  Biso   1.000  C
  O17      1.0000 0.39040  0.27650  0.98180  Biso   1.000  O
  O18      1.0000 0.10960  0.77650  0.51820  Biso   1.000  O
  O19      1.0000 0.60960  0.72350  0.01820  Biso   1.000  O
  O20      1.0000 0.89040  0.22350  0.48180  Biso   1.000  O
  N13      1.0000 0.09400  0.32220  0.92710  Biso   1.000  N
  N14      1.0000 0.40600  0.82220  0.57290  Biso   1.000  N
  N15      1.0000 0.90600  0.67780  0.07290  Biso   1.000  N
  N16      1.0000 0.59400  0.17780  0.42710  Biso   1.000  N
  H29      1.0000 0.02910  0.28870  0.91990  Biso   1.000  H
  H30      1.0000 0.47090  0.78870  0.58010  Biso   1.000  H
  H31      1.0000 0.97090  0.71130  0.08010  Biso   1.000  H
  H32      1.0000 0.52910  0.21130  0.41990  Biso   1.000  H
  C33      1.0000 0.98910  0.38050  0.90180  Biso   1.000  C
  C34      1.0000 0.51090  0.88050  0.59820  Biso   1.000  C
  C35      1.0000 0.01090  0.61950  0.09820  Biso   1.000  C
  C36      1.0000 0.48910  0.11950  0.40180  Biso   1.000  C
  O21      1.0000 0.80390  0.38500  0.87590  Biso   1.000  O
  O22      1.0000 0.69610  0.88500  0.62410  Biso   1.000  O
  O23      1.0000 0.19610  0.61500  0.12410  Biso   1.000  O
  O24      1.0000 0.30390  0.11500  0.37590  Biso   1.000  O
  C37      1.0000 0.08000  0.43030  0.92570  Biso   1.000  C
  C38      1.0000 0.42000  0.93030  0.57430  Biso   1.000  C
  C39      1.0000 0.92000  0.56970  0.07430  Biso   1.000  C
  C40      1.0000 0.58000  0.06970  0.42570  Biso   1.000  C
  C41      1.0000 0.26900  0.43050  0.95810  Biso   1.000  C
  C42      1.0000 0.23100  0.93050  0.54190  Biso   1.000  C
  C43      1.0000 0.73100  0.56950  0.04190  Biso   1.000  C
  C44      1.0000 0.76900  0.06950  0.45810  Biso   1.000  C
  H33      1.0000 0.33450  0.46710  0.96940  Biso   1.000  H
  H34      1.0000 0.16550  0.96710  0.53060  Biso   1.000  H
  H35      1.0000 0.66550  0.53290  0.03060  Biso   1.000  H
  H36      1.0000 0.83450  0.03290  0.46940  Biso   1.000  H
  C45      1.0000 0.96300  0.48660  0.90250  Biso   1.000  C
  C46      1.0000 0.53700  0.98660  0.59750  Biso   1.000  C
  C47      1.0000 0.03700  0.51340  0.09750  Biso   1.000  C
  C48      1.0000 0.46300  0.01340  0.40250  Biso   1.000  C
  H37      1.0000 0.02800  0.52060  0.92730  Biso   1.000  H
  H38      1.0000 0.47200  0.02060  0.57270  Biso   1.000  H
  H39      1.0000 0.97200  0.47940  0.07270  Biso   1.000  H
  H40      1.0000 0.52800  0.97940  0.42730  Biso   1.000  H
  H41      1.0000 0.82360  0.48310  0.91370  Biso   1.000  H
  H42      1.0000 0.67640  0.98310  0.58630  Biso   1.000  H
  H43      1.0000 0.17640  0.51690  0.08630  Biso   1.000  H
  H44      1.0000 0.32360  0.01690  0.41370  Biso   1.000  H
  H45      1.0000 0.96140  0.49190  0.85150  Biso   1.000  H
  H46      1.0000 0.53860  0.99190  0.64850  Biso   1.000  H
  H47      1.0000 0.03860  0.50810  0.14850  Biso   1.000  H
  H48      1.0000 0.46140  0.00810  0.35150  Biso   1.000  H
  C49      1.0000 0.57410  0.37410  0.02430  Biso   1.000  C
  C50      1.0000 0.92590  0.87410  0.47570  Biso   1.000  C
  C51      1.0000 0.42590  0.62590  0.97570  Biso   1.000  C
  C52      1.0000 0.07410  0.12590  0.52430  Biso   1.000  C
  H49      1.0000 0.65490  0.40910  0.01450  Biso   1.000  H
  H50      1.0000 0.84510  0.90910  0.48550  Biso   1.000  H
  H51      1.0000 0.34510  0.59090  0.98550  Biso   1.000  H
  H52      1.0000 0.15490  0.09090  0.51450  Biso   1.000  H
  H53      1.0000 0.65240  0.33850  0.01470  Biso   1.000  H
  H54      1.0000 0.84760  0.83850  0.48530  Biso   1.000  H
  H55      1.0000 0.34760  0.66150  0.98530  Biso   1.000  H
  H56      1.0000 0.15240  0.16150  0.51470  Biso   1.000  H
  C53      1.0000 0.53770  0.37440  0.10380  Biso   1.000  C
  C54      1.0000 0.96230  0.87440  0.39620  Biso   1.000  C
  C55      1.0000 0.46230  0.62560  0.89620  Biso   1.000  C
  C56      1.0000 0.03770  0.12560  0.60380  Biso   1.000  C
  O25      1.0000 0.70340  0.37480  0.14768  Biso   1.000  O
  O26      1.0000 0.79660  0.87480  0.35232  Biso   1.000  O
  O27      1.0000 0.29660  0.62520  0.85232  Biso   1.000  O
  O28      1.0000 0.20340  0.12520  0.64768  Biso   1.000  O
  O29      1.0000 0.35740  0.37550  0.12000  Biso   1.000  O
  O30      1.0000 0.14260  0.87550  0.38000  Biso   1.000  O
  O31      1.0000 0.64260  0.62450  0.88000  Biso   1.000  O
  O32      1.0000 0.85740  0.12450  0.62000  Biso   1.000  O
  N17      1.0000 0.73230  0.28490  0.25450  Biso   1.000  N
  N18      1.0000 0.76770  0.78490  0.24550  Biso   1.000  N
  N19      1.0000 0.26770  0.71510  0.74550  Biso   1.000  N
  N20      1.0000 0.23230  0.21510  0.75450  Biso   1.000  N
  C57      1.0000 0.89710  0.25390  0.28550  Biso   1.000  C
  C58      1.0000 0.60290  0.75390  0.21450  Biso   1.000  C
  C59      1.0000 0.10290  0.74610  0.71450  Biso   1.000  C
  C60      1.0000 0.39710  0.24610  0.78550  Biso   1.000  C
  H57      1.0000 0.00720  0.27550  0.30900  Biso   1.000  H
  H58      1.0000 0.49280  0.77550  0.19100  Biso   1.000  H
  H59      1.0000 0.99280  0.72450  0.69100  Biso   1.000  H
  H60      1.0000 0.50720  0.22450  0.80900  Biso   1.000  H
  C61      1.0000 0.91180  0.19260  0.28440  Biso   1.000  C
  C62      1.0000 0.58820  0.69260  0.21560  Biso   1.000  C
  C63      1.0000 0.08820  0.80740  0.71560  Biso   1.000  C
  C64      1.0000 0.41180  0.30740  0.78440  Biso   1.000  C
  H61      1.0000 0.03190  0.17370  0.30470  Biso   1.000  H
  H62      1.0000 0.46810  0.67370  0.19530  Biso   1.000  H
  H63      1.0000 0.96810  0.82630  0.69530  Biso   1.000  H
  H64      1.0000 0.53190  0.32630  0.80470  Biso   1.000  H
  C65      1.0000 0.74380  0.15820  0.25240  Biso   1.000  C
  C66      1.0000 0.75620  0.65820  0.24760  Biso   1.000  C
  C67      1.0000 0.25620  0.84180  0.74760  Biso   1.000  C
  C68      1.0000 0.24380  0.34180  0.75240  Biso   1.000  C
  C69      1.0000 0.57140  0.19070  0.22130  Biso   1.000  C
  C70      1.0000 0.92860  0.69070  0.27870  Biso   1.000  C
  C71      1.0000 0.42860  0.80930  0.77870  Biso   1.000  C
  C72      1.0000 0.07140  0.30930  0.72130  Biso   1.000  C
  H65      1.0000 0.45580  0.17020  0.19980  Biso   1.000  H
  H66      1.0000 0.04420  0.67020  0.30020  Biso   1.000  H
  H67      1.0000 0.54420  0.82980  0.80020  Biso   1.000  H
  H68      1.0000 0.95580  0.32980  0.69980  Biso   1.000  H
  C73      1.0000 0.57190  0.25200  0.22230  Biso   1.000  C
  C74      1.0000 0.92810  0.75200  0.27770  Biso   1.000  C
  C75      1.0000 0.42810  0.74800  0.77770  Biso   1.000  C
  C76      1.0000 0.07190  0.24800  0.72230  Biso   1.000  C
  H69      1.0000 0.45700  0.27220  0.20000  Biso   1.000  H
  H70      1.0000 0.04300  0.77220  0.30000  Biso   1.000  H
  H71      1.0000 0.54300  0.72780  0.80000  Biso   1.000  H
  H72      1.0000 0.95700  0.22780  0.70000  Biso   1.000  H
  N21      1.0000 0.76420  0.96500  0.24710  Biso   1.000  N
  N22      1.0000 0.73580  0.46500  0.25290  Biso   1.000  N
  N23      1.0000 0.23580  0.03500  0.75290  Biso   1.000  N
  N24      1.0000 0.26420  0.53500  0.74710  Biso   1.000  N
  C77      1.0000 0.60120  0.99550  0.21690  Biso   1.000  C
  C78      1.0000 0.89880  0.49550  0.28310  Biso   1.000  C
  C79      1.0000 0.39880  0.00450  0.78310  Biso   1.000  C
  C80      1.0000 0.10120  0.50450  0.71690  Biso   1.000  C
  H73      1.0000 0.48970  0.97390  0.19430  Biso   1.000  H
  H74      1.0000 0.01030  0.47390  0.30570  Biso   1.000  H
  H75      1.0000 0.51030  0.02610  0.80570  Biso   1.000  H
  H76      1.0000 0.98970  0.52610  0.69430  Biso   1.000  H
  C81      1.0000 0.58860  0.05780  0.21730  Biso   1.000  C
  C82      1.0000 0.91140  0.55780  0.28270  Biso   1.000  C
  C83      1.0000 0.41140  0.94220  0.78270  Biso   1.000  C
  C84      1.0000 0.08860  0.44220  0.71730  Biso   1.000  C
  H77      1.0000 0.47110  0.07690  0.19500  Biso   1.000  H
  H78      1.0000 0.02890  0.57690  0.30500  Biso   1.000  H
  H79      1.0000 0.52890  0.92310  0.80500  Biso   1.000  H
  H80      1.0000 0.97110  0.42310  0.69500  Biso   1.000  H
  C85      1.0000 0.75080  0.09160  0.25080  Biso   1.000  C
  C86      1.0000 0.74920  0.59160  0.24920  Biso   1.000  C
  C87      1.0000 0.24920  0.90840  0.74920  Biso   1.000  C
  C88      1.0000 0.25080  0.40840  0.75080  Biso   1.000  C
  C89      1.0000 0.91840  0.05970  0.28320  Biso   1.000  C
  C90      1.0000 0.58160  0.55970  0.21680  Biso   1.000  C
  C91      1.0000 0.08160  0.94030  0.71680  Biso   1.000  C
  C92      1.0000 0.41840  0.44030  0.78320  Biso   1.000  C
  H81      1.0000 0.02990  0.08020  0.30760  Biso   1.000  H
  H82      1.0000 0.47010  0.58020  0.19240  Biso   1.000  H
  H83      1.0000 0.97010  0.91980  0.69240  Biso   1.000  H
  H84      1.0000 0.52990  0.41980  0.80760  Biso   1.000  H
  C93      1.0000 0.92170  0.99770  0.27940  Biso   1.000  C
  C94      1.0000 0.57830  0.49770  0.22060  Biso   1.000  C
  C95      1.0000 0.07830  0.00230  0.72060  Biso   1.000  C
  C96      1.0000 0.42170  0.50230  0.77940  Biso   1.000  C
  H85      1.0000 0.03890  0.97760  0.30020  Biso   1.000  H
  H86      1.0000 0.46110  0.47760  0.19980  Biso   1.000  H
  H87      1.0000 0.96110  0.02240  0.69980  Biso   1.000  H
  H88      1.0000 0.53890  0.52240  0.80020  Biso   1.000  H
  O33      1.0000 0.36250  0.37510  0.26450  Biso   1.000  O
  O34      1.0000 0.13750  0.87510  0.23550  Biso   1.000  O
  O35      1.0000 0.63750  0.62490  0.73550  Biso   1.000  O
  O36      1.0000 0.86250  0.12490  0.76450  Biso   1.000  O
  H89      1.0000 0.26920  0.38010  0.29220  Biso   1.000  H
  H90      1.0000 0.23080  0.88010  0.20780  Biso   1.000  H
  H91      1.0000 0.73080  0.61990  0.70780  Biso   1.000  H
  H92      1.0000 0.76920  0.11990  0.79220  Biso   1.000  H
  H93      1.0000 0.30120  0.37470  0.22140  Biso   1.000  H
  H94      1.0000 0.19880  0.87470  0.27860  Biso   1.000  H
  H95      1.0000 0.69880  0.62530  0.77860  Biso   1.000  H
  H96      1.0000 0.80120  0.12530  0.72140  Biso   1.000  H
  C97      1.0000 0.20000  0.42680  0.53990  Biso   1.000  C
  C98      1.0000 0.30000  0.92680  0.96010  Biso   1.000  C
  C99      1.0000 0.80000  0.57320  0.46010  Biso   1.000  C
  C100     1.0000 0.70000  0.07320  0.03990  Biso   1.000  C
  O37      1.0000 0.11070  0.47360  0.52220  Biso   1.000  O
  O38      1.0000 0.38930  0.97360  0.97780  Biso   1.000  O
  O39      1.0000 0.88930  0.52640  0.47780  Biso   1.000  O
  O40      1.0000 0.61070  0.02640  0.02220  Biso   1.000  O
  N25      1.0000 0.40400  0.42720  0.57530  Biso   1.000  N
  N26      1.0000 0.09600  0.92720  0.92470  Biso   1.000  N
  N27      1.0000 0.59600  0.57280  0.42470  Biso   1.000  N
  N28      1.0000 0.90400  0.07280  0.07530  Biso   1.000  N
  H97      1.0000 0.46690  0.46080  0.58480  Biso   1.000  H
  H98      1.0000 0.03310  0.96080  0.91520  Biso   1.000  H
  H99      1.0000 0.53310  0.53920  0.41520  Biso   1.000  H
  H100     1.0000 0.96690  0.03920  0.08480  Biso   1.000  H
  C101     1.0000 0.51300  0.36870  0.59670  Biso   1.000  C
  C102     1.0000 0.98700  0.86870  0.90330  Biso   1.000  C
  C103     1.0000 0.48700  0.63130  0.40330  Biso   1.000  C
  C104     1.0000 0.01300  0.13130  0.09670  Biso   1.000  C
  O41      1.0000 0.68260  0.36670  0.63610  Biso   1.000  O
  O42      1.0000 0.81740  0.86670  0.86390  Biso   1.000  O
  O43      1.0000 0.31740  0.63330  0.36390  Biso   1.000  O
  O44      1.0000 0.18260  0.13330  0.13610  Biso   1.000  O
  C105     1.0000 0.41800  0.31880  0.57600  Biso   1.000  C
  C106     1.0000 0.08200  0.81880  0.92400  Biso   1.000  C
  C107     1.0000 0.58200  0.68120  0.42400  Biso   1.000  C
  C108     1.0000 0.91800  0.18120  0.07600  Biso   1.000  C
  C109     1.0000 0.23000  0.31900  0.54220  Biso   1.000  C
  C110     1.0000 0.27000  0.81900  0.95780  Biso   1.000  C
  C111     1.0000 0.77000  0.68100  0.45780  Biso   1.000  C
  C112     1.0000 0.73000  0.18100  0.04220  Biso   1.000  C
  H101     1.0000 0.16770  0.28250  0.52850  Biso   1.000  H
  H102     1.0000 0.33230  0.78250  0.97150  Biso   1.000  H
  H103     1.0000 0.83230  0.71750  0.47150  Biso   1.000  H
  H104     1.0000 0.66770  0.21750  0.02850  Biso   1.000  H
  C113     1.0000 0.53830  0.26320  0.59970  Biso   1.000  C
  C114     1.0000 0.96170  0.76320  0.90030  Biso   1.000  C
  C115     1.0000 0.46170  0.73680  0.40030  Biso   1.000  C
  C116     1.0000 0.03830  0.23680  0.09970  Biso   1.000  C
  H105     1.0000 0.45810  0.22820  0.58490  Biso   1.000  H
  H106     1.0000 0.04190  0.72820  0.91510  Biso   1.000  H
  H107     1.0000 0.54190  0.77180  0.41510  Biso   1.000  H
  H108     1.0000 0.95810  0.27180  0.08490  Biso   1.000  H
  H109     1.0000 0.56970  0.26340  0.65110  Biso   1.000  H
  H110     1.0000 0.93030  0.76340  0.84890  Biso   1.000  H
  H111     1.0000 0.43030  0.73660  0.34890  Biso   1.000  H
  H112     1.0000 0.06970  0.23660  0.15110  Biso   1.000  H
  H113     1.0000 0.66440  0.26260  0.57810  Biso   1.000  H
  H114     1.0000 0.83560  0.76260  0.92190  Biso   1.000  H
  H115     1.0000 0.33560  0.73740  0.42190  Biso   1.000  H
  H116     1.0000 0.16440  0.23740  0.07810  Biso   1.000  H
  C117     1.0000 0.30300  0.42670  0.95950  Biso   1.000  C
  C118     1.0000 0.19700  0.92670  0.54050  Biso   1.000  C
  C119     1.0000 0.69700  0.57330  0.04050  Biso   1.000  C
  C120     1.0000 0.80300  0.07330  0.45950  Biso   1.000  C
  O45      1.0000 0.39490  0.47310  0.97720  Biso   1.000  O
  O46      1.0000 0.10510  0.97310  0.52280  Biso   1.000  O
  O47      1.0000 0.60510  0.52690  0.02280  Biso   1.000  O
  O48      1.0000 0.89490  0.02690  0.47720  Biso   1.000  O
  N29      1.0000 0.10000  0.42670  0.92300  Biso   1.000  N
  N30      1.0000 0.40000  0.92670  0.57700  Biso   1.000  N
  N31      1.0000 0.90000  0.57330  0.07700  Biso   1.000  N
  N32      1.0000 0.60000  0.07330  0.42300  Biso   1.000  N
  H117     1.0000 0.04290  0.46030  0.90910  Biso   1.000  H
  H118     1.0000 0.45710  0.96030  0.59090  Biso   1.000  H
  H119     1.0000 0.95710  0.53970  0.09090  Biso   1.000  H
  H120     1.0000 0.54290  0.03970  0.40910  Biso   1.000  H
  C121     1.0000 0.98140  0.36860  0.90780  Biso   1.000  C
  C122     1.0000 0.51860  0.86860  0.59220  Biso   1.000  C
  C123     1.0000 0.01860  0.63140  0.09220  Biso   1.000  C
  C124     1.0000 0.48140  0.13140  0.40780  Biso   1.000  C
  O49      1.0000 0.80720  0.36590  0.87140  Biso   1.000  O
  O50      1.0000 0.69280  0.86590  0.62860  Biso   1.000  O
  O51      1.0000 0.19280  0.63410  0.12860  Biso   1.000  O
  O52      1.0000 0.30720  0.13410  0.37140  Biso   1.000  O
  C125     1.0000 0.08000  0.31890  0.92700  Biso   1.000  C
  C126     1.0000 0.42000  0.81890  0.57300  Biso   1.000  C
  C127     1.0000 0.92000  0.68110  0.07300  Biso   1.000  C
  C128     1.0000 0.58000  0.18110  0.42700  Biso   1.000  C
  C129     1.0000 0.26500  0.31860  0.96260  Biso   1.000  C
  C130     1.0000 0.23500  0.81860  0.53740  Biso   1.000  C
  C131     1.0000 0.73500  0.68140  0.03740  Biso   1.000  C
  C132     1.0000 0.76500  0.18140  0.46260  Biso   1.000  C
  H121     1.0000 0.32360  0.28230  0.97920  Biso   1.000  H
  H122     1.0000 0.17640  0.78230  0.52080  Biso   1.000  H
  H123     1.0000 0.67640  0.71770  0.02080  Biso   1.000  H
  H124     1.0000 0.82360  0.21770  0.47920  Biso   1.000  H
  C133     1.0000 0.95350  0.26390  0.90580  Biso   1.000  C
  C134     1.0000 0.54650  0.76390  0.59420  Biso   1.000  C
  C135     1.0000 0.04650  0.73610  0.09420  Biso   1.000  C
  C136     1.0000 0.45350  0.23610  0.40580  Biso   1.000  C
  H125     1.0000 0.03560  0.22850  0.91700  Biso   1.000  H
  H126     1.0000 0.46440  0.72850  0.58300  Biso   1.000  H
  H127     1.0000 0.96440  0.77150  0.08300  Biso   1.000  H
  H128     1.0000 0.53560  0.27150  0.41700  Biso   1.000  H
  H129     1.0000 0.90830  0.26500  0.85510  Biso   1.000  H
  H130     1.0000 0.59170  0.76500  0.64490  Biso   1.000  H
  H131     1.0000 0.09170  0.73500  0.14490  Biso   1.000  H
  H132     1.0000 0.40830  0.23500  0.35510  Biso   1.000  H
  H133     1.0000 0.83560  0.26300  0.93180  Biso   1.000  H
  H134     1.0000 0.66440  0.76300  0.56820  Biso   1.000  H
  H135     1.0000 0.16440  0.73700  0.06820  Biso   1.000  H
  H136     1.0000 0.33560  0.23700  0.43180  Biso   1.000  H
  O53      1.0000 0.95570  0.20500  0.90680  Biso   1.000  O
  O54      1.0000 0.54430  0.70500  0.59320  Biso   1.000  O
  O55      1.0000 0.04430  0.79500  0.09320  Biso   1.000  O
  O56      1.0000 0.45570  0.29500  0.40680  Biso   1.000  O
  H137     1.0000 0.84740  0.18370  0.90130  Biso   1.000  H
  H138     1.0000 0.65260  0.68370  0.59870  Biso   1.000  H
  H139     1.0000 0.15260  0.81630  0.09870  Biso   1.000  H
  H140     1.0000 0.34740  0.31630  0.40130  Biso   1.000  H
  H141     1.0000 0.05610  0.18300  0.89710  Biso   1.000  H
  H142     1.0000 0.44390  0.68300  0.60290  Biso   1.000  H
  H143     1.0000 0.94390  0.81700  0.10290  Biso   1.000  H
  H144     1.0000 0.55610  0.31700  0.39710  Biso   1.000  H
  O57      1.0000 0.52650  0.20630  0.62090  Biso   1.000  O
  O58      1.0000 0.97350  0.70630  0.87910  Biso   1.000  O
  O59      1.0000 0.47350  0.79370  0.37910  Biso   1.000  O
  O60      1.0000 0.02650  0.29370  0.12090  Biso   1.000  O
  H145     1.0000 0.62410  0.18220  0.61530  Biso   1.000  H
  H146     1.0000 0.87590  0.68220  0.88470  Biso   1.000  H
  H147     1.0000 0.37590  0.81780  0.38470  Biso   1.000  H
  H148     1.0000 0.12410  0.31780  0.11530  Biso   1.000  H
  H149     1.0000 0.42440  0.18560  0.63120  Biso   1.000  H
  H150     1.0000 0.07560  0.68560  0.86880  Biso   1.000  H
  H151     1.0000 0.57560  0.81440  0.36880  Biso   1.000  H
  H152     1.0000 0.92440  0.31440  0.13120  Biso   1.000  H
  O61      1.0000 0.97520  0.54500  0.88550  Biso   1.000  O
  O62      1.0000 0.52480  0.04500  0.61450  Biso   1.000  O
  O63      1.0000 0.02480  0.45500  0.11450  Biso   1.000  O
  O64      1.0000 0.47520  0.95500  0.38550  Biso   1.000  O
  H153     1.0000 0.87310  0.56870  0.88880  Biso   1.000  H
  H154     1.0000 0.62690  0.06870  0.61120  Biso   1.000  H
  H155     1.0000 0.12690  0.43130  0.11120  Biso   1.000  H
  H156     1.0000 0.37310  0.93130  0.38880  Biso   1.000  H
  H157     1.0000 0.07200  0.56610  0.87190  Biso   1.000  H
  H158     1.0000 0.42800  0.06610  0.62810  Biso   1.000  H
  H159     1.0000 0.92800  0.43390  0.12810  Biso   1.000  H
  H160     1.0000 0.57200  0.93390  0.37190  Biso   1.000  H
  O65      1.0000 0.54540  0.54390  0.59920  Biso   1.000  O
  O66      1.0000 0.95460  0.04390  0.90080  Biso   1.000  O
  O67      1.0000 0.45460  0.45610  0.40080  Biso   1.000  O
  O68      1.0000 0.04540  0.95610  0.09920  Biso   1.000  O
  H161     1.0000 0.65740  0.56510  0.59990  Biso   1.000  H
  H162     1.0000 0.84260  0.06510  0.90010  Biso   1.000  H
  H163     1.0000 0.34260  0.43490  0.40010  Biso   1.000  H
  H164     1.0000 0.15740  0.93490  0.09990  Biso   1.000  H
  H165     1.0000 0.45140  0.56780  0.60850  Biso   1.000  H
  H166     1.0000 0.04860  0.06780  0.89150  Biso   1.000  H
  H167     1.0000 0.54860  0.43220  0.39150  Biso   1.000  H
  H168     1.0000 0.95140  0.93220  0.10850  Biso   1.000  H
