data_image0
_cell_length_a       8.1199
_cell_length_b       8.6389
_cell_length_c       9.1507
_cell_angle_alpha    82.509
_cell_angle_beta     69.453
_cell_angle_gamma    65.958

_symmetry_space_group_name_H-M    "P 1"
_symmetry_int_tables_number       1

loop_
  _symmetry_equiv_pos_as_xyz
  'x, y, z'

loop_
  _atom_site_label
  _atom_site_occupancy
  _atom_site_fract_x
  _atom_site_fract_y
  _atom_site_fract_z
  _atom_site_thermal_displace_type
  _atom_site_B_iso_or_equiv
  _atom_site_type_symbol
  Cu1      1.0000 0.00000  0.00000  0.00000  Biso   1.000  Cu
  N1       1.0000 0.72900  0.03700  0.12040  Biso   1.000  N
  N2       1.0000 0.27100  0.96300  0.87960  Biso   1.000  N
  N3       1.0000 0.23140  0.02190  0.52520  Biso   1.000  N
  N4       1.0000 0.76860  0.97810  0.47480  Biso   1.000  N
  N5       1.0000 0.11000  0.70030  0.02850  Biso   1.000  N
  N6       1.0000 0.89000  0.29970  0.97150  Biso   1.000  N
  N7       1.0000 0.56410  0.22180  0.83980  Biso   1.000  N
  N8       1.0000 0.43590  0.77820  0.16020  Biso   1.000  N
  C1       1.0000 0.56870  0.09050  0.18960  Biso   1.000  C
  C2       1.0000 0.43130  0.90950  0.81040  Biso   1.000  C
  C3       1.0000 0.29630  0.08180  0.41260  Biso   1.000  C
  C4       1.0000 0.70370  0.91820  0.58740  Biso   1.000  C
  C5       1.0000 0.18920  0.56030  0.05310  Biso   1.000  C
  C6       1.0000 0.81080  0.43970  0.94690  Biso   1.000  C
  C7       1.0000 0.44230  0.29500  0.94780  Biso   1.000  C
  C8       1.0000 0.55770  0.70500  0.05220  Biso   1.000  C
  C9       1.0000 0.37040  0.16140  0.27240  Biso   1.000  C
  C10      1.0000 0.62960  0.83860  0.72760  Biso   1.000  C
  C11      1.0000 0.28920  0.38800  0.07940  Biso   1.000  C
  C12      1.0000 0.71080  0.61200  0.92060  Biso   1.000  C
  C13      1.0000 0.24640  0.31240  0.22640  Biso   1.000  C
  C14      1.0000 0.75360  0.68760  0.77360  Biso   1.000  C
  C15      1.0000 0.90320  0.48640  0.31060  Biso   1.000  C
  C16      1.0000 0.09680  0.51360  0.68940  Biso   1.000  C
  C17      1.0000 0.74580  0.45600  0.43250  Biso   1.000  C
  C18      1.0000 0.25420  0.54400  0.56750  Biso   1.000  C
  O1       1.0000 0.04690  0.01390  0.19690  Biso   1.000  O
  O2       1.0000 0.95310  0.98610  0.80310  Biso   1.000  O
  O3       1.0000 0.08030  0.38310  0.34120  Biso   1.000  O
  O4       1.0000 0.91970  0.61690  0.65880  Biso   1.000  O
  H1       1.0000 0.98200  0.00300  0.26900  Biso   1.000  H
  H2       1.0000 0.01800  0.99700  0.73100  Biso   1.000  H
  H3       1.0000 0.16800  0.94900  0.19800  Biso   1.000  H
  H4       1.0000 0.83200  0.05100  0.80200  Biso   1.000  H
  H5       1.0000 0.88240  0.60280  0.31140  Biso   1.000  H
  H6       1.0000 0.11760  0.39720  0.68860  Biso   1.000  H
  H7       1.0000 0.91060  0.45630  0.21150  Biso   1.000  H
  H8       1.0000 0.08940  0.54370  0.78850  Biso   1.000  H
  H9       1.0000 0.62920  0.52290  0.41380  Biso   1.000  H
  H10      1.0000 0.37080  0.47710  0.58620  Biso   1.000  H
  H11      1.0000 0.76720  0.33950  0.43160  Biso   1.000  H
  H12      1.0000 0.23280  0.66050  0.56840  Biso   1.000  H
  H13      1.0000 0.73900  0.48600  0.53140  Biso   1.000  H
  H14      1.0000 0.26100  0.51400  0.46860  Biso   1.000  H
