data_image0
_cell_length_a       10.118
_cell_length_b       18.436
_cell_length_c       16.672
_cell_angle_alpha    90
_cell_angle_beta     101.88
_cell_angle_gamma    90

_symmetry_space_group_name_H-M    "P 1"
_symmetry_int_tables_number       1

loop_
  _symmetry_equiv_pos_as_xyz
  'x, y, z'

loop_
  _atom_site_label
  _atom_site_occupancy
  _atom_site_fract_x
  _atom_site_fract_y
  _atom_site_fract_z
  _atom_site_thermal_displace_type
  _atom_site_B_iso_or_equiv
  _atom_site_type_symbol
  Cu1      1.0000 0.05252  0.28552  0.44356  Biso   1.000  Cu
  Cu2      1.0000 0.55252  0.21448  0.94356  Biso   1.000  Cu
  Cu3      1.0000 0.94748  0.71448  0.55644  Biso   1.000  Cu
  Cu4      1.0000 0.44748  0.78552  0.05644  Biso   1.000  Cu
  Cl1      1.0000 0.18060  0.31890  0.34860  Biso   1.000  Cl
  Cl2      1.0000 0.68060  0.18110  0.84860  Biso   1.000  Cl
  Cl3      1.0000 0.81940  0.68110  0.65140  Biso   1.000  Cl
  Cl4      1.0000 0.31940  0.81890  0.15140  Biso   1.000  Cl
  Cl5      1.0000 0.91590  0.24280  0.53050  Biso   1.000  Cl
  Cl6      1.0000 0.41590  0.25720  0.03050  Biso   1.000  Cl
  Cl7      1.0000 0.08410  0.75720  0.46950  Biso   1.000  Cl
  Cl8      1.0000 0.58410  0.74280  0.96950  Biso   1.000  Cl
  O1       1.0000 0.45110  0.49510  0.65180  Biso   1.000  O
  O2       1.0000 0.95110  0.00490  0.15180  Biso   1.000  O
  O3       1.0000 0.54890  0.50490  0.34820  Biso   1.000  O
  O4       1.0000 0.04890  0.99510  0.84820  Biso   1.000  O
  O5       1.0000 0.71290  0.45190  0.55200  Biso   1.000  O
  O6       1.0000 0.21290  0.04810  0.05200  Biso   1.000  O
  O7       1.0000 0.28710  0.54810  0.44800  Biso   1.000  O
  O8       1.0000 0.78710  0.95190  0.94800  Biso   1.000  O
  O9       1.0000 0.01590  0.40540  0.48900  Biso   1.000  O
  O10      1.0000 0.51590  0.09460  0.98900  Biso   1.000  O
  O11      1.0000 0.98410  0.59460  0.51100  Biso   1.000  O
  O12      1.0000 0.48410  0.90540  0.01100  Biso   1.000  O
  N1       1.0000 0.41900  0.27020  0.61080  Biso   1.000  N
  N2       1.0000 0.91900  0.22980  0.11080  Biso   1.000  N
  N3       1.0000 0.58100  0.72980  0.38920  Biso   1.000  N
  N4       1.0000 0.08100  0.77020  0.88920  Biso   1.000  N
  N5       1.0000 0.21600  0.26300  0.52630  Biso   1.000  N
  N6       1.0000 0.71600  0.23700  0.02630  Biso   1.000  N
  N7       1.0000 0.78400  0.73700  0.47370  Biso   1.000  N
  N8       1.0000 0.28400  0.76300  0.97370  Biso   1.000  N
  N9       1.0000 0.46760  0.41060  0.55540  Biso   1.000  N
  N10      1.0000 0.96760  0.08940  0.05540  Biso   1.000  N
  N11      1.0000 0.53240  0.58940  0.44460  Biso   1.000  N
  N12      1.0000 0.03240  0.91060  0.94460  Biso   1.000  N
  N13      1.0000 0.80390  0.42820  0.41860  Biso   1.000  N
  N14      1.0000 0.30390  0.07180  0.91860  Biso   1.000  N
  N15      1.0000 0.19610  0.57180  0.58140  Biso   1.000  N
  N16      1.0000 0.69610  0.92820  0.08140  Biso   1.000  N
  N17      1.0000 0.70570  0.30730  0.26360  Biso   1.000  N
  N18      1.0000 0.20570  0.19270  0.76360  Biso   1.000  N
  N19      1.0000 0.29430  0.69270  0.73640  Biso   1.000  N
  N20      1.0000 0.79430  0.80730  0.23640  Biso   1.000  N
  N21      1.0000 0.89110  0.28000  0.35310  Biso   1.000  N
  N22      1.0000 0.39110  0.22000  0.85310  Biso   1.000  N
  N23      1.0000 0.10890  0.72000  0.64690  Biso   1.000  N
  N24      1.0000 0.60890  0.78000  0.14690  Biso   1.000  N
  C1       1.0000 0.37800  0.19810  0.60970  Biso   1.000  C
  C2       1.0000 0.87800  0.30190  0.10970  Biso   1.000  C
  C3       1.0000 0.62200  0.80190  0.39030  Biso   1.000  C
  C4       1.0000 0.12200  0.69810  0.89030  Biso   1.000  C
  C5       1.0000 0.44650  0.13870  0.64920  Biso   1.000  C
  C6       1.0000 0.94650  0.36130  0.14920  Biso   1.000  C
  C7       1.0000 0.55350  0.86130  0.35080  Biso   1.000  C
  C8       1.0000 0.05350  0.63870  0.85080  Biso   1.000  C
  C9       1.0000 0.38330  0.07320  0.63260  Biso   1.000  C
  C10      1.0000 0.88330  0.42680  0.13260  Biso   1.000  C
  C11      1.0000 0.61670  0.92680  0.36740  Biso   1.000  C
  C12      1.0000 0.11670  0.57320  0.86740  Biso   1.000  C
  C13      1.0000 0.25550  0.06980  0.58060  Biso   1.000  C
  C14      1.0000 0.75550  0.43020  0.08060  Biso   1.000  C
  C15      1.0000 0.74450  0.93020  0.41940  Biso   1.000  C
  C16      1.0000 0.24450  0.56980  0.91940  Biso   1.000  C
  C17      1.0000 0.18810  0.12930  0.54200  Biso   1.000  C
  C18      1.0000 0.68810  0.37070  0.04200  Biso   1.000  C
  C19      1.0000 0.81190  0.87070  0.45800  Biso   1.000  C
  C20      1.0000 0.31190  0.62930  0.95800  Biso   1.000  C
  C21      1.0000 0.25110  0.19560  0.55710  Biso   1.000  C
  C22      1.0000 0.75110  0.30440  0.05710  Biso   1.000  C
  C23      1.0000 0.74890  0.80440  0.44290  Biso   1.000  C
  C24      1.0000 0.24890  0.69560  0.94290  Biso   1.000  C
  C25      1.0000 0.31550  0.30750  0.55820  Biso   1.000  C
  C26      1.0000 0.81550  0.19250  0.05820  Biso   1.000  C
  C27      1.0000 0.68450  0.69250  0.44180  Biso   1.000  C
  C28      1.0000 0.18450  0.80750  0.94180  Biso   1.000  C
  C29      1.0000 0.32180  0.38720  0.54100  Biso   1.000  C
  C30      1.0000 0.82180  0.11280  0.04100  Biso   1.000  C
  C31      1.0000 0.67820  0.61280  0.45900  Biso   1.000  C
  C32      1.0000 0.17820  0.88720  0.95900  Biso   1.000  C
  C33      1.0000 0.51730  0.46190  0.60900  Biso   1.000  C
  C34      1.0000 0.01730  0.03810  0.10900  Biso   1.000  C
  C35      1.0000 0.48270  0.53810  0.39100  Biso   1.000  C
  C36      1.0000 0.98270  0.96190  0.89100  Biso   1.000  C
  C37      1.0000 0.66690  0.47590  0.62180  Biso   1.000  C
  C38      1.0000 0.16690  0.02410  0.12180  Biso   1.000  C
  C39      1.0000 0.33310  0.52410  0.37820  Biso   1.000  C
  C40      1.0000 0.83310  0.97590  0.87820  Biso   1.000  C
  C41      1.0000 0.85380  0.44280  0.56550  Biso   1.000  C
  C42      1.0000 0.35380  0.05720  0.06550  Biso   1.000  C
  C43      1.0000 0.14620  0.55720  0.43450  Biso   1.000  C
  C44      1.0000 0.64620  0.94280  0.93450  Biso   1.000  C
  C45      1.0000 0.89820  0.42320  0.48790  Biso   1.000  C
  C46      1.0000 0.39820  0.07680  0.98790  Biso   1.000  C
  C47      1.0000 0.10180  0.57680  0.51210  Biso   1.000  C
  C48      1.0000 0.60180  0.92320  0.01210  Biso   1.000  C
  C49      1.0000 0.83370  0.41090  0.34110  Biso   1.000  C
  C50      1.0000 0.33370  0.08910  0.84110  Biso   1.000  C
  C51      1.0000 0.16630  0.58910  0.65890  Biso   1.000  C
  C52      1.0000 0.66630  0.91090  0.15890  Biso   1.000  C
  C53      1.0000 0.80720  0.33300  0.31880  Biso   1.000  C
  C54      1.0000 0.30720  0.16700  0.81880  Biso   1.000  C
  C55      1.0000 0.19280  0.66700  0.68120  Biso   1.000  C
  C56      1.0000 0.69280  0.83300  0.18120  Biso   1.000  C
  C57      1.0000 0.83590  0.21530  0.31590  Biso   1.000  C
  C58      1.0000 0.33590  0.28470  0.81590  Biso   1.000  C
  C59      1.0000 0.16410  0.78470  0.68410  Biso   1.000  C
  C60      1.0000 0.66410  0.71530  0.18410  Biso   1.000  C
  C61      1.0000 0.88110  0.14400  0.32790  Biso   1.000  C
  C62      1.0000 0.38110  0.35600  0.82790  Biso   1.000  C
  C63      1.0000 0.11890  0.85600  0.67210  Biso   1.000  C
  C64      1.0000 0.61890  0.64400  0.17210  Biso   1.000  C
  C65      1.0000 0.80040  0.09100  0.28170  Biso   1.000  C
  C66      1.0000 0.30040  0.40900  0.78170  Biso   1.000  C
  C67      1.0000 0.19960  0.90900  0.71830  Biso   1.000  C
  C68      1.0000 0.69960  0.59100  0.21830  Biso   1.000  C
  C69      1.0000 0.68670  0.10900  0.22400  Biso   1.000  C
  C70      1.0000 0.18670  0.39100  0.72400  Biso   1.000  C
  C71      1.0000 0.31330  0.89100  0.77600  Biso   1.000  C
  C72      1.0000 0.81330  0.60900  0.27600  Biso   1.000  C
  C73      1.0000 0.64150  0.17880  0.21410  Biso   1.000  C
  C74      1.0000 0.14150  0.32120  0.71410  Biso   1.000  C
  C75      1.0000 0.35850  0.82120  0.78590  Biso   1.000  C
  C76      1.0000 0.85850  0.67880  0.28590  Biso   1.000  C
  C77      1.0000 0.71820  0.23220  0.25910  Biso   1.000  C
  C78      1.0000 0.21820  0.26780  0.75910  Biso   1.000  C
  C79      1.0000 0.28180  0.76780  0.74090  Biso   1.000  C
  C80      1.0000 0.78180  0.73220  0.24090  Biso   1.000  C
  H1       1.0000 0.53100  0.14100  0.68500  Biso   1.000  H
  H2       1.0000 0.03100  0.35900  0.18500  Biso   1.000  H
  H3       1.0000 0.46900  0.85900  0.31500  Biso   1.000  H
  H4       1.0000 0.96900  0.64100  0.81500  Biso   1.000  H
  H5       1.0000 0.42000  0.03000  0.65800  Biso   1.000  H
  H6       1.0000 0.92000  0.47000  0.15800  Biso   1.000  H
  H7       1.0000 0.58000  0.97000  0.34200  Biso   1.000  H
  H8       1.0000 0.08000  0.53000  0.84200  Biso   1.000  H
  H9       1.0000 0.20900  0.02400  0.57800  Biso   1.000  H
  H10      1.0000 0.70900  0.47600  0.07800  Biso   1.000  H
  H11      1.0000 0.79100  0.97600  0.42200  Biso   1.000  H
  H12      1.0000 0.29100  0.52400  0.92200  Biso   1.000  H
  H13      1.0000 0.10800  0.12600  0.50200  Biso   1.000  H
  H14      1.0000 0.60800  0.37400  0.00200  Biso   1.000  H
  H15      1.0000 0.89200  0.87400  0.49800  Biso   1.000  H
  H16      1.0000 0.39200  0.62600  0.99800  Biso   1.000  H
  H17      1.0000 0.27800  0.39700  0.48700  Biso   1.000  H
  H18      1.0000 0.77800  0.10300  0.98700  Biso   1.000  H
  H19      1.0000 0.72200  0.60300  0.51300  Biso   1.000  H
  H20      1.0000 0.22200  0.89700  0.01300  Biso   1.000  H
  H21      1.0000 0.28200  0.41100  0.58000  Biso   1.000  H
  H22      1.0000 0.78200  0.08900  0.08000  Biso   1.000  H
  H23      1.0000 0.71800  0.58900  0.42000  Biso   1.000  H
  H24      1.0000 0.21800  0.91100  0.92000  Biso   1.000  H
  H25      1.0000 0.71500  0.44700  0.66600  Biso   1.000  H
  H26      1.0000 0.21500  0.05300  0.16600  Biso   1.000  H
  H27      1.0000 0.28500  0.55300  0.33400  Biso   1.000  H
  H28      1.0000 0.78500  0.94700  0.83400  Biso   1.000  H
  H29      1.0000 0.68700  0.52600  0.62600  Biso   1.000  H
  H30      1.0000 0.18700  0.97400  0.12600  Biso   1.000  H
  H31      1.0000 0.31300  0.47400  0.37400  Biso   1.000  H
  H32      1.0000 0.81300  0.02600  0.87400  Biso   1.000  H
  H33      1.0000 0.90000  0.48400  0.59100  Biso   1.000  H
  H34      1.0000 0.40000  0.01600  0.09100  Biso   1.000  H
  H35      1.0000 0.10000  0.51600  0.40900  Biso   1.000  H
  H36      1.0000 0.60000  0.98400  0.90900  Biso   1.000  H
  H37      1.0000 0.88100  0.40600  0.60700  Biso   1.000  H
  H38      1.0000 0.38100  0.09400  0.10700  Biso   1.000  H
  H39      1.0000 0.11900  0.59400  0.39300  Biso   1.000  H
  H40      1.0000 0.61900  0.90600  0.89300  Biso   1.000  H
  H41      1.0000 0.77400  0.44000  0.30000  Biso   1.000  H
  H42      1.0000 0.27400  0.06000  0.80000  Biso   1.000  H
  H43      1.0000 0.22600  0.56000  0.70000  Biso   1.000  H
  H44      1.0000 0.72600  0.94000  0.20000  Biso   1.000  H
  H45      1.0000 0.92100  0.42500  0.33800  Biso   1.000  H
  H46      1.0000 0.42100  0.07500  0.83800  Biso   1.000  H
  H47      1.0000 0.07900  0.57500  0.66200  Biso   1.000  H
  H48      1.0000 0.57900  0.92500  0.16200  Biso   1.000  H
  H49      1.0000 0.97000  0.13100  0.35600  Biso   1.000  H
  H50      1.0000 0.47000  0.36900  0.85600  Biso   1.000  H
  H51      1.0000 0.03000  0.86900  0.64400  Biso   1.000  H
  H52      1.0000 0.53000  0.63100  0.14400  Biso   1.000  H
  H53      1.0000 0.82800  0.04200  0.29200  Biso   1.000  H
  H54      1.0000 0.32800  0.45800  0.79200  Biso   1.000  H
  H55      1.0000 0.17200  0.95800  0.70800  Biso   1.000  H
  H56      1.0000 0.67200  0.54200  0.20800  Biso   1.000  H
  H57      1.0000 0.63400  0.07200  0.19300  Biso   1.000  H
  H58      1.0000 0.13400  0.42800  0.69300  Biso   1.000  H
  H59      1.0000 0.36600  0.92800  0.80700  Biso   1.000  H
  H60      1.0000 0.86600  0.57200  0.30700  Biso   1.000  H
  H61      1.0000 0.56400  0.19100  0.17200  Biso   1.000  H
  H62      1.0000 0.06400  0.30900  0.67200  Biso   1.000  H
  H63      1.0000 0.43600  0.80900  0.82800  Biso   1.000  H
  H64      1.0000 0.93600  0.69100  0.32800  Biso   1.000  H
  H65      1.0000 0.49700  0.29100  0.64400  Biso   1.000  H
  H66      1.0000 0.99700  0.20900  0.14400  Biso   1.000  H
  H67      1.0000 0.50300  0.70900  0.35600  Biso   1.000  H
  H68      1.0000 0.00300  0.79100  0.85600  Biso   1.000  H
  H69      1.0000 0.52800  0.39000  0.52600  Biso   1.000  H
  H70      1.0000 0.02800  0.11000  0.02600  Biso   1.000  H
  H71      1.0000 0.47200  0.61000  0.47400  Biso   1.000  H
  H72      1.0000 0.97200  0.89000  0.97400  Biso   1.000  H
  H73      1.0000 0.71400  0.43600  0.42300  Biso   1.000  H
  H74      1.0000 0.21400  0.06400  0.92300  Biso   1.000  H
  H75      1.0000 0.28600  0.56400  0.57700  Biso   1.000  H
  H76      1.0000 0.78600  0.93600  0.07700  Biso   1.000  H
  H77      1.0000 0.63100  0.33500  0.23700  Biso   1.000  H
  H78      1.0000 0.13100  0.16500  0.73700  Biso   1.000  H
  H79      1.0000 0.36900  0.66500  0.76300  Biso   1.000  H
  H80      1.0000 0.86900  0.83500  0.26300  Biso   1.000  H
  O13      1.0000 0.20890  0.20740  0.17070  Biso   1.000  O
  O14      1.0000 0.70890  0.29260  0.67070  Biso   1.000  O
  O15      1.0000 0.79110  0.79260  0.82930  Biso   1.000  O
  O16      1.0000 0.29110  0.70740  0.32930  Biso   1.000  O
  O17      1.0000 0.17100  0.19400  0.20800  Biso   1.000  O
  O18      1.0000 0.67100  0.30600  0.70800  Biso   1.000  O
  O19      1.0000 0.82900  0.80600  0.79200  Biso   1.000  O
  O20      1.0000 0.32900  0.69400  0.29200  Biso   1.000  O
  O21      1.0000 0.94200  0.81900  0.06700  Biso   1.000  O
  O22      1.0000 0.44200  0.68100  0.56700  Biso   1.000  O
  O23      1.0000 0.05800  0.18100  0.93300  Biso   1.000  O
  O24      1.0000 0.55800  0.31900  0.43300  Biso   1.000  O
  C81      1.0000 0.43862  0.44561  0.13886  Biso   1.000  C
  C82      1.0000 0.93862  0.05439  0.63886  Biso   1.000  C
  C83      1.0000 0.56138  0.55439  0.86114  Biso   1.000  C
  C84      1.0000 0.06138  0.94561  0.36114  Biso   1.000  C
  C85      1.0000 0.35950  0.40660  0.17980  Biso   1.000  C
  C86      1.0000 0.85950  0.09340  0.67980  Biso   1.000  C
  C87      1.0000 0.64050  0.59340  0.82020  Biso   1.000  C
  C88      1.0000 0.14050  0.90660  0.32020  Biso   1.000  C
  O25      1.0000 0.49980  0.41070  0.21960  Biso   1.000  O
  O26      1.0000 0.99980  0.08930  0.71960  Biso   1.000  O
  O27      1.0000 0.50020  0.58930  0.78040  Biso   1.000  O
  O28      1.0000 0.00020  0.91070  0.28040  Biso   1.000  O
  C89      1.0000 0.31900  0.47420  0.13100  Biso   1.000  C
  C90      1.0000 0.81900  0.02580  0.63100  Biso   1.000  C
  C91      1.0000 0.68100  0.52580  0.86900  Biso   1.000  C
  C92      1.0000 0.18100  0.97420  0.36900  Biso   1.000  C
  H81      1.0000 0.34800  0.36770  0.14200  Biso   1.000  H
  H82      1.0000 0.84800  0.13230  0.64200  Biso   1.000  H
  H83      1.0000 0.65200  0.63230  0.85800  Biso   1.000  H
  H84      1.0000 0.15200  0.86770  0.35800  Biso   1.000  H
  H85      1.0000 0.30700  0.40500  0.22000  Biso   1.000  H
  H86      1.0000 0.80700  0.09500  0.72000  Biso   1.000  H
  H87      1.0000 0.69300  0.59500  0.78000  Biso   1.000  H
  H88      1.0000 0.19300  0.90500  0.28000  Biso   1.000  H
  H89      1.0000 0.22600  0.47200  0.10500  Biso   1.000  H
  H90      1.0000 0.72600  0.02800  0.60500  Biso   1.000  H
  H91      1.0000 0.77400  0.52800  0.89500  Biso   1.000  H
  H92      1.0000 0.27400  0.97200  0.39500  Biso   1.000  H
  H93      1.0000 0.37100  0.47600  0.09000  Biso   1.000  H
  H94      1.0000 0.87100  0.02400  0.59000  Biso   1.000  H
  H95      1.0000 0.62900  0.52400  0.91000  Biso   1.000  H
  H96      1.0000 0.12900  0.97600  0.41000  Biso   1.000  H
  H97      1.0000 0.33000  0.51310  0.16900  Biso   1.000  H
  H98      1.0000 0.83000  0.98690  0.66900  Biso   1.000  H
  H99      1.0000 0.67000  0.48690  0.83100  Biso   1.000  H
  H100     1.0000 0.17000  0.01310  0.33100  Biso   1.000  H
  C93      1.0000 0.54700  0.13950  0.42900  Biso   1.000  C
  C94      1.0000 0.04700  0.36050  0.92900  Biso   1.000  C
  C95      1.0000 0.45300  0.86050  0.57100  Biso   1.000  C
  C96      1.0000 0.95300  0.63950  0.07100  Biso   1.000  C
  O29      1.0000 0.42100  0.14300  0.37100  Biso   1.000  O
  O30      1.0000 0.92100  0.35700  0.87100  Biso   1.000  O
  O31      1.0000 0.57900  0.85700  0.62900  Biso   1.000  O
  O32      1.0000 0.07900  0.64300  0.12900  Biso   1.000  O
  C97      1.0000 0.59700  0.21440  0.45400  Biso   1.000  C
  C98      1.0000 0.09700  0.28560  0.95400  Biso   1.000  C
  C99      1.0000 0.40300  0.78560  0.54600  Biso   1.000  C
  C100     1.0000 0.90300  0.71440  0.04600  Biso   1.000  C
  H101     1.0000 0.53300  0.11600  0.47600  Biso   1.000  H
  H102     1.0000 0.03300  0.38400  0.97600  Biso   1.000  H
  H103     1.0000 0.46700  0.88400  0.52400  Biso   1.000  H
  H104     1.0000 0.96700  0.61600  0.02400  Biso   1.000  H
  H105     1.0000 0.61200  0.11800  0.40300  Biso   1.000  H
  H106     1.0000 0.11200  0.38200  0.90300  Biso   1.000  H
  H107     1.0000 0.38800  0.88200  0.59700  Biso   1.000  H
  H108     1.0000 0.88800  0.61800  0.09700  Biso   1.000  H
  H109     1.0000 0.68000  0.21200  0.49200  Biso   1.000  H
  H110     1.0000 0.18000  0.28800  0.99200  Biso   1.000  H
  H111     1.0000 0.32000  0.78800  0.50800  Biso   1.000  H
  H112     1.0000 0.82000  0.71200  0.00800  Biso   1.000  H
  H113     1.0000 0.53200  0.23600  0.48000  Biso   1.000  H
  H114     1.0000 0.03200  0.26400  0.98000  Biso   1.000  H
  H115     1.0000 0.46800  0.76400  0.52000  Biso   1.000  H
  H116     1.0000 0.96800  0.73600  0.02000  Biso   1.000  H
  H117     1.0000 0.61100  0.23800  0.40600  Biso   1.000  H
  H118     1.0000 0.11100  0.26200  0.90600  Biso   1.000  H
  H119     1.0000 0.38900  0.76200  0.59400  Biso   1.000  H
  H120     1.0000 0.88900  0.73800  0.09400  Biso   1.000  H
