data_image0
_cell_length_a       27.5606
_cell_length_b       18.8054
_cell_length_c       11.6481
_cell_angle_alpha    90
_cell_angle_beta     92.0487
_cell_angle_gamma    90

_symmetry_space_group_name_H-M    "P 1"
_symmetry_int_tables_number       1

loop_
  _symmetry_equiv_pos_as_xyz
  'x, y, z'

loop_
  _atom_site_label
  _atom_site_occupancy
  _atom_site_fract_x
  _atom_site_fract_y
  _atom_site_fract_z
  _atom_site_thermal_displace_type
  _atom_site_B_iso_or_equiv
  _atom_site_type_symbol
  Cu1      1.0000 0.00000  0.50000  0.50000  Biso   1.000  Cu
  Cu2      1.0000 0.00000  0.00000  0.00000  Biso   1.000  Cu
  Cu3      1.0000 0.50000  0.50000  0.50000  Biso   1.000  Cu
  Cu4      1.0000 0.50000  0.00000  0.00000  Biso   1.000  Cu
  Si1      1.0000 0.25525  0.50080  0.00468  Biso   1.000  Si
  Si2      1.0000 0.25525  0.99920  0.50468  Biso   1.000  Si
  Si3      1.0000 0.74475  0.49920  0.99532  Biso   1.000  Si
  Si4      1.0000 0.74475  0.00080  0.49532  Biso   1.000  Si
  O1       1.0000 0.19686  0.50170  0.99900  Biso   1.000  O
  O2       1.0000 0.19686  0.99830  0.49900  Biso   1.000  O
  O3       1.0000 0.80314  0.49830  0.00100  Biso   1.000  O
  O4       1.0000 0.80314  0.00170  0.50100  Biso   1.000  O
  O5       1.0000 0.27335  0.46940  0.88370  Biso   1.000  O
  O6       1.0000 0.27335  0.03060  0.38370  Biso   1.000  O
  O7       1.0000 0.72665  0.53060  0.11630  Biso   1.000  O
  O8       1.0000 0.72665  0.96940  0.61630  Biso   1.000  O
  O9       1.0000 0.27126  0.45410  0.11520  Biso   1.000  O
  O10      1.0000 0.27126  0.04590  0.61520  Biso   1.000  O
  O11      1.0000 0.72874  0.54590  0.88480  Biso   1.000  O
  O12      1.0000 0.72874  0.95410  0.38480  Biso   1.000  O
  O13      1.0000 0.28010  0.57770  0.01990  Biso   1.000  O
  O14      1.0000 0.28010  0.92230  0.51990  Biso   1.000  O
  O15      1.0000 0.71990  0.42230  0.98010  Biso   1.000  O
  O16      1.0000 0.71990  0.07770  0.48010  Biso   1.000  O
  O17      1.0000 0.04840  0.50410  0.67720  Biso   1.000  O
  O18      1.0000 0.04840  0.99590  0.17720  Biso   1.000  O
  O19      1.0000 0.95160  0.49590  0.32280  Biso   1.000  O
  O20      1.0000 0.95160  0.00410  0.82280  Biso   1.000  O
  O21      1.0000 0.42480  0.49690  0.60000  Biso   1.000  O
  O22      1.0000 0.42480  0.00310  0.10000  Biso   1.000  O
  O23      1.0000 0.57520  0.50310  0.40000  Biso   1.000  O
  O24      1.0000 0.57520  0.99690  0.90000  Biso   1.000  O
  O25      1.0000 0.20200  0.23250  0.36580  Biso   1.000  O
  O26      1.0000 0.20200  0.26750  0.86580  Biso   1.000  O
  O27      1.0000 0.79800  0.76750  0.63420  Biso   1.000  O
  O28      1.0000 0.79800  0.73250  0.13420  Biso   1.000  O
  O29      1.0000 0.33690  0.79000  0.31370  Biso   1.000  O
  O30      1.0000 0.33690  0.71000  0.81370  Biso   1.000  O
  O31      1.0000 0.66310  0.21000  0.68630  Biso   1.000  O
  O32      1.0000 0.66310  0.29000  0.18630  Biso   1.000  O
  O33      1.0000 0.98432  0.59830  0.52870  Biso   1.000  O
  O34      1.0000 0.98432  0.90170  0.02870  Biso   1.000  O
  O35      1.0000 0.01568  0.40170  0.47130  Biso   1.000  O
  O36      1.0000 0.01568  0.09830  0.97130  Biso   1.000  O
  O37      1.0000 0.05339  0.52530  0.40380  Biso   1.000  O
  O38      1.0000 0.05339  0.97470  0.90380  Biso   1.000  O
  O39      1.0000 0.94661  0.47470  0.59620  Biso   1.000  O
  O40      1.0000 0.94661  0.02530  0.09620  Biso   1.000  O
  O41      1.0000 0.53573  0.51240  0.64440  Biso   1.000  O
  O42      1.0000 0.53573  0.98760  0.14440  Biso   1.000  O
  O43      1.0000 0.46427  0.48760  0.35560  Biso   1.000  O
  O44      1.0000 0.46427  0.01240  0.85560  Biso   1.000  O
  O45      1.0000 0.49985  0.60140  0.46890  Biso   1.000  O
  O46      1.0000 0.49985  0.89860  0.96890  Biso   1.000  O
  O47      1.0000 0.50015  0.39860  0.53110  Biso   1.000  O
  O48      1.0000 0.50015  0.10140  0.03110  Biso   1.000  O
  N1       1.0000 0.08290  0.50380  0.75490  Biso   1.000  N
  N2       1.0000 0.08290  0.99620  0.25490  Biso   1.000  N
  N3       1.0000 0.91710  0.49620  0.24510  Biso   1.000  N
  N4       1.0000 0.91710  0.00380  0.74510  Biso   1.000  N
  N5       1.0000 0.39020  0.48580  0.66650  Biso   1.000  N
  N6       1.0000 0.39020  0.01420  0.16650  Biso   1.000  N
  N7       1.0000 0.60980  0.51420  0.33350  Biso   1.000  N
  N8       1.0000 0.60980  0.98580  0.83350  Biso   1.000  N
  N9       1.0000 0.21890  0.28500  0.30990  Biso   1.000  N
  N10      1.0000 0.21890  0.21500  0.80990  Biso   1.000  N
  N11      1.0000 0.78110  0.71500  0.69010  Biso   1.000  N
  N12      1.0000 0.78110  0.78500  0.19010  Biso   1.000  N
  N13      1.0000 0.32300  0.74000  0.24330  Biso   1.000  N
  N14      1.0000 0.32300  0.76000  0.74330  Biso   1.000  N
  N15      1.0000 0.67700  0.26000  0.75670  Biso   1.000  N
  N16      1.0000 0.67700  0.24000  0.25670  Biso   1.000  N
  C1       1.0000 0.11410  0.43790  0.76360  Biso   1.000  C
  C2       1.0000 0.11410  0.06210  0.26360  Biso   1.000  C
  C3       1.0000 0.88590  0.56210  0.23640  Biso   1.000  C
  C4       1.0000 0.88590  0.93790  0.73640  Biso   1.000  C
  C5       1.0000 0.09060  0.43840  0.80800  Biso   1.000  C
  C6       1.0000 0.09060  0.06160  0.30800  Biso   1.000  C
  C7       1.0000 0.90940  0.56160  0.19200  Biso   1.000  C
  C8       1.0000 0.90940  0.93840  0.69200  Biso   1.000  C
  C9       1.0000 0.15060  0.44110  0.86140  Biso   1.000  C
  C10      1.0000 0.15060  0.05890  0.36140  Biso   1.000  C
  C11      1.0000 0.84940  0.55890  0.13860  Biso   1.000  C
  C12      1.0000 0.84940  0.94110  0.63860  Biso   1.000  C
  C13      1.0000 0.12870  0.44370  0.91030  Biso   1.000  C
  C14      1.0000 0.12870  0.05630  0.41030  Biso   1.000  C
  C15      1.0000 0.87130  0.55630  0.08970  Biso   1.000  C
  C16      1.0000 0.87130  0.94370  0.58970  Biso   1.000  C
  C17      1.0000 0.16670  0.50400  0.89670  Biso   1.000  C
  C18      1.0000 0.16670  0.99600  0.39670  Biso   1.000  C
  C19      1.0000 0.83330  0.49600  0.10330  Biso   1.000  C
  C20      1.0000 0.83330  0.00400  0.60330  Biso   1.000  C
  C21      1.0000 0.12350  0.55800  0.92470  Biso   1.000  C
  C22      1.0000 0.12350  0.94200  0.42470  Biso   1.000  C
  C23      1.0000 0.87650  0.44200  0.07530  Biso   1.000  C
  C24      1.0000 0.87650  0.05800  0.57530  Biso   1.000  C
  C25      1.0000 0.14970  0.56790  0.86770  Biso   1.000  C
  C26      1.0000 0.14970  0.93210  0.36770  Biso   1.000  C
  C27      1.0000 0.85030  0.43210  0.13230  Biso   1.000  C
  C28      1.0000 0.85030  0.06790  0.63230  Biso   1.000  C
  C29      1.0000 0.08860  0.56750  0.81650  Biso   1.000  C
  C30      1.0000 0.08860  0.93250  0.31650  Biso   1.000  C
  C31      1.0000 0.91140  0.43250  0.18350  Biso   1.000  C
  C32      1.0000 0.91140  0.06750  0.68350  Biso   1.000  C
  C33      1.0000 0.12010  0.56640  0.74900  Biso   1.000  C
  C34      1.0000 0.12010  0.93360  0.24900  Biso   1.000  C
  C35      1.0000 0.87990  0.43360  0.25100  Biso   1.000  C
  C36      1.0000 0.87990  0.06640  0.75100  Biso   1.000  C
  C37      1.0000 0.13770  0.43300  0.66400  Biso   1.000  C
  C38      1.0000 0.13770  0.06700  0.16400  Biso   1.000  C
  C39      1.0000 0.86230  0.56700  0.33600  Biso   1.000  C
  C40      1.0000 0.86230  0.93300  0.83600  Biso   1.000  C
  C41      1.0000 0.10810  0.38340  0.70400  Biso   1.000  C
  C42      1.0000 0.10810  0.11660  0.20400  Biso   1.000  C
  C43      1.0000 0.89190  0.61660  0.29600  Biso   1.000  C
  C44      1.0000 0.89190  0.88340  0.79600  Biso   1.000  C
  C45      1.0000 0.07350  0.37240  0.79600  Biso   1.000  C
  C46      1.0000 0.07350  0.12760  0.29600  Biso   1.000  C
  C47      1.0000 0.92650  0.62760  0.20400  Biso   1.000  C
  C48      1.0000 0.92650  0.87240  0.70400  Biso   1.000  C
  C49      1.0000 0.03680  0.42900  0.85900  Biso   1.000  C
  C50      1.0000 0.03680  0.07100  0.35900  Biso   1.000  C
  C51      1.0000 0.96320  0.57100  0.14100  Biso   1.000  C
  C52      1.0000 0.96320  0.92900  0.64100  Biso   1.000  C
  C53      1.0000 0.10940  0.62640  0.71000  Biso   1.000  C
  C54      1.0000 0.10940  0.87360  0.21000  Biso   1.000  C
  C55      1.0000 0.89060  0.37360  0.29000  Biso   1.000  C
  C56      1.0000 0.89060  0.12640  0.79000  Biso   1.000  C
  C57      1.0000 0.15170  0.54500  0.64000  Biso   1.000  C
  C58      1.0000 0.15170  0.95500  0.14000  Biso   1.000  C
  C59      1.0000 0.84830  0.45500  0.36000  Biso   1.000  C
  C60      1.0000 0.84830  0.04500  0.86000  Biso   1.000  C
  C61      1.0000 0.03550  0.57900  0.86500  Biso   1.000  C
  C62      1.0000 0.03550  0.92100  0.36500  Biso   1.000  C
  C63      1.0000 0.96450  0.42100  0.13500  Biso   1.000  C
  C64      1.0000 0.96450  0.07900  0.63500  Biso   1.000  C
  C65      1.0000 0.08280  0.63420  0.78500  Biso   1.000  C
  C66      1.0000 0.08280  0.86580  0.28500  Biso   1.000  C
  C67      1.0000 0.91720  0.36580  0.21500  Biso   1.000  C
  C68      1.0000 0.91720  0.13420  0.71500  Biso   1.000  C
  C69      1.0000 0.34120  0.50050  0.61560  Biso   1.000  C
  C70      1.0000 0.34120  0.99950  0.11560  Biso   1.000  C
  C71      1.0000 0.65880  0.49950  0.38440  Biso   1.000  C
  C72      1.0000 0.65880  0.00050  0.88440  Biso   1.000  C
  C73      1.0000 0.30250  0.47530  0.69470  Biso   1.000  C
  C74      1.0000 0.30250  0.02470  0.19470  Biso   1.000  C
  C75      1.0000 0.69750  0.52470  0.30530  Biso   1.000  C
  C76      1.0000 0.69750  0.97530  0.80530  Biso   1.000  C
  H1       1.0000 0.30000  0.42390  0.68930  Biso   1.000  H
  H2       1.0000 0.30000  0.07610  0.18930  Biso   1.000  H
  H3       1.0000 0.70000  0.57610  0.31070  Biso   1.000  H
  H4       1.0000 0.70000  0.92390  0.81070  Biso   1.000  H
  H5       1.0000 0.27150  0.49510  0.66900  Biso   1.000  H
  H6       1.0000 0.27150  0.00490  0.16900  Biso   1.000  H
  H7       1.0000 0.72850  0.50490  0.33100  Biso   1.000  H
  H8       1.0000 0.72850  0.99510  0.83100  Biso   1.000  H
  C77      1.0000 0.31230  0.49560  0.81900  Biso   1.000  C
  C78      1.0000 0.31230  0.00440  0.31900  Biso   1.000  C
  C79      1.0000 0.68770  0.50440  0.18100  Biso   1.000  C
  C80      1.0000 0.68770  0.99560  0.68100  Biso   1.000  C
  H9       1.0000 0.31450  0.54740  0.82630  Biso   1.000  H
  H10      1.0000 0.31450  0.95260  0.32630  Biso   1.000  H
  H11      1.0000 0.68550  0.45260  0.17370  Biso   1.000  H
  H12      1.0000 0.68550  0.04740  0.67370  Biso   1.000  H
  C81      1.0000 0.35960  0.46160  0.85930  Biso   1.000  C
  C82      1.0000 0.35960  0.03840  0.35930  Biso   1.000  C
  C83      1.0000 0.64040  0.53840  0.14070  Biso   1.000  C
  C84      1.0000 0.64040  0.96160  0.64070  Biso   1.000  C
  H13      1.0000 0.35640  0.41040  0.85330  Biso   1.000  H
  H14      1.0000 0.35640  0.08960  0.35330  Biso   1.000  H
  H15      1.0000 0.64360  0.58960  0.14670  Biso   1.000  H
  H16      1.0000 0.64360  0.91040  0.64670  Biso   1.000  H
  H17      1.0000 0.36560  0.47310  0.93980  Biso   1.000  H
  H18      1.0000 0.36560  0.02690  0.43980  Biso   1.000  H
  H19      1.0000 0.63440  0.52690  0.06020  Biso   1.000  H
  H20      1.0000 0.63440  0.97310  0.56020  Biso   1.000  H
  C85      1.0000 0.40340  0.48510  0.79200  Biso   1.000  C
  C86      1.0000 0.40340  0.01490  0.29200  Biso   1.000  C
  C87      1.0000 0.59660  0.51490  0.20800  Biso   1.000  C
  C88      1.0000 0.59660  0.98510  0.70800  Biso   1.000  C
  C89      1.0000 0.33590  0.46100  0.50060  Biso   1.000  C
  C90      1.0000 0.33590  0.03900  0.00060  Biso   1.000  C
  C91      1.0000 0.66410  0.53900  0.49940  Biso   1.000  C
  C92      1.0000 0.66410  0.96100  0.99940  Biso   1.000  C
  H21      1.0000 0.36080  0.47660  0.45060  Biso   1.000  H
  H22      1.0000 0.36080  0.02340  0.95060  Biso   1.000  H
  H23      1.0000 0.63920  0.52340  0.54940  Biso   1.000  H
  H24      1.0000 0.63920  0.97660  0.04940  Biso   1.000  H
  H25      1.0000 0.30460  0.47090  0.46550  Biso   1.000  H
  H26      1.0000 0.30460  0.02910  0.96550  Biso   1.000  H
  H27      1.0000 0.69540  0.52910  0.53450  Biso   1.000  H
  H28      1.0000 0.69540  0.97090  0.03450  Biso   1.000  H
  H29      1.0000 0.33910  0.41080  0.51360  Biso   1.000  H
  H30      1.0000 0.33910  0.08920  0.01360  Biso   1.000  H
  H31      1.0000 0.66090  0.58920  0.48640  Biso   1.000  H
  H32      1.0000 0.66090  0.91080  0.98640  Biso   1.000  H
  C93      1.0000 0.33740  0.58150  0.59540  Biso   1.000  C
  C94      1.0000 0.33740  0.91850  0.09540  Biso   1.000  C
  C95      1.0000 0.66260  0.41850  0.40460  Biso   1.000  C
  C96      1.0000 0.66260  0.08150  0.90460  Biso   1.000  C
  H33      1.0000 0.36260  0.59650  0.54610  Biso   1.000  H
  H34      1.0000 0.36260  0.90350  0.04610  Biso   1.000  H
  H35      1.0000 0.63740  0.40350  0.45390  Biso   1.000  H
  H36      1.0000 0.63740  0.09650  0.95390  Biso   1.000  H
  H37      1.0000 0.34090  0.60590  0.66770  Biso   1.000  H
  H38      1.0000 0.34090  0.89410  0.16770  Biso   1.000  H
  H39      1.0000 0.65910  0.39410  0.33230  Biso   1.000  H
  H40      1.0000 0.65910  0.10590  0.83230  Biso   1.000  H
  H41      1.0000 0.30630  0.59250  0.56000  Biso   1.000  H
  H42      1.0000 0.30630  0.90750  0.06000  Biso   1.000  H
  H43      1.0000 0.69370  0.40750  0.44000  Biso   1.000  H
  H44      1.0000 0.69370  0.09250  0.94000  Biso   1.000  H
  C97      1.0000 0.44430  0.43050  0.80960  Biso   1.000  C
  C98      1.0000 0.44430  0.06950  0.30960  Biso   1.000  C
  C99      1.0000 0.55570  0.56950  0.19040  Biso   1.000  C
  C100     1.0000 0.55570  0.93050  0.69040  Biso   1.000  C
  H45      1.0000 0.47190  0.44500  0.76740  Biso   1.000  H
  H46      1.0000 0.47190  0.05500  0.26740  Biso   1.000  H
  H47      1.0000 0.52810  0.55500  0.23260  Biso   1.000  H
  H48      1.0000 0.52810  0.94500  0.73260  Biso   1.000  H
  H49      1.0000 0.43330  0.38480  0.78260  Biso   1.000  H
  H50      1.0000 0.43330  0.11520  0.28260  Biso   1.000  H
  H51      1.0000 0.56670  0.61520  0.21740  Biso   1.000  H
  H52      1.0000 0.56670  0.88480  0.71740  Biso   1.000  H
  H53      1.0000 0.45330  0.42750  0.88980  Biso   1.000  H
  H54      1.0000 0.45330  0.07250  0.38980  Biso   1.000  H
  H55      1.0000 0.54670  0.57250  0.11020  Biso   1.000  H
  H56      1.0000 0.54670  0.92750  0.61020  Biso   1.000  H
  C101     1.0000 0.42120  0.55980  0.82880  Biso   1.000  C
  C102     1.0000 0.42120  0.94020  0.32880  Biso   1.000  C
  C103     1.0000 0.57880  0.44020  0.17120  Biso   1.000  C
  C104     1.0000 0.57880  0.05980  0.67120  Biso   1.000  C
  H57      1.0000 0.44860  0.57290  0.78470  Biso   1.000  H
  H58      1.0000 0.44860  0.92710  0.28470  Biso   1.000  H
  H59      1.0000 0.55140  0.42710  0.21530  Biso   1.000  H
  H60      1.0000 0.55140  0.07290  0.71530  Biso   1.000  H
  H61      1.0000 0.43060  0.55930  0.90890  Biso   1.000  H
  H62      1.0000 0.43060  0.94070  0.40890  Biso   1.000  H
  H63      1.0000 0.56940  0.44070  0.09110  Biso   1.000  H
  H64      1.0000 0.56940  0.05930  0.59110  Biso   1.000  H
  H65      1.0000 0.39550  0.59360  0.81550  Biso   1.000  H
  H66      1.0000 0.39550  0.90640  0.31550  Biso   1.000  H
  H67      1.0000 0.60450  0.40640  0.18450  Biso   1.000  H
  H68      1.0000 0.60450  0.09360  0.68450  Biso   1.000  H
  C105     1.0000 0.26340  0.27120  0.24540  Biso   1.000  C
  C106     1.0000 0.26340  0.22880  0.74540  Biso   1.000  C
  C107     1.0000 0.73660  0.72880  0.75460  Biso   1.000  C
  C108     1.0000 0.73660  0.77120  0.25460  Biso   1.000  C
  C109     1.0000 0.28430  0.34070  0.20250  Biso   1.000  C
  C110     1.0000 0.28430  0.15930  0.70250  Biso   1.000  C
  C111     1.0000 0.71570  0.65930  0.79750  Biso   1.000  C
  C112     1.0000 0.71570  0.84070  0.29750  Biso   1.000  C
  H69      1.0000 0.30080  0.36480  0.26640  Biso   1.000  H
  H70      1.0000 0.30080  0.13520  0.76640  Biso   1.000  H
  H71      1.0000 0.69920  0.63520  0.73360  Biso   1.000  H
  H72      1.0000 0.69920  0.86480  0.23360  Biso   1.000  H
  H73      1.0000 0.30840  0.33010  0.14620  Biso   1.000  H
  H74      1.0000 0.30840  0.16990  0.64620  Biso   1.000  H
  H75      1.0000 0.69160  0.66990  0.85380  Biso   1.000  H
  H76      1.0000 0.69160  0.83010  0.35380  Biso   1.000  H
  C113     1.0000 0.24700  0.39010  0.14920  Biso   1.000  C
  C114     1.0000 0.24700  0.10990  0.64920  Biso   1.000  C
  C115     1.0000 0.75300  0.60990  0.85080  Biso   1.000  C
  C116     1.0000 0.75300  0.89010  0.35080  Biso   1.000  C
  H77      1.0000 0.23070  0.36760  0.08250  Biso   1.000  H
  H78      1.0000 0.23070  0.13240  0.58250  Biso   1.000  H
  H79      1.0000 0.76930  0.63240  0.91750  Biso   1.000  H
  H80      1.0000 0.76930  0.86760  0.41750  Biso   1.000  H
  C117     1.0000 0.21120  0.40770  0.23780  Biso   1.000  C
  C118     1.0000 0.21120  0.09230  0.73780  Biso   1.000  C
  C119     1.0000 0.78880  0.59230  0.76220  Biso   1.000  C
  C120     1.0000 0.78880  0.90770  0.26220  Biso   1.000  C
  H81      1.0000 0.18780  0.44120  0.20510  Biso   1.000  H
  H82      1.0000 0.18780  0.05880  0.70510  Biso   1.000  H
  H83      1.0000 0.81220  0.55880  0.79490  Biso   1.000  H
  H84      1.0000 0.81220  0.94120  0.29490  Biso   1.000  H
  H85      1.0000 0.22820  0.43120  0.30160  Biso   1.000  H
  H86      1.0000 0.22820  0.06880  0.80160  Biso   1.000  H
  H87      1.0000 0.77180  0.56880  0.69840  Biso   1.000  H
  H88      1.0000 0.77180  0.93120  0.19840  Biso   1.000  H
  C121     1.0000 0.18360  0.34350  0.28450  Biso   1.000  C
  C122     1.0000 0.18360  0.15650  0.78450  Biso   1.000  C
  C123     1.0000 0.81640  0.65650  0.71550  Biso   1.000  C
  C124     1.0000 0.81640  0.84350  0.21550  Biso   1.000  C
  C125     1.0000 0.25070  0.22010  0.14610  Biso   1.000  C
  C126     1.0000 0.25070  0.27990  0.64610  Biso   1.000  C
  C127     1.0000 0.74930  0.77990  0.85390  Biso   1.000  C
  C128     1.0000 0.74930  0.72010  0.35390  Biso   1.000  C
  H89      1.0000 0.23730  0.17710  0.17610  Biso   1.000  H
  H90      1.0000 0.23730  0.32290  0.67610  Biso   1.000  H
  H91      1.0000 0.76270  0.82290  0.82390  Biso   1.000  H
  H92      1.0000 0.76270  0.67710  0.32390  Biso   1.000  H
  H93      1.0000 0.27960  0.20910  0.10580  Biso   1.000  H
  H94      1.0000 0.27960  0.29090  0.60580  Biso   1.000  H
  H95      1.0000 0.72040  0.79090  0.89420  Biso   1.000  H
  H96      1.0000 0.72040  0.70910  0.39420  Biso   1.000  H
  H97      1.0000 0.22740  0.24210  0.09420  Biso   1.000  H
  H98      1.0000 0.22740  0.25790  0.59420  Biso   1.000  H
  H99      1.0000 0.77260  0.75790  0.90580  Biso   1.000  H
  H100     1.0000 0.77260  0.74210  0.40580  Biso   1.000  H
  C129     1.0000 0.29980  0.23510  0.32910  Biso   1.000  C
  C130     1.0000 0.29980  0.26490  0.82910  Biso   1.000  C
  C131     1.0000 0.70020  0.76490  0.67090  Biso   1.000  C
  C132     1.0000 0.70020  0.73510  0.17090  Biso   1.000  C
  H101     1.0000 0.28620  0.19150  0.35650  Biso   1.000  H
  H102     1.0000 0.28620  0.30850  0.85650  Biso   1.000  H
  H103     1.0000 0.71380  0.80850  0.64350  Biso   1.000  H
  H104     1.0000 0.71380  0.69150  0.14350  Biso   1.000  H
  H105     1.0000 0.30690  0.26610  0.39300  Biso   1.000  H
  H106     1.0000 0.30690  0.23390  0.89300  Biso   1.000  H
  H107     1.0000 0.69310  0.73390  0.60700  Biso   1.000  H
  H108     1.0000 0.69310  0.76610  0.10700  Biso   1.000  H
  H109     1.0000 0.32920  0.22490  0.29040  Biso   1.000  H
  H110     1.0000 0.32920  0.27510  0.79040  Biso   1.000  H
  H111     1.0000 0.67080  0.77510  0.70960  Biso   1.000  H
  H112     1.0000 0.67080  0.72490  0.20960  Biso   1.000  H
  C133     1.0000 0.14570  0.31770  0.19240  Biso   1.000  C
  C134     1.0000 0.14570  0.18230  0.69240  Biso   1.000  C
  C135     1.0000 0.85430  0.68230  0.80760  Biso   1.000  C
  C136     1.0000 0.85430  0.81770  0.30760  Biso   1.000  C
  H113     1.0000 0.12910  0.27680  0.22060  Biso   1.000  H
  H114     1.0000 0.12910  0.22320  0.72060  Biso   1.000  H
  H115     1.0000 0.87090  0.72320  0.77940  Biso   1.000  H
  H116     1.0000 0.87090  0.77680  0.27940  Biso   1.000  H
  H117     1.0000 0.16190  0.30540  0.12360  Biso   1.000  H
  H118     1.0000 0.16190  0.19460  0.62360  Biso   1.000  H
  H119     1.0000 0.83810  0.69460  0.87640  Biso   1.000  H
  H120     1.0000 0.83810  0.80540  0.37640  Biso   1.000  H
  H121     1.0000 0.12270  0.35500  0.17600  Biso   1.000  H
  H122     1.0000 0.12270  0.14500  0.67600  Biso   1.000  H
  H123     1.0000 0.87730  0.64500  0.82400  Biso   1.000  H
  H124     1.0000 0.87730  0.85500  0.32400  Biso   1.000  H
  C137     1.0000 0.16060  0.36390  0.39440  Biso   1.000  C
  C138     1.0000 0.16060  0.13610  0.89440  Biso   1.000  C
  C139     1.0000 0.83940  0.63610  0.60560  Biso   1.000  C
  C140     1.0000 0.83940  0.86390  0.10560  Biso   1.000  C
  H125     1.0000 0.14350  0.32370  0.42400  Biso   1.000  H
  H126     1.0000 0.14350  0.17630  0.92400  Biso   1.000  H
  H127     1.0000 0.85650  0.67630  0.57600  Biso   1.000  H
  H128     1.0000 0.85650  0.82370  0.07600  Biso   1.000  H
  H129     1.0000 0.13830  0.40230  0.38030  Biso   1.000  H
  H130     1.0000 0.13830  0.09770  0.88030  Biso   1.000  H
  H131     1.0000 0.86170  0.59770  0.61970  Biso   1.000  H
  H132     1.0000 0.86170  0.90230  0.11970  Biso   1.000  H
  H133     1.0000 0.18540  0.37860  0.44950  Biso   1.000  H
  H134     1.0000 0.18540  0.12140  0.94950  Biso   1.000  H
  H135     1.0000 0.81460  0.62140  0.55050  Biso   1.000  H
  H136     1.0000 0.81460  0.87860  0.05050  Biso   1.000  H
  C141     1.0000 0.36270  0.69360  0.20200  Biso   1.000  C
  C142     1.0000 0.36270  0.80640  0.70200  Biso   1.000  C
  C143     1.0000 0.63730  0.30640  0.79800  Biso   1.000  C
  C144     1.0000 0.63730  0.19360  0.29800  Biso   1.000  C
  C145     1.0000 0.34310  0.64930  0.10140  Biso   1.000  C
  C146     1.0000 0.34310  0.85070  0.60140  Biso   1.000  C
  C147     1.0000 0.65690  0.35070  0.89860  Biso   1.000  C
  C148     1.0000 0.65690  0.14930  0.39860  Biso   1.000  C
  H137     1.0000 0.34040  0.67930  0.03380  Biso   1.000  H
  H138     1.0000 0.34040  0.82070  0.53380  Biso   1.000  H
  H139     1.0000 0.65960  0.32070  0.96620  Biso   1.000  H
  H140     1.0000 0.65960  0.17930  0.46620  Biso   1.000  H
  H141     1.0000 0.36630  0.61200  0.08600  Biso   1.000  H
  H142     1.0000 0.36630  0.88800  0.58600  Biso   1.000  H
  H143     1.0000 0.63370  0.38800  0.91400  Biso   1.000  H
  H144     1.0000 0.63370  0.11200  0.41400  Biso   1.000  H
  C149     1.0000 0.29450  0.61580  0.12090  Biso   1.000  C
  C150     1.0000 0.29450  0.88420  0.62090  Biso   1.000  C
  C151     1.0000 0.70550  0.38420  0.87910  Biso   1.000  C
  C152     1.0000 0.70550  0.11580  0.37910  Biso   1.000  C
  H145     1.0000 0.29710  0.58310  0.18650  Biso   1.000  H
  H146     1.0000 0.29710  0.91690  0.68650  Biso   1.000  H
  H147     1.0000 0.70290  0.41690  0.81350  Biso   1.000  H
  H148     1.0000 0.70290  0.08310  0.31350  Biso   1.000  H
  C153     1.0000 0.25770  0.67310  0.14390  Biso   1.000  C
  C154     1.0000 0.25770  0.82690  0.64390  Biso   1.000  C
  C155     1.0000 0.74230  0.32690  0.85610  Biso   1.000  C
  C156     1.0000 0.74230  0.17310  0.35610  Biso   1.000  C
  H149     1.0000 0.22650  0.65110  0.15610  Biso   1.000  H
  H150     1.0000 0.22650  0.84890  0.65610  Biso   1.000  H
  H151     1.0000 0.77350  0.34890  0.84390  Biso   1.000  H
  H152     1.0000 0.77350  0.15110  0.34390  Biso   1.000  H
  H153     1.0000 0.25420  0.70340  0.07670  Biso   1.000  H
  H154     1.0000 0.25420  0.79660  0.57670  Biso   1.000  H
  H155     1.0000 0.74580  0.29660  0.92330  Biso   1.000  H
  H156     1.0000 0.74580  0.20340  0.42330  Biso   1.000  H
  C157     1.0000 0.27190  0.71910  0.24870  Biso   1.000  C
  C158     1.0000 0.27190  0.78090  0.74870  Biso   1.000  C
  C159     1.0000 0.72810  0.28090  0.75130  Biso   1.000  C
  C160     1.0000 0.72810  0.21910  0.25130  Biso   1.000  C
  C161     1.0000 0.38270  0.64800  0.30200  Biso   1.000  C
  C162     1.0000 0.38270  0.85200  0.80200  Biso   1.000  C
  C163     1.0000 0.61730  0.35200  0.69800  Biso   1.000  C
  C164     1.0000 0.61730  0.14800  0.19800  Biso   1.000  C
  H157     1.0000 0.39420  0.67840  0.36340  Biso   1.000  H
  H158     1.0000 0.39420  0.82160  0.86340  Biso   1.000  H
  H159     1.0000 0.60580  0.32160  0.63660  Biso   1.000  H
  H160     1.0000 0.60580  0.17840  0.13660  Biso   1.000  H
  H161     1.0000 0.40910  0.61940  0.27640  Biso   1.000  H
  H162     1.0000 0.40910  0.88060  0.77640  Biso   1.000  H
  H163     1.0000 0.59090  0.38060  0.72360  Biso   1.000  H
  H164     1.0000 0.59090  0.11940  0.22360  Biso   1.000  H
  H165     1.0000 0.35750  0.61780  0.32890  Biso   1.000  H
  H166     1.0000 0.35750  0.88220  0.82890  Biso   1.000  H
  H167     1.0000 0.64250  0.38220  0.67110  Biso   1.000  H
  H168     1.0000 0.64250  0.11780  0.17110  Biso   1.000  H
  C165     1.0000 0.40310  0.74190  0.16130  Biso   1.000  C
  C166     1.0000 0.40310  0.75810  0.66130  Biso   1.000  C
  C167     1.0000 0.59690  0.25810  0.83870  Biso   1.000  C
  C168     1.0000 0.59690  0.24190  0.33870  Biso   1.000  C
  H169     1.0000 0.41580  0.76950  0.22490  Biso   1.000  H
  H170     1.0000 0.41580  0.73050  0.72490  Biso   1.000  H
  H171     1.0000 0.58420  0.23050  0.77510  Biso   1.000  H
  H172     1.0000 0.58420  0.26950  0.27510  Biso   1.000  H
  H173     1.0000 0.39040  0.77310  0.10240  Biso   1.000  H
  H174     1.0000 0.39040  0.72690  0.60240  Biso   1.000  H
  H175     1.0000 0.60960  0.22690  0.89760  Biso   1.000  H
  H176     1.0000 0.60960  0.27310  0.39760  Biso   1.000  H
  H177     1.0000 0.42860  0.71340  0.13110  Biso   1.000  H
  H178     1.0000 0.42860  0.78660  0.63110  Biso   1.000  H
  H179     1.0000 0.57140  0.28660  0.86890  Biso   1.000  H
  H180     1.0000 0.57140  0.21340  0.36890  Biso   1.000  H
  C169     1.0000 0.26370  0.67910  0.36120  Biso   1.000  C
  C170     1.0000 0.26370  0.82090  0.86120  Biso   1.000  C
  C171     1.0000 0.73630  0.32090  0.63880  Biso   1.000  C
  C172     1.0000 0.73630  0.17910  0.13880  Biso   1.000  C
  H181     1.0000 0.28270  0.63630  0.36300  Biso   1.000  H
  H182     1.0000 0.28270  0.86370  0.86300  Biso   1.000  H
  H183     1.0000 0.71730  0.36370  0.63700  Biso   1.000  H
  H184     1.0000 0.71730  0.13630  0.13700  Biso   1.000  H
  H185     1.0000 0.22990  0.66720  0.36570  Biso   1.000  H
  H186     1.0000 0.22990  0.83280  0.86570  Biso   1.000  H
  H187     1.0000 0.77010  0.33280  0.63430  Biso   1.000  H
  H188     1.0000 0.77010  0.16720  0.13430  Biso   1.000  H
  H189     1.0000 0.27330  0.70870  0.42520  Biso   1.000  H
  H190     1.0000 0.27330  0.79130  0.92520  Biso   1.000  H
  H191     1.0000 0.72670  0.29130  0.57480  Biso   1.000  H
  H192     1.0000 0.72670  0.20870  0.07480  Biso   1.000  H
  C173     1.0000 0.24170  0.78610  0.24660  Biso   1.000  C
  C174     1.0000 0.24170  0.71390  0.74660  Biso   1.000  C
  C175     1.0000 0.75830  0.21390  0.75340  Biso   1.000  C
  C176     1.0000 0.75830  0.28610  0.25340  Biso   1.000  C
  H193     1.0000 0.25080  0.81510  0.31170  Biso   1.000  H
  H194     1.0000 0.25080  0.68490  0.81170  Biso   1.000  H
  H195     1.0000 0.74920  0.18490  0.68830  Biso   1.000  H
  H196     1.0000 0.74920  0.31510  0.18830  Biso   1.000  H
  H197     1.0000 0.20800  0.77380  0.24960  Biso   1.000  H
  H198     1.0000 0.20800  0.72620  0.74960  Biso   1.000  H
  H199     1.0000 0.79200  0.22620  0.75040  Biso   1.000  H
  H200     1.0000 0.79200  0.27380  0.25040  Biso   1.000  H
  H201     1.0000 0.24710  0.81190  0.17710  Biso   1.000  H
  H202     1.0000 0.24710  0.68810  0.67710  Biso   1.000  H
  H203     1.0000 0.75290  0.18810  0.82290  Biso   1.000  H
  H204     1.0000 0.75290  0.31190  0.32290  Biso   1.000  H
  C177     1.0000 0.98670  0.72200  0.53050  Biso   1.000  C
  C178     1.0000 0.98670  0.77800  0.03050  Biso   1.000  C
  C179     1.0000 0.01330  0.27800  0.46950  Biso   1.000  C
  C180     1.0000 0.01330  0.22200  0.96950  Biso   1.000  C
  C181     1.0000 0.00540  0.64940  0.48680  Biso   1.000  C
  C182     1.0000 0.00540  0.85060  0.98680  Biso   1.000  C
  C183     1.0000 0.99460  0.35060  0.51320  Biso   1.000  C
  C184     1.0000 0.99460  0.14940  0.01320  Biso   1.000  C
  C185     1.0000 0.04260  0.64960  0.41130  Biso   1.000  C
  C186     1.0000 0.04260  0.85040  0.91130  Biso   1.000  C
  C187     1.0000 0.95740  0.35040  0.58870  Biso   1.000  C
  C188     1.0000 0.95740  0.14960  0.08870  Biso   1.000  C
  H205     1.0000 0.05410  0.69260  0.38370  Biso   1.000  H
  H206     1.0000 0.05410  0.80740  0.88370  Biso   1.000  H
  H207     1.0000 0.94590  0.30740  0.61630  Biso   1.000  H
  H208     1.0000 0.94590  0.19260  0.11630  Biso   1.000  H
  C189     1.0000 0.06310  0.58660  0.37580  Biso   1.000  C
  C190     1.0000 0.06310  0.91340  0.87580  Biso   1.000  C
  C191     1.0000 0.93690  0.41340  0.62420  Biso   1.000  C
  C192     1.0000 0.93690  0.08660  0.12420  Biso   1.000  C
  C193     1.0000 0.10600  0.58990  0.28810  Biso   1.000  C
  C194     1.0000 0.10600  0.91010  0.78810  Biso   1.000  C
  C195     1.0000 0.89400  0.41010  0.71190  Biso   1.000  C
  C196     1.0000 0.89400  0.08990  0.21190  Biso   1.000  C
  C197     1.0000 0.57720  0.56300  0.80090  Biso   1.000  C
  C198     1.0000 0.57720  0.93700  0.30090  Biso   1.000  C
  C199     1.0000 0.42280  0.43700  0.19910  Biso   1.000  C
  C200     1.0000 0.42280  0.06300  0.69910  Biso   1.000  C
  C201     1.0000 0.55050  0.57060  0.68480  Biso   1.000  C
  C202     1.0000 0.55050  0.92940  0.18480  Biso   1.000  C
  C203     1.0000 0.44950  0.42940  0.31520  Biso   1.000  C
  C204     1.0000 0.44950  0.07060  0.81520  Biso   1.000  C
  C205     1.0000 0.54650  0.63650  0.63450  Biso   1.000  C
  C206     1.0000 0.54650  0.86350  0.13450  Biso   1.000  C
  C207     1.0000 0.45350  0.36350  0.36550  Biso   1.000  C
  C208     1.0000 0.45350  0.13650  0.86550  Biso   1.000  C
  H209     1.0000 0.56020  0.67540  0.67260  Biso   1.000  H
  H210     1.0000 0.56020  0.82460  0.17260  Biso   1.000  H
  H211     1.0000 0.43980  0.32460  0.32740  Biso   1.000  H
  H212     1.0000 0.43980  0.17540  0.82740  Biso   1.000  H
  C209     1.0000 0.52280  0.64680  0.52900  Biso   1.000  C
  C210     1.0000 0.52280  0.85320  0.02900  Biso   1.000  C
  C211     1.0000 0.47720  0.35320  0.47100  Biso   1.000  C
  C212     1.0000 0.47720  0.14680  0.97100  Biso   1.000  C
  C213     1.0000 0.52500  0.71960  0.47330  Biso   1.000  C
  C214     1.0000 0.52500  0.78040  0.97330  Biso   1.000  C
  C215     1.0000 0.47500  0.28040  0.52670  Biso   1.000  C
  C216     1.0000 0.47500  0.21960  0.02670  Biso   1.000  C
  F1       1.0000 0.99680  0.73080  0.63950  Biso   1.000  F
  F2       1.0000 0.99680  0.76920  0.13950  Biso   1.000  F
  F3       1.0000 0.00320  0.26920  0.36050  Biso   1.000  F
  F4       1.0000 0.00320  0.23080  0.86050  Biso   1.000  F
  F5       1.0000 0.96190  0.71660  0.62640  Biso   1.000  F
  F6       1.0000 0.96190  0.78340  0.12640  Biso   1.000  F
  F7       1.0000 0.03810  0.28340  0.37360  Biso   1.000  F
  F8       1.0000 0.03810  0.21660  0.87360  Biso   1.000  F
  F9       1.0000 0.00440  0.77630  0.47210  Biso   1.000  F
  F10      1.0000 0.00440  0.72370  0.97210  Biso   1.000  F
  F11      1.0000 0.99560  0.22370  0.52790  Biso   1.000  F
  F12      1.0000 0.99560  0.27630  0.02790  Biso   1.000  F
  F13      1.0000 0.02320  0.76450  0.55600  Biso   1.000  F
  F14      1.0000 0.02320  0.73550  0.05600  Biso   1.000  F
  F15      1.0000 0.97680  0.23550  0.44400  Biso   1.000  F
  F16      1.0000 0.97680  0.26450  0.94400  Biso   1.000  F
  F17      1.0000 0.93920  0.72680  0.51300  Biso   1.000  F
  F18      1.0000 0.93920  0.77320  0.01300  Biso   1.000  F
  F19      1.0000 0.06080  0.27320  0.48700  Biso   1.000  F
  F20      1.0000 0.06080  0.22680  0.98700  Biso   1.000  F
  F21      1.0000 0.95970  0.75150  0.45000  Biso   1.000  F
  F22      1.0000 0.95970  0.74850  0.95000  Biso   1.000  F
  F23      1.0000 0.04030  0.24850  0.55000  Biso   1.000  F
  F24      1.0000 0.04030  0.25150  0.05000  Biso   1.000  F
  F25      1.0000 0.14630  0.58080  0.35220  Biso   1.000  F
  F26      1.0000 0.14630  0.91920  0.85220  Biso   1.000  F
  F27      1.0000 0.85370  0.41920  0.64780  Biso   1.000  F
  F28      1.0000 0.85370  0.08080  0.14780  Biso   1.000  F
  F29      1.0000 0.13920  0.54600  0.30420  Biso   1.000  F
  F30      1.0000 0.13920  0.95400  0.80420  Biso   1.000  F
  F31      1.0000 0.86080  0.45400  0.69580  Biso   1.000  F
  F32      1.0000 0.86080  0.04600  0.19580  Biso   1.000  F
  F33      1.0000 0.10390  0.53540  0.21490  Biso   1.000  F
  F34      1.0000 0.10390  0.96460  0.71490  Biso   1.000  F
  F35      1.0000 0.89610  0.46460  0.78510  Biso   1.000  F
  F36      1.0000 0.89610  0.03540  0.28510  Biso   1.000  F
  F37      1.0000 0.08460  0.58780  0.18620  Biso   1.000  F
  F38      1.0000 0.08460  0.91220  0.68620  Biso   1.000  F
  F39      1.0000 0.91540  0.41220  0.81380  Biso   1.000  F
  F40      1.0000 0.91540  0.08780  0.31380  Biso   1.000  F
  F41      1.0000 0.10560  0.64810  0.22920  Biso   1.000  F
  F42      1.0000 0.10560  0.85190  0.72920  Biso   1.000  F
  F43      1.0000 0.89440  0.35190  0.77080  Biso   1.000  F
  F44      1.0000 0.89440  0.14810  0.27080  Biso   1.000  F
  F45      1.0000 0.12640  0.65630  0.29690  Biso   1.000  F
  F46      1.0000 0.12640  0.84370  0.79690  Biso   1.000  F
  F47      1.0000 0.87360  0.34370  0.70310  Biso   1.000  F
  F48      1.0000 0.87360  0.15630  0.20310  Biso   1.000  F
  F49      1.0000 0.61230  0.51800  0.80550  Biso   1.000  F
  F50      1.0000 0.61230  0.98200  0.30550  Biso   1.000  F
  F51      1.0000 0.38770  0.48200  0.19450  Biso   1.000  F
  F52      1.0000 0.38770  0.01800  0.69450  Biso   1.000  F
  F53      1.0000 0.62270  0.54040  0.78490  Biso   1.000  F
  F54      1.0000 0.62270  0.95960  0.28490  Biso   1.000  F
  F55      1.0000 0.37730  0.45960  0.21510  Biso   1.000  F
  F56      1.0000 0.37730  0.04040  0.71510  Biso   1.000  F
  F57      1.0000 0.54530  0.55000  0.87820  Biso   1.000  F
  F58      1.0000 0.54530  0.95000  0.37820  Biso   1.000  F
  F59      1.0000 0.45470  0.45000  0.12180  Biso   1.000  F
  F60      1.0000 0.45470  0.05000  0.62180  Biso   1.000  F
  F61      1.0000 0.55820  0.51010  0.86650  Biso   1.000  F
  F62      1.0000 0.55820  0.98990  0.36650  Biso   1.000  F
  F63      1.0000 0.44180  0.48990  0.13350  Biso   1.000  F
  F64      1.0000 0.44180  0.01010  0.63350  Biso   1.000  F
  F65      1.0000 0.59780  0.62690  0.83570  Biso   1.000  F
  F66      1.0000 0.59780  0.87310  0.33570  Biso   1.000  F
  F67      1.0000 0.40220  0.37310  0.16430  Biso   1.000  F
  F68      1.0000 0.40220  0.12690  0.66430  Biso   1.000  F
  F69      1.0000 0.57800  0.61790  0.86650  Biso   1.000  F
  F70      1.0000 0.57800  0.88210  0.36650  Biso   1.000  F
  F71      1.0000 0.42200  0.38210  0.13350  Biso   1.000  F
  F72      1.0000 0.42200  0.11790  0.63350  Biso   1.000  F
  F73      1.0000 0.54750  0.76780  0.53520  Biso   1.000  F
  F74      1.0000 0.54750  0.73220  0.03520  Biso   1.000  F
  F75      1.0000 0.45250  0.23220  0.46480  Biso   1.000  F
  F76      1.0000 0.45250  0.26780  0.96480  Biso   1.000  F
  F77      1.0000 0.52140  0.77190  0.54710  Biso   1.000  F
  F78      1.0000 0.52140  0.72810  0.04710  Biso   1.000  F
  F79      1.0000 0.47860  0.22810  0.45290  Biso   1.000  F
  F80      1.0000 0.47860  0.27190  0.95290  Biso   1.000  F
  F81      1.0000 0.47900  0.74070  0.44640  Biso   1.000  F
  F82      1.0000 0.47900  0.75930  0.94640  Biso   1.000  F
  F83      1.0000 0.52100  0.25930  0.55360  Biso   1.000  F
  F84      1.0000 0.52100  0.24070  0.05360  Biso   1.000  F
  F85      1.0000 0.49660  0.72860  0.38490  Biso   1.000  F
  F86      1.0000 0.49660  0.77140  0.88490  Biso   1.000  F
  F87      1.0000 0.50340  0.27140  0.61510  Biso   1.000  F
  F88      1.0000 0.50340  0.22860  0.11510  Biso   1.000  F
  F89      1.0000 0.54530  0.71940  0.37220  Biso   1.000  F
  F90      1.0000 0.54530  0.78060  0.87220  Biso   1.000  F
  F91      1.0000 0.45470  0.28060  0.62780  Biso   1.000  F
  F92      1.0000 0.45470  0.21940  0.12780  Biso   1.000  F
  F93      1.0000 0.57030  0.72540  0.42920  Biso   1.000  F
  F94      1.0000 0.57030  0.77460  0.92920  Biso   1.000  F
  F95      1.0000 0.42970  0.27460  0.57080  Biso   1.000  F
  F96      1.0000 0.42970  0.22540  0.07080  Biso   1.000  F
