data_image0
_cell_length_a       12.291
_cell_length_b       12.291
_cell_length_c       14.574
_cell_angle_alpha    90
_cell_angle_beta     90
_cell_angle_gamma    90

_symmetry_space_group_name_H-M    "P 1"
_symmetry_int_tables_number       1

loop_
  _symmetry_equiv_pos_as_xyz
  'x, y, z'

loop_
  _atom_site_label
  _atom_site_occupancy
  _atom_site_fract_x
  _atom_site_fract_y
  _atom_site_fract_z
  _atom_site_thermal_displace_type
  _atom_site_B_iso_or_equiv
  _atom_site_type_symbol
  Cu1      1.0000 0.25000  0.25000  0.25000  Biso   1.000  Cu
  Cu2      1.0000 0.75000  0.75000  0.75000  Biso   1.000  Cu
  O1       1.0000 0.25000  0.25000  0.08650  Biso   1.000  O
  O2       1.0000 0.75000  0.75000  0.58650  Biso   1.000  O
  O3       1.0000 0.75000  0.75000  0.91350  Biso   1.000  O
  O4       1.0000 0.25000  0.25000  0.41350  Biso   1.000  O
  H1       1.0000 0.32700  0.24200  0.05300  Biso   1.000  H
  H2       1.0000 0.75800  0.82700  0.55300  Biso   1.000  H
  H3       1.0000 0.74200  0.67300  0.55300  Biso   1.000  H
  H4       1.0000 0.82700  0.74200  0.94700  Biso   1.000  H
  H5       1.0000 0.67300  0.75800  0.94700  Biso   1.000  H
  H6       1.0000 0.24200  0.17300  0.44700  Biso   1.000  H
  H7       1.0000 0.25800  0.32700  0.44700  Biso   1.000  H
  H8       1.0000 0.17300  0.25800  0.05300  Biso   1.000  H
  N1       1.0000 0.37970  0.34590  0.23870  Biso   1.000  N
  N2       1.0000 0.65410  0.87970  0.73870  Biso   1.000  N
  N3       1.0000 0.84590  0.62030  0.73870  Biso   1.000  N
  N4       1.0000 0.87970  0.84590  0.76130  Biso   1.000  N
  N5       1.0000 0.62030  0.65410  0.76130  Biso   1.000  N
  N6       1.0000 0.34590  0.12030  0.26130  Biso   1.000  N
  N7       1.0000 0.15410  0.37970  0.26130  Biso   1.000  N
  N8       1.0000 0.12030  0.15410  0.23870  Biso   1.000  N
  C1       1.0000 0.37590  0.44280  0.18380  Biso   1.000  C
  C2       1.0000 0.55720  0.87590  0.68380  Biso   1.000  C
  C3       1.0000 0.94280  0.62410  0.68380  Biso   1.000  C
  C4       1.0000 0.87590  0.94280  0.81620  Biso   1.000  C
  C5       1.0000 0.62410  0.55720  0.81620  Biso   1.000  C
  C6       1.0000 0.44280  0.12410  0.31620  Biso   1.000  C
  C7       1.0000 0.05720  0.37590  0.31620  Biso   1.000  C
  C8       1.0000 0.12410  0.05720  0.18380  Biso   1.000  C
  C9       1.0000 0.46630  0.48360  0.13930  Biso   1.000  C
  C10      1.0000 0.51640  0.96630  0.63930  Biso   1.000  C
  C11      1.0000 0.98360  0.53370  0.63930  Biso   1.000  C
  C12      1.0000 0.96630  0.98360  0.86070  Biso   1.000  C
  C13      1.0000 0.53370  0.51640  0.86070  Biso   1.000  C
  C14      1.0000 0.48360  0.03370  0.36070  Biso   1.000  C
  C15      1.0000 0.01640  0.46630  0.36070  Biso   1.000  C
  C16      1.0000 0.03370  0.01640  0.13930  Biso   1.000  C
  H9       1.0000 0.53290  0.44830  0.14540  Biso   1.000  H
  H10      1.0000 0.55170  0.03290  0.64540  Biso   1.000  H
  H11      1.0000 0.94830  0.46710  0.64540  Biso   1.000  H
  H12      1.0000 0.03290  0.94830  0.85460  Biso   1.000  H
  H13      1.0000 0.46710  0.55170  0.85460  Biso   1.000  H
  H14      1.0000 0.44830  0.96710  0.35460  Biso   1.000  H
  H15      1.0000 0.05170  0.53290  0.35460  Biso   1.000  H
  H16      1.0000 0.96710  0.05170  0.14540  Biso   1.000  H
  C17      1.0000 0.45910  0.57620  0.08600  Biso   1.000  C
  C18      1.0000 0.42380  0.95910  0.58600  Biso   1.000  C
  C19      1.0000 0.07620  0.54090  0.58600  Biso   1.000  C
  C20      1.0000 0.95910  0.07620  0.91400  Biso   1.000  C
  C21      1.0000 0.54090  0.42380  0.91400  Biso   1.000  C
  C22      1.0000 0.57620  0.04090  0.41400  Biso   1.000  C
  C23      1.0000 0.92380  0.45910  0.41400  Biso   1.000  C
  C24      1.0000 0.04090  0.92380  0.08600  Biso   1.000  C
  H17      1.0000 0.52100  0.60410  0.05780  Biso   1.000  H
  H18      1.0000 0.39590  0.02100  0.55780  Biso   1.000  H
  H19      1.0000 0.10410  0.47900  0.55780  Biso   1.000  H
  H20      1.0000 0.02100  0.10410  0.94220  Biso   1.000  H
  H21      1.0000 0.47900  0.39590  0.94220  Biso   1.000  H
  H22      1.0000 0.60410  0.97900  0.44220  Biso   1.000  H
  H23      1.0000 0.89590  0.52100  0.44220  Biso   1.000  H
  H24      1.0000 0.97900  0.89590  0.05780  Biso   1.000  H
  C25      1.0000 0.36050  0.62680  0.07450  Biso   1.000  C
  C26      1.0000 0.37320  0.86050  0.57450  Biso   1.000  C
  C27      1.0000 0.12680  0.63950  0.57450  Biso   1.000  C
  C28      1.0000 0.86050  0.12680  0.92550  Biso   1.000  C
  C29      1.0000 0.63950  0.37320  0.92550  Biso   1.000  C
  C30      1.0000 0.62680  0.13950  0.42550  Biso   1.000  C
  C31      1.0000 0.87320  0.36050  0.42550  Biso   1.000  C
  C32      1.0000 0.13950  0.87320  0.07450  Biso   1.000  C
  H25      1.0000 0.35530  0.68840  0.03780  Biso   1.000  H
  H26      1.0000 0.31160  0.85530  0.53780  Biso   1.000  H
  H27      1.0000 0.18840  0.64470  0.53780  Biso   1.000  H
  H28      1.0000 0.85530  0.18840  0.96220  Biso   1.000  H
  H29      1.0000 0.64470  0.31160  0.96220  Biso   1.000  H
  H30      1.0000 0.68840  0.14470  0.46220  Biso   1.000  H
  H31      1.0000 0.81160  0.35530  0.46220  Biso   1.000  H
  H32      1.0000 0.14470  0.81160  0.03780  Biso   1.000  H
  C33      1.0000 0.27020  0.58670  0.11720  Biso   1.000  C
  C34      1.0000 0.41330  0.77020  0.61720  Biso   1.000  C
  C35      1.0000 0.08670  0.72980  0.61720  Biso   1.000  C
  C36      1.0000 0.77020  0.08670  0.88280  Biso   1.000  C
  C37      1.0000 0.72980  0.41330  0.88280  Biso   1.000  C
  C38      1.0000 0.58670  0.22980  0.38280  Biso   1.000  C
  C39      1.0000 0.91330  0.27020  0.38280  Biso   1.000  C
  C40      1.0000 0.22980  0.91330  0.11720  Biso   1.000  C
  H33      1.0000 0.20380  0.62170  0.10900  Biso   1.000  H
  H34      1.0000 0.37830  0.70380  0.60900  Biso   1.000  H
  H35      1.0000 0.12170  0.79620  0.60900  Biso   1.000  H
  H36      1.0000 0.70380  0.12170  0.89100  Biso   1.000  H
  H37      1.0000 0.79620  0.37830  0.89100  Biso   1.000  H
  H38      1.0000 0.62170  0.29620  0.39100  Biso   1.000  H
  H39      1.0000 0.87830  0.20380  0.39100  Biso   1.000  H
  H40      1.0000 0.29620  0.87830  0.10900  Biso   1.000  H
  C41      1.0000 0.27470  0.49490  0.17240  Biso   1.000  C
  C42      1.0000 0.50510  0.77470  0.67240  Biso   1.000  C
  C43      1.0000 0.99490  0.72530  0.67240  Biso   1.000  C
  C44      1.0000 0.77470  0.99490  0.82760  Biso   1.000  C
  C45      1.0000 0.72530  0.50510  0.82760  Biso   1.000  C
  C46      1.0000 0.49490  0.22530  0.32760  Biso   1.000  C
  C47      1.0000 0.00510  0.27470  0.32760  Biso   1.000  C
  C48      1.0000 0.22530  0.00510  0.17240  Biso   1.000  C
  C49      1.0000 0.46720  0.32790  0.28010  Biso   1.000  C
  C50      1.0000 0.67210  0.96720  0.78010  Biso   1.000  C
  C51      1.0000 0.82790  0.53280  0.78010  Biso   1.000  C
  C52      1.0000 0.96720  0.82790  0.71990  Biso   1.000  C
  C53      1.0000 0.53280  0.67210  0.71990  Biso   1.000  C
  C54      1.0000 0.32790  0.03280  0.21990  Biso   1.000  C
  C55      1.0000 0.17210  0.46720  0.21990  Biso   1.000  C
  C56      1.0000 0.03280  0.17210  0.28010  Biso   1.000  C
  H41      1.0000 0.51870  0.38330  0.28100  Biso   1.000  H
  H42      1.0000 0.61670  0.01870  0.78100  Biso   1.000  H
  H43      1.0000 0.88330  0.48130  0.78100  Biso   1.000  H
  H44      1.0000 0.01870  0.88330  0.71900  Biso   1.000  H
  H45      1.0000 0.48130  0.61670  0.71900  Biso   1.000  H
  H46      1.0000 0.38330  0.98130  0.21900  Biso   1.000  H
  H47      1.0000 0.11670  0.51870  0.21900  Biso   1.000  H
  H48      1.0000 0.98130  0.11670  0.28100  Biso   1.000  H
  O5       1.0000 0.04720  0.28690  0.01600  Biso   1.000  O
  O6       1.0000 0.71310  0.54720  0.51600  Biso   1.000  O
  O7       1.0000 0.78690  0.95280  0.51600  Biso   1.000  O
  O8       1.0000 0.54720  0.78690  0.98400  Biso   1.000  O
  O9       1.0000 0.95280  0.71310  0.98400  Biso   1.000  O
  O10      1.0000 0.28690  0.45280  0.48400  Biso   1.000  O
  O11      1.0000 0.21310  0.04720  0.48400  Biso   1.000  O
  O12      1.0000 0.45280  0.21310  0.01600  Biso   1.000  O
  O13      1.0000 0.72580  0.34820  0.22250  Biso   1.000  O
  O14      1.0000 0.65180  0.22580  0.72250  Biso   1.000  O
  O15      1.0000 0.84820  0.27420  0.72250  Biso   1.000  O
  O16      1.0000 0.22580  0.84820  0.77750  Biso   1.000  O
  O17      1.0000 0.27420  0.65180  0.77750  Biso   1.000  O
  O18      1.0000 0.34820  0.77420  0.27750  Biso   1.000  O
  O19      1.0000 0.15180  0.72580  0.27750  Biso   1.000  O
  O20      1.0000 0.77420  0.15180  0.22250  Biso   1.000  O
  H49      1.0000 0.75000  0.25000  0.22700  Biso   1.000  H
  H50      1.0000 0.75000  0.25000  0.72700  Biso   1.000  H
  H51      1.0000 0.25000  0.75000  0.77300  Biso   1.000  H
  H52      1.0000 0.25000  0.75000  0.27300  Biso   1.000  H
  C57      1.0000 0.87410  0.36800  0.11830  Biso   1.000  C
  C58      1.0000 0.63200  0.37410  0.61830  Biso   1.000  C
  C59      1.0000 0.86800  0.12590  0.61830  Biso   1.000  C
  C60      1.0000 0.37410  0.86800  0.88170  Biso   1.000  C
  C61      1.0000 0.12590  0.63200  0.88170  Biso   1.000  C
  C62      1.0000 0.36800  0.62590  0.38170  Biso   1.000  C
  C63      1.0000 0.13200  0.87410  0.38170  Biso   1.000  C
  C64      1.0000 0.62590  0.13200  0.11830  Biso   1.000  C
  H53      1.0000 0.88960  0.29410  0.12140  Biso   1.000  H
  H54      1.0000 0.70590  0.38960  0.62140  Biso   1.000  H
  H55      1.0000 0.79410  0.11040  0.62140  Biso   1.000  H
  H56      1.0000 0.38960  0.79410  0.87860  Biso   1.000  H
  H57      1.0000 0.11040  0.70590  0.87860  Biso   1.000  H
  H58      1.0000 0.29410  0.61040  0.37860  Biso   1.000  H
  H59      1.0000 0.20590  0.88960  0.37860  Biso   1.000  H
  H60      1.0000 0.61040  0.20590  0.12140  Biso   1.000  H
  C65      1.0000 0.78870  0.40970  0.17140  Biso   1.000  C
  C66      1.0000 0.59030  0.28870  0.67140  Biso   1.000  C
  C67      1.0000 0.90970  0.21130  0.67140  Biso   1.000  C
  C68      1.0000 0.28870  0.90970  0.82860  Biso   1.000  C
  C69      1.0000 0.21130  0.59030  0.82860  Biso   1.000  C
  C70      1.0000 0.40970  0.71130  0.32860  Biso   1.000  C
  C71      1.0000 0.09030  0.78870  0.32860  Biso   1.000  C
  C72      1.0000 0.71130  0.09030  0.17140  Biso   1.000  C
  C73      1.0000 0.22860  0.47700  0.83130  Biso   1.000  C
  C74      1.0000 0.52300  0.72860  0.33130  Biso   1.000  C
  C75      1.0000 0.97700  0.77140  0.33130  Biso   1.000  C
  C76      1.0000 0.72860  0.97700  0.16870  Biso   1.000  C
  C77      1.0000 0.77140  0.52300  0.16870  Biso   1.000  C
  C78      1.0000 0.47700  0.27140  0.66870  Biso   1.000  C
  C79      1.0000 0.02300  0.22860  0.66870  Biso   1.000  C
  C80      1.0000 0.27140  0.02300  0.83130  Biso   1.000  C
  H61      1.0000 0.71780  0.55380  0.20550  Biso   1.000  H
  H62      1.0000 0.44620  0.21780  0.70550  Biso   1.000  H
  H63      1.0000 0.05380  0.28220  0.70550  Biso   1.000  H
  H64      1.0000 0.21780  0.05380  0.79450  Biso   1.000  H
  H65      1.0000 0.28220  0.44620  0.79450  Biso   1.000  H
  H66      1.0000 0.55380  0.78220  0.29450  Biso   1.000  H
  H67      1.0000 0.94620  0.71780  0.29450  Biso   1.000  H
  H68      1.0000 0.78220  0.94620  0.20550  Biso   1.000  H
  C81      1.0000 0.16750  0.41160  0.88750  Biso   1.000  C
  C82      1.0000 0.58840  0.66750  0.38750  Biso   1.000  C
  C83      1.0000 0.91160  0.83250  0.38750  Biso   1.000  C
  C84      1.0000 0.66750  0.91160  0.11250  Biso   1.000  C
  C85      1.0000 0.83250  0.58840  0.11250  Biso   1.000  C
  C86      1.0000 0.41160  0.33250  0.61250  Biso   1.000  C
  C87      1.0000 0.08840  0.16750  0.61250  Biso   1.000  C
  C88      1.0000 0.33250  0.08840  0.88750  Biso   1.000  C
  H69      1.0000 0.81870  0.66280  0.11140  Biso   1.000  H
  H70      1.0000 0.33720  0.31870  0.61140  Biso   1.000  H
  H71      1.0000 0.16280  0.18130  0.61140  Biso   1.000  H
  H72      1.0000 0.31870  0.16280  0.88860  Biso   1.000  H
  H73      1.0000 0.18130  0.33720  0.88860  Biso   1.000  H
  H74      1.0000 0.66280  0.68130  0.38860  Biso   1.000  H
  H75      1.0000 0.83720  0.81870  0.38860  Biso   1.000  H
  H76      1.0000 0.68130  0.83720  0.11140  Biso   1.000  H
  C89      1.0000 0.02530  0.38440  0.00650  Biso   1.000  C
  C90      1.0000 0.61560  0.52530  0.50650  Biso   1.000  C
  C91      1.0000 0.88440  0.97470  0.50650  Biso   1.000  C
  C92      1.0000 0.52530  0.88440  0.99350  Biso   1.000  C
  C93      1.0000 0.97470  0.61560  0.99350  Biso   1.000  C
  C94      1.0000 0.38440  0.47470  0.49350  Biso   1.000  C
  C95      1.0000 0.11560  0.02530  0.49350  Biso   1.000  C
  C96      1.0000 0.47470  0.11560  0.00650  Biso   1.000  C
  C97      1.0000 0.93610  0.43350  0.06140  Biso   1.000  C
  C98      1.0000 0.56650  0.43610  0.56140  Biso   1.000  C
  C99      1.0000 0.93350  0.06390  0.56140  Biso   1.000  C
  C100     1.0000 0.43610  0.93350  0.93860  Biso   1.000  C
  C101     1.0000 0.06390  0.56650  0.93860  Biso   1.000  C
  C102     1.0000 0.43350  0.56390  0.43860  Biso   1.000  C
  C103     1.0000 0.06650  0.93610  0.43860  Biso   1.000  C
  C104     1.0000 0.56390  0.06650  0.06140  Biso   1.000  C
  C105     1.0000 0.08520  0.45410  0.94300  Biso   1.000  C
  C106     1.0000 0.54590  0.58520  0.44300  Biso   1.000  C
  C107     1.0000 0.95410  0.91480  0.44300  Biso   1.000  C
  C108     1.0000 0.58520  0.95410  0.05700  Biso   1.000  C
  C109     1.0000 0.91480  0.54590  0.05700  Biso   1.000  C
  C110     1.0000 0.45410  0.41480  0.55700  Biso   1.000  C
  C111     1.0000 0.04590  0.08520  0.55700  Biso   1.000  C
  C112     1.0000 0.41480  0.04590  0.94300  Biso   1.000  C
