data_image0
_cell_length_a       10.718
_cell_length_b       14.292
_cell_length_c       12.192
_cell_angle_alpha    90
_cell_angle_beta     101.119
_cell_angle_gamma    90

_symmetry_space_group_name_H-M    "P 1"
_symmetry_int_tables_number       1

loop_
  _symmetry_equiv_pos_as_xyz
  'x, y, z'

loop_
  _atom_site_label
  _atom_site_occupancy
  _atom_site_fract_x
  _atom_site_fract_y
  _atom_site_fract_z
  _atom_site_thermal_displace_type
  _atom_site_B_iso_or_equiv
  _atom_site_type_symbol
  Cu1      1.0000 0.00000  0.45912  0.25000  Biso   1.000  Cu
  Cu2      1.0000 0.50000  0.95912  0.25000  Biso   1.000  Cu
  Cu3      1.0000 0.00000  0.54088  0.75000  Biso   1.000  Cu
  Cu4      1.0000 0.50000  0.04088  0.75000  Biso   1.000  Cu
  N1       1.0000 0.04290  0.35303  0.35841  Biso   1.000  N
  N2       1.0000 0.54290  0.85303  0.35841  Biso   1.000  N
  N3       1.0000 0.04290  0.64697  0.85841  Biso   1.000  N
  N4       1.0000 0.54290  0.14697  0.85841  Biso   1.000  N
  N5       1.0000 0.95710  0.64697  0.64159  Biso   1.000  N
  N6       1.0000 0.45710  0.14697  0.64159  Biso   1.000  N
  N7       1.0000 0.95710  0.35303  0.14159  Biso   1.000  N
  N8       1.0000 0.45710  0.85303  0.14159  Biso   1.000  N
  O1       1.0000 0.92329  0.55613  0.14804  Biso   1.000  O
  O2       1.0000 0.42329  0.05613  0.14804  Biso   1.000  O
  O3       1.0000 0.92329  0.44387  0.64804  Biso   1.000  O
  O4       1.0000 0.42329  0.94387  0.64804  Biso   1.000  O
  O5       1.0000 0.07671  0.44387  0.85196  Biso   1.000  O
  O6       1.0000 0.57671  0.94387  0.85196  Biso   1.000  O
  O7       1.0000 0.07671  0.55613  0.35196  Biso   1.000  O
  O8       1.0000 0.57671  0.05613  0.35196  Biso   1.000  O
  O9       1.0000 0.72008  0.51031  0.09839  Biso   1.000  O
  O10      1.0000 0.22008  0.01031  0.09839  Biso   1.000  O
  O11      1.0000 0.72008  0.48969  0.59839  Biso   1.000  O
  O12      1.0000 0.22008  0.98969  0.59839  Biso   1.000  O
  O13      1.0000 0.27992  0.48969  0.90161  Biso   1.000  O
  O14      1.0000 0.77992  0.98969  0.90161  Biso   1.000  O
  O15      1.0000 0.27992  0.51031  0.40161  Biso   1.000  O
  O16      1.0000 0.77992  0.01031  0.40161  Biso   1.000  O
  O17      1.0000 0.69090  0.61365  0.74482  Biso   1.000  O
  O18      1.0000 0.19090  0.11365  0.74482  Biso   1.000  O
  O19      1.0000 0.69090  0.38635  0.24482  Biso   1.000  O
  O20      1.0000 0.19090  0.88635  0.24482  Biso   1.000  O
  O21      1.0000 0.30910  0.38635  0.25518  Biso   1.000  O
  O22      1.0000 0.80910  0.88635  0.25518  Biso   1.000  O
  O23      1.0000 0.30910  0.61365  0.75518  Biso   1.000  O
  O24      1.0000 0.80910  0.11365  0.75518  Biso   1.000  O
  O25      1.0000 0.81070  0.52529  0.87187  Biso   1.000  O
  O26      1.0000 0.31070  0.02529  0.87187  Biso   1.000  O
  O27      1.0000 0.81070  0.47471  0.37187  Biso   1.000  O
  O28      1.0000 0.31070  0.97471  0.37187  Biso   1.000  O
  O29      1.0000 0.18930  0.47471  0.12813  Biso   1.000  O
  O30      1.0000 0.68930  0.97471  0.12813  Biso   1.000  O
  O31      1.0000 0.18930  0.52529  0.62813  Biso   1.000  O
  O32      1.0000 0.68930  0.02529  0.62813  Biso   1.000  O
  C1       1.0000 0.80900  0.56568  0.09910  Biso   1.000  C
  C2       1.0000 0.30900  0.06568  0.09910  Biso   1.000  C
  C3       1.0000 0.80900  0.43432  0.59910  Biso   1.000  C
  C4       1.0000 0.30900  0.93432  0.59910  Biso   1.000  C
  C5       1.0000 0.19100  0.43432  0.90090  Biso   1.000  C
  C6       1.0000 0.69100  0.93432  0.90090  Biso   1.000  C
  C7       1.0000 0.19100  0.56568  0.40090  Biso   1.000  C
  C8       1.0000 0.69100  0.06568  0.40090  Biso   1.000  C
  C9       1.0000 0.78010  0.65964  0.04280  Biso   1.000  C
  C10      1.0000 0.28010  0.15964  0.04280  Biso   1.000  C
  C11      1.0000 0.78010  0.34036  0.54280  Biso   1.000  C
  C12      1.0000 0.28010  0.84036  0.54280  Biso   1.000  C
  C13      1.0000 0.21990  0.34036  0.95720  Biso   1.000  C
  C14      1.0000 0.71990  0.84036  0.95720  Biso   1.000  C
  C15      1.0000 0.21990  0.65964  0.45720  Biso   1.000  C
  C16      1.0000 0.71990  0.15964  0.45720  Biso   1.000  C
  C17      1.0000 0.78460  0.73627  0.11280  Biso   1.000  C
  C18      1.0000 0.28460  0.23627  0.11280  Biso   1.000  C
  C19      1.0000 0.78460  0.26373  0.61280  Biso   1.000  C
  C20      1.0000 0.28460  0.76373  0.61280  Biso   1.000  C
  C21      1.0000 0.21540  0.26373  0.88720  Biso   1.000  C
  C22      1.0000 0.71540  0.76373  0.88720  Biso   1.000  C
  C23      1.0000 0.21540  0.73627  0.38720  Biso   1.000  C
  C24      1.0000 0.71540  0.23627  0.38720  Biso   1.000  C
  H1       1.0000 0.80850  0.72720  0.18950  Biso   1.000  H
  H2       1.0000 0.30850  0.22720  0.18950  Biso   1.000  H
  H3       1.0000 0.80850  0.27280  0.68950  Biso   1.000  H
  H4       1.0000 0.30850  0.77280  0.68950  Biso   1.000  H
  H5       1.0000 0.19150  0.27280  0.81050  Biso   1.000  H
  H6       1.0000 0.69150  0.77280  0.81050  Biso   1.000  H
  H7       1.0000 0.19150  0.72720  0.31050  Biso   1.000  H
  H8       1.0000 0.69150  0.22720  0.31050  Biso   1.000  H
  C25      1.0000 0.74520  0.67375  0.92700  Biso   1.000  C
  C26      1.0000 0.24520  0.17375  0.92700  Biso   1.000  C
  C27      1.0000 0.74520  0.32625  0.42700  Biso   1.000  C
  C28      1.0000 0.24520  0.82625  0.42700  Biso   1.000  C
  C29      1.0000 0.25480  0.32625  0.07300  Biso   1.000  C
  C30      1.0000 0.75480  0.82625  0.07300  Biso   1.000  C
  C31      1.0000 0.25480  0.67375  0.57300  Biso   1.000  C
  C32      1.0000 0.75480  0.17375  0.57300  Biso   1.000  C
  C33      1.0000 0.75070  0.59581  0.84710  Biso   1.000  C
  C34      1.0000 0.25070  0.09581  0.84710  Biso   1.000  C
  C35      1.0000 0.75070  0.40419  0.34710  Biso   1.000  C
  C36      1.0000 0.25070  0.90419  0.34710  Biso   1.000  C
  C37      1.0000 0.24930  0.40419  0.15290  Biso   1.000  C
  C38      1.0000 0.74930  0.90419  0.15290  Biso   1.000  C
  C39      1.0000 0.24930  0.59581  0.65290  Biso   1.000  C
  C40      1.0000 0.74930  0.09581  0.65290  Biso   1.000  C
  C41      1.0000 0.07720  0.35620  0.46860  Biso   1.000  C
  C42      1.0000 0.57720  0.85620  0.46860  Biso   1.000  C
  C43      1.0000 0.07720  0.64380  0.96860  Biso   1.000  C
  C44      1.0000 0.57720  0.14380  0.96860  Biso   1.000  C
  C45      1.0000 0.92280  0.64380  0.53140  Biso   1.000  C
  C46      1.0000 0.42280  0.14380  0.53140  Biso   1.000  C
  C47      1.0000 0.92280  0.35620  0.03140  Biso   1.000  C
  C48      1.0000 0.42280  0.85620  0.03140  Biso   1.000  C
  H9       1.0000 0.09120  0.41400  0.50390  Biso   1.000  H
  H10      1.0000 0.59120  0.91400  0.50390  Biso   1.000  H
  H11      1.0000 0.09120  0.58600  0.00390  Biso   1.000  H
  H12      1.0000 0.59120  0.08600  0.00390  Biso   1.000  H
  H13      1.0000 0.90880  0.58600  0.49610  Biso   1.000  H
  H14      1.0000 0.40880  0.08600  0.49610  Biso   1.000  H
  H15      1.0000 0.90880  0.41400  0.99610  Biso   1.000  H
  H16      1.0000 0.40880  0.91400  0.99610  Biso   1.000  H
  C49      1.0000 0.09300  0.27480  0.53330  Biso   1.000  C
  C50      1.0000 0.59300  0.77480  0.53330  Biso   1.000  C
  C51      1.0000 0.09300  0.72520  0.03330  Biso   1.000  C
  C52      1.0000 0.59300  0.22520  0.03330  Biso   1.000  C
  C53      1.0000 0.90700  0.72520  0.46670  Biso   1.000  C
  C54      1.0000 0.40700  0.22520  0.46670  Biso   1.000  C
  C55      1.0000 0.90700  0.27480  0.96670  Biso   1.000  C
  C56      1.0000 0.40700  0.77480  0.96670  Biso   1.000  C
  H17      1.0000 0.11570  0.27910  0.61070  Biso   1.000  H
  H18      1.0000 0.61570  0.77910  0.61070  Biso   1.000  H
  H19      1.0000 0.11570  0.72090  0.11070  Biso   1.000  H
  H20      1.0000 0.61570  0.22090  0.11070  Biso   1.000  H
  H21      1.0000 0.88430  0.72090  0.38930  Biso   1.000  H
  H22      1.0000 0.38430  0.22090  0.38930  Biso   1.000  H
  H23      1.0000 0.88430  0.27910  0.88930  Biso   1.000  H
  H24      1.0000 0.38430  0.77910  0.88930  Biso   1.000  H
  C57      1.0000 0.07550  0.19010  0.48390  Biso   1.000  C
  C58      1.0000 0.57550  0.69010  0.48390  Biso   1.000  C
  C59      1.0000 0.07550  0.80990  0.98390  Biso   1.000  C
  C60      1.0000 0.57550  0.30990  0.98390  Biso   1.000  C
  C61      1.0000 0.92450  0.80990  0.51610  Biso   1.000  C
  C62      1.0000 0.42450  0.30990  0.51610  Biso   1.000  C
  C63      1.0000 0.92450  0.19010  0.01610  Biso   1.000  C
  C64      1.0000 0.42450  0.69010  0.01610  Biso   1.000  C
  H25      1.0000 0.08760  0.13610  0.52720  Biso   1.000  H
  H26      1.0000 0.58760  0.63610  0.52720  Biso   1.000  H
  H27      1.0000 0.08760  0.86390  0.02720  Biso   1.000  H
  H28      1.0000 0.58760  0.36390  0.02720  Biso   1.000  H
  H29      1.0000 0.91240  0.86390  0.47280  Biso   1.000  H
  H30      1.0000 0.41240  0.36390  0.47280  Biso   1.000  H
  H31      1.0000 0.91240  0.13610  0.97280  Biso   1.000  H
  H32      1.0000 0.41240  0.63610  0.97280  Biso   1.000  H
  C65      1.0000 0.03910  0.18340  0.36780  Biso   1.000  C
  C66      1.0000 0.53910  0.68340  0.36780  Biso   1.000  C
  C67      1.0000 0.03910  0.81660  0.86780  Biso   1.000  C
  C68      1.0000 0.53910  0.31660  0.86780  Biso   1.000  C
  C69      1.0000 0.96090  0.81660  0.63220  Biso   1.000  C
  C70      1.0000 0.46090  0.31660  0.63220  Biso   1.000  C
  C71      1.0000 0.96090  0.18340  0.13220  Biso   1.000  C
  C72      1.0000 0.46090  0.68340  0.13220  Biso   1.000  C
  C73      1.0000 0.02150  0.26828  0.30920  Biso   1.000  C
  C74      1.0000 0.52150  0.76828  0.30920  Biso   1.000  C
  C75      1.0000 0.02150  0.73172  0.80920  Biso   1.000  C
  C76      1.0000 0.52150  0.23172  0.80920  Biso   1.000  C
  C77      1.0000 0.97850  0.73172  0.69080  Biso   1.000  C
  C78      1.0000 0.47850  0.23172  0.69080  Biso   1.000  C
  C79      1.0000 0.97850  0.26828  0.19080  Biso   1.000  C
  C80      1.0000 0.47850  0.76828  0.19080  Biso   1.000  C
  C81      1.0000 0.01810  0.09850  0.30560  Biso   1.000  C
  C82      1.0000 0.51810  0.59850  0.30560  Biso   1.000  C
  C83      1.0000 0.01810  0.90150  0.80560  Biso   1.000  C
  C84      1.0000 0.51810  0.40150  0.80560  Biso   1.000  C
  C85      1.0000 0.98190  0.90150  0.69440  Biso   1.000  C
  C86      1.0000 0.48190  0.40150  0.69440  Biso   1.000  C
  C87      1.0000 0.98190  0.09850  0.19440  Biso   1.000  C
  C88      1.0000 0.48190  0.59850  0.19440  Biso   1.000  C
  H33      1.0000 0.02990  0.04170  0.34330  Biso   1.000  H
  H34      1.0000 0.52990  0.54170  0.34330  Biso   1.000  H
  H35      1.0000 0.02990  0.95830  0.84330  Biso   1.000  H
  H36      1.0000 0.52990  0.45830  0.84330  Biso   1.000  H
  H37      1.0000 0.97010  0.95830  0.65670  Biso   1.000  H
  H38      1.0000 0.47010  0.45830  0.65670  Biso   1.000  H
  H39      1.0000 0.97010  0.04170  0.15670  Biso   1.000  H
  H40      1.0000 0.47010  0.54170  0.15670  Biso   1.000  H
  H41      1.0000 0.70400  0.56630  0.70600  Biso   1.000  H
  H42      1.0000 0.20400  0.06630  0.70600  Biso   1.000  H
  H43      1.0000 0.70400  0.43370  0.20600  Biso   1.000  H
  H44      1.0000 0.20400  0.93370  0.20600  Biso   1.000  H
  H45      1.0000 0.29600  0.43370  0.29400  Biso   1.000  H
  H46      1.0000 0.79600  0.93370  0.29400  Biso   1.000  H
  H47      1.0000 0.29600  0.56630  0.79400  Biso   1.000  H
  H48      1.0000 0.79600  0.06630  0.79400  Biso   1.000  H
