data_image0
_cell_length_a       26.717
_cell_length_b       7.4853
_cell_length_c       20.601
_cell_angle_alpha    90
_cell_angle_beta     117.906
_cell_angle_gamma    90

_symmetry_space_group_name_H-M    "P 1"
_symmetry_int_tables_number       1

loop_
  _symmetry_equiv_pos_as_xyz
  'x, y, z'

loop_
  _atom_site_label
  _atom_site_occupancy
  _atom_site_fract_x
  _atom_site_fract_y
  _atom_site_fract_z
  _atom_site_thermal_displace_type
  _atom_site_B_iso_or_equiv
  _atom_site_type_symbol
  Cu1      1.0000 0.09442  0.60016  0.41716  Biso   1.000  Cu
  Cu2      1.0000 0.59442  0.10016  0.41716  Biso   1.000  Cu
  Cu3      1.0000 0.09441  0.39984  0.91716  Biso   1.000  Cu
  Cu4      1.0000 0.59442  0.89984  0.91716  Biso   1.000  Cu
  Cu5      1.0000 0.90559  0.39984  0.58284  Biso   1.000  Cu
  Cu6      1.0000 0.40558  0.89984  0.58284  Biso   1.000  Cu
  Cu7      1.0000 0.90559  0.60016  0.08284  Biso   1.000  Cu
  Cu8      1.0000 0.40558  0.10016  0.08284  Biso   1.000  Cu
  O1       1.0000 0.17539  0.57811  0.45487  Biso   1.000  O
  O2       1.0000 0.67539  0.07811  0.45487  Biso   1.000  O
  O3       1.0000 0.17539  0.42189  0.95487  Biso   1.000  O
  O4       1.0000 0.67539  0.92189  0.95487  Biso   1.000  O
  O5       1.0000 0.82461  0.42189  0.54513  Biso   1.000  O
  O6       1.0000 0.32461  0.92189  0.54513  Biso   1.000  O
  O7       1.0000 0.82461  0.57811  0.04513  Biso   1.000  O
  O8       1.0000 0.32461  0.07811  0.04513  Biso   1.000  O
  O9       1.0000 0.18161  0.37388  0.53669  Biso   1.000  O
  O10      1.0000 0.68161  0.87388  0.53669  Biso   1.000  O
  O11      1.0000 0.18161  0.62612  0.03669  Biso   1.000  O
  O12      1.0000 0.68161  0.12612  0.03669  Biso   1.000  O
  O13      1.0000 0.81839  0.62612  0.46331  Biso   1.000  O
  O14      1.0000 0.31839  0.12612  0.46331  Biso   1.000  O
  O15      1.0000 0.81839  0.37388  0.96331  Biso   1.000  O
  O16      1.0000 0.31839  0.87388  0.96331  Biso   1.000  O
  N1       1.0000 0.10269  0.72150  0.50949  Biso   1.000  N
  N2       1.0000 0.60269  0.22150  0.50949  Biso   1.000  N
  N3       1.0000 0.10269  0.27850  0.00949  Biso   1.000  N
  N4       1.0000 0.60269  0.77850  0.00949  Biso   1.000  N
  N5       1.0000 0.89731  0.27850  0.49051  Biso   1.000  N
  N6       1.0000 0.39731  0.77850  0.49051  Biso   1.000  N
  N7       1.0000 0.89731  0.72150  0.99051  Biso   1.000  N
  N8       1.0000 0.39731  0.22150  0.99051  Biso   1.000  N
  N9       1.0000 0.01189  0.62087  0.39175  Biso   1.000  N
  N10      1.0000 0.51189  0.12087  0.39175  Biso   1.000  N
  N11      1.0000 0.01189  0.37913  0.89175  Biso   1.000  N
  N12      1.0000 0.51189  0.87913  0.89175  Biso   1.000  N
  N13      1.0000 0.98811  0.37913  0.60825  Biso   1.000  N
  N14      1.0000 0.48811  0.87913  0.60825  Biso   1.000  N
  N15      1.0000 0.98811  0.62087  0.10825  Biso   1.000  N
  N16      1.0000 0.48811  0.12087  0.10825  Biso   1.000  N
  N17      1.0000 0.08858  0.82140  0.34530  Biso   1.000  N
  N18      1.0000 0.58858  0.32140  0.34530  Biso   1.000  N
  N19      1.0000 0.08858  0.17860  0.84530  Biso   1.000  N
  N20      1.0000 0.58858  0.67860  0.84530  Biso   1.000  N
  N21      1.0000 0.91142  0.17860  0.65470  Biso   1.000  N
  N22      1.0000 0.41142  0.67860  0.65470  Biso   1.000  N
  N23      1.0000 0.91142  0.82140  0.15470  Biso   1.000  N
  N24      1.0000 0.41142  0.32140  0.15470  Biso   1.000  N
  N25      1.0000 0.08104  0.11500  0.29091  Biso   1.000  N
  N26      1.0000 0.58104  0.61500  0.29091  Biso   1.000  N
  N27      1.0000 0.08104  0.88500  0.79091  Biso   1.000  N
  N28      1.0000 0.58104  0.38500  0.79091  Biso   1.000  N
  N29      1.0000 0.91896  0.88500  0.70909  Biso   1.000  N
  N30      1.0000 0.41896  0.38500  0.70909  Biso   1.000  N
  N31      1.0000 0.91896  0.11500  0.20909  Biso   1.000  N
  N32      1.0000 0.41896  0.61500  0.20909  Biso   1.000  N
  N33      1.0000 0.07959  0.39743  0.34758  Biso   1.000  N
  N34      1.0000 0.57959  0.89743  0.34758  Biso   1.000  N
  N35      1.0000 0.07959  0.60257  0.84758  Biso   1.000  N
  N36      1.0000 0.57959  0.10257  0.84758  Biso   1.000  N
  N37      1.0000 0.92041  0.60257  0.65242  Biso   1.000  N
  N38      1.0000 0.42041  0.10257  0.65242  Biso   1.000  N
  N39      1.0000 0.92041  0.39743  0.15242  Biso   1.000  N
  N40      1.0000 0.42041  0.89743  0.15242  Biso   1.000  N
  C1       1.0000 0.14921  0.77450  0.56829  Biso   1.000  C
  C2       1.0000 0.64921  0.27450  0.56829  Biso   1.000  C
  C3       1.0000 0.14921  0.22550  0.06829  Biso   1.000  C
  C4       1.0000 0.64921  0.72550  0.06829  Biso   1.000  C
  C5       1.0000 0.85079  0.22550  0.43171  Biso   1.000  C
  C6       1.0000 0.35079  0.72550  0.43171  Biso   1.000  C
  C7       1.0000 0.85079  0.77450  0.93171  Biso   1.000  C
  C8       1.0000 0.35079  0.27450  0.93171  Biso   1.000  C
  H1       1.0000 0.18380  0.76360  0.56800  Biso   1.000  H
  H2       1.0000 0.68380  0.26360  0.56800  Biso   1.000  H
  H3       1.0000 0.18380  0.23640  0.06800  Biso   1.000  H
  H4       1.0000 0.68380  0.73640  0.06800  Biso   1.000  H
  H5       1.0000 0.81620  0.23640  0.43200  Biso   1.000  H
  H6       1.0000 0.31620  0.73640  0.43200  Biso   1.000  H
  H7       1.0000 0.81620  0.76360  0.93200  Biso   1.000  H
  H8       1.0000 0.31620  0.26360  0.93200  Biso   1.000  H
  C9       1.0000 0.14862  0.84480  0.62978  Biso   1.000  C
  C10      1.0000 0.64862  0.34480  0.62978  Biso   1.000  C
  C11      1.0000 0.14862  0.15520  0.12978  Biso   1.000  C
  C12      1.0000 0.64862  0.65520  0.12978  Biso   1.000  C
  C13      1.0000 0.85138  0.15520  0.37022  Biso   1.000  C
  C14      1.0000 0.35138  0.65520  0.37022  Biso   1.000  C
  C15      1.0000 0.85138  0.84480  0.87022  Biso   1.000  C
  C16      1.0000 0.35138  0.34480  0.87022  Biso   1.000  C
  H9       1.0000 0.18240  0.88010  0.66970  Biso   1.000  H
  H10      1.0000 0.68240  0.38010  0.66970  Biso   1.000  H
  H11      1.0000 0.18240  0.11990  0.16970  Biso   1.000  H
  H12      1.0000 0.68240  0.61990  0.16970  Biso   1.000  H
  H13      1.0000 0.81760  0.11990  0.33030  Biso   1.000  H
  H14      1.0000 0.31760  0.61990  0.33030  Biso   1.000  H
  H15      1.0000 0.81760  0.88010  0.83030  Biso   1.000  H
  H16      1.0000 0.31760  0.38010  0.83030  Biso   1.000  H
  C17      1.0000 0.09966  0.86260  0.63246  Biso   1.000  C
  C18      1.0000 0.59966  0.36260  0.63246  Biso   1.000  C
  C19      1.0000 0.09966  0.13740  0.13246  Biso   1.000  C
  C20      1.0000 0.59966  0.63740  0.13246  Biso   1.000  C
  C21      1.0000 0.90034  0.13740  0.36754  Biso   1.000  C
  C22      1.0000 0.40034  0.63740  0.36754  Biso   1.000  C
  C23      1.0000 0.90034  0.86260  0.86754  Biso   1.000  C
  C24      1.0000 0.40034  0.36260  0.86754  Biso   1.000  C
  H17      1.0000 0.09940  0.90880  0.67420  Biso   1.000  H
  H18      1.0000 0.59940  0.40880  0.67420  Biso   1.000  H
  H19      1.0000 0.09940  0.09120  0.17420  Biso   1.000  H
  H20      1.0000 0.59940  0.59120  0.17420  Biso   1.000  H
  H21      1.0000 0.90060  0.09120  0.32580  Biso   1.000  H
  H22      1.0000 0.40060  0.59120  0.32580  Biso   1.000  H
  H23      1.0000 0.90060  0.90880  0.82580  Biso   1.000  H
  H24      1.0000 0.40060  0.40880  0.82580  Biso   1.000  H
  C25      1.0000 0.04875  0.81090  0.57162  Biso   1.000  C
  C26      1.0000 0.54875  0.31090  0.57162  Biso   1.000  C
  C27      1.0000 0.04875  0.18910  0.07162  Biso   1.000  C
  C28      1.0000 0.54875  0.68910  0.07162  Biso   1.000  C
  C29      1.0000 0.95125  0.18910  0.42838  Biso   1.000  C
  C30      1.0000 0.45125  0.68910  0.42838  Biso   1.000  C
  C31      1.0000 0.95125  0.81090  0.92838  Biso   1.000  C
  C32      1.0000 0.45125  0.31090  0.92838  Biso   1.000  C
  C33      1.0000 0.99406  0.82810  0.56632  Biso   1.000  C
  C34      1.0000 0.49406  0.32810  0.56632  Biso   1.000  C
  C35      1.0000 0.99406  0.17190  0.06632  Biso   1.000  C
  C36      1.0000 0.49406  0.67190  0.06632  Biso   1.000  C
  C37      1.0000 0.00594  0.17190  0.43368  Biso   1.000  C
  C38      1.0000 0.50594  0.67190  0.43368  Biso   1.000  C
  C39      1.0000 0.00594  0.82810  0.93368  Biso   1.000  C
  C40      1.0000 0.50594  0.32810  0.93368  Biso   1.000  C
  H25      1.0000 0.99060  0.87410  0.60600  Biso   1.000  H
  H26      1.0000 0.49060  0.37410  0.60600  Biso   1.000  H
  H27      1.0000 0.99060  0.12590  0.10600  Biso   1.000  H
  H28      1.0000 0.49060  0.62590  0.10600  Biso   1.000  H
  H29      1.0000 0.00940  0.12590  0.39400  Biso   1.000  H
  H30      1.0000 0.50940  0.62590  0.39400  Biso   1.000  H
  H31      1.0000 0.00940  0.87410  0.89400  Biso   1.000  H
  H32      1.0000 0.50940  0.37410  0.89400  Biso   1.000  H
  C41      1.0000 0.94719  0.77980  0.50550  Biso   1.000  C
  C42      1.0000 0.44719  0.27980  0.50550  Biso   1.000  C
  C43      1.0000 0.94719  0.22020  0.00550  Biso   1.000  C
  C44      1.0000 0.44719  0.72020  0.00550  Biso   1.000  C
  C45      1.0000 0.05281  0.22020  0.49450  Biso   1.000  C
  C46      1.0000 0.55281  0.72020  0.49450  Biso   1.000  C
  C47      1.0000 0.05281  0.77980  0.99450  Biso   1.000  C
  C48      1.0000 0.55281  0.27980  0.99450  Biso   1.000  C
  H33      1.0000 0.91200  0.79270  0.50390  Biso   1.000  H
  H34      1.0000 0.41200  0.29270  0.50390  Biso   1.000  H
  H35      1.0000 0.91200  0.20730  0.00390  Biso   1.000  H
  H36      1.0000 0.41200  0.70730  0.00390  Biso   1.000  H
  H37      1.0000 0.08800  0.20730  0.49610  Biso   1.000  H
  H38      1.0000 0.58800  0.70730  0.49610  Biso   1.000  H
  H39      1.0000 0.08800  0.79270  0.99610  Biso   1.000  H
  H40      1.0000 0.58800  0.29270  0.99610  Biso   1.000  H
  C49      1.0000 0.95038  0.70880  0.44303  Biso   1.000  C
  C50      1.0000 0.45038  0.20880  0.44303  Biso   1.000  C
  C51      1.0000 0.95038  0.29120  0.94303  Biso   1.000  C
  C52      1.0000 0.45038  0.79120  0.94303  Biso   1.000  C
  C53      1.0000 0.04962  0.29120  0.55697  Biso   1.000  C
  C54      1.0000 0.54962  0.79120  0.55697  Biso   1.000  C
  C55      1.0000 0.04962  0.70880  0.05697  Biso   1.000  C
  C56      1.0000 0.54962  0.20880  0.05697  Biso   1.000  C
  C57      1.0000 0.90364  0.66080  0.37601  Biso   1.000  C
  C58      1.0000 0.40364  0.16080  0.37601  Biso   1.000  C
  C59      1.0000 0.90364  0.33920  0.87601  Biso   1.000  C
  C60      1.0000 0.40364  0.83920  0.87601  Biso   1.000  C
  C61      1.0000 0.09636  0.33920  0.62399  Biso   1.000  C
  C62      1.0000 0.59636  0.83920  0.62399  Biso   1.000  C
  C63      1.0000 0.09636  0.66080  0.12399  Biso   1.000  C
  C64      1.0000 0.59636  0.16080  0.12399  Biso   1.000  C
  H41      1.0000 0.86710  0.67170  0.37000  Biso   1.000  H
  H42      1.0000 0.36710  0.17170  0.37000  Biso   1.000  H
  H43      1.0000 0.86710  0.32830  0.87000  Biso   1.000  H
  H44      1.0000 0.36710  0.82830  0.87000  Biso   1.000  H
  H45      1.0000 0.13290  0.32830  0.63000  Biso   1.000  H
  H46      1.0000 0.63290  0.82830  0.63000  Biso   1.000  H
  H47      1.0000 0.13290  0.67170  0.13000  Biso   1.000  H
  H48      1.0000 0.63290  0.17170  0.13000  Biso   1.000  H
  C65      1.0000 0.91216  0.59870  0.32027  Biso   1.000  C
  C66      1.0000 0.41216  0.09870  0.32027  Biso   1.000  C
  C67      1.0000 0.91216  0.40130  0.82027  Biso   1.000  C
  C68      1.0000 0.41216  0.90130  0.82027  Biso   1.000  C
  C69      1.0000 0.08784  0.40130  0.67973  Biso   1.000  C
  C70      1.0000 0.58784  0.90130  0.67973  Biso   1.000  C
  C71      1.0000 0.08784  0.59870  0.17973  Biso   1.000  C
  C72      1.0000 0.58784  0.09870  0.17973  Biso   1.000  C
  H49      1.0000 0.88140  0.56920  0.27560  Biso   1.000  H
  H50      1.0000 0.38140  0.06920  0.27560  Biso   1.000  H
  H51      1.0000 0.88140  0.43080  0.77560  Biso   1.000  H
  H52      1.0000 0.38140  0.93080  0.77560  Biso   1.000  H
  H53      1.0000 0.11860  0.43080  0.72440  Biso   1.000  H
  H54      1.0000 0.61860  0.93080  0.72440  Biso   1.000  H
  H55      1.0000 0.11860  0.56920  0.22440  Biso   1.000  H
  H56      1.0000 0.61860  0.06920  0.22440  Biso   1.000  H
  C73      1.0000 0.96659  0.57920  0.32985  Biso   1.000  C
  C74      1.0000 0.46659  0.07920  0.32985  Biso   1.000  C
  C75      1.0000 0.96659  0.42080  0.82985  Biso   1.000  C
  C76      1.0000 0.46659  0.92080  0.82985  Biso   1.000  C
  C77      1.0000 0.03341  0.42080  0.67015  Biso   1.000  C
  C78      1.0000 0.53341  0.92080  0.67015  Biso   1.000  C
  C79      1.0000 0.03341  0.57920  0.17015  Biso   1.000  C
  C80      1.0000 0.53341  0.07920  0.17015  Biso   1.000  C
  H57      1.0000 0.97160  0.53490  0.29110  Biso   1.000  H
  H58      1.0000 0.47160  0.03490  0.29110  Biso   1.000  H
  H59      1.0000 0.97160  0.46510  0.79110  Biso   1.000  H
  H60      1.0000 0.47160  0.96510  0.79110  Biso   1.000  H
  H61      1.0000 0.02840  0.46510  0.70890  Biso   1.000  H
  H62      1.0000 0.52840  0.96510  0.70890  Biso   1.000  H
  H63      1.0000 0.02840  0.53490  0.20890  Biso   1.000  H
  H64      1.0000 0.52840  0.03490  0.20890  Biso   1.000  H
  C81      1.0000 0.00369  0.68800  0.44739  Biso   1.000  C
  C82      1.0000 0.50369  0.18800  0.44739  Biso   1.000  C
  C83      1.0000 0.00369  0.31200  0.94739  Biso   1.000  C
  C84      1.0000 0.50369  0.81200  0.94739  Biso   1.000  C
  C85      1.0000 0.99631  0.31200  0.55261  Biso   1.000  C
  C86      1.0000 0.49631  0.81200  0.55261  Biso   1.000  C
  C87      1.0000 0.99631  0.68800  0.05261  Biso   1.000  C
  C88      1.0000 0.49631  0.18800  0.05261  Biso   1.000  C
  C89      1.0000 0.05329  0.74090  0.51136  Biso   1.000  C
  C90      1.0000 0.55329  0.24090  0.51136  Biso   1.000  C
  C91      1.0000 0.05329  0.25910  0.01136  Biso   1.000  C
  C92      1.0000 0.55329  0.75910  0.01136  Biso   1.000  C
  C93      1.0000 0.94671  0.25910  0.48864  Biso   1.000  C
  C94      1.0000 0.44671  0.75910  0.48864  Biso   1.000  C
  C95      1.0000 0.94671  0.74090  0.98864  Biso   1.000  C
  C96      1.0000 0.44671  0.24090  0.98864  Biso   1.000  C
  C97      1.0000 0.20358  0.47090  0.50841  Biso   1.000  C
  C98      1.0000 0.70358  0.97090  0.50841  Biso   1.000  C
  C99      1.0000 0.20358  0.52910  0.00841  Biso   1.000  C
  C100     1.0000 0.70358  0.02910  0.00841  Biso   1.000  C
  C101     1.0000 0.79642  0.52910  0.49159  Biso   1.000  C
  C102     1.0000 0.29642  0.02910  0.49159  Biso   1.000  C
  C103     1.0000 0.79642  0.47090  0.99159  Biso   1.000  C
  C104     1.0000 0.29642  0.97090  0.99159  Biso   1.000  C
  C105     1.0000 0.26640  0.47590  0.53684  Biso   1.000  C
  C106     1.0000 0.76640  0.97590  0.53684  Biso   1.000  C
  C107     1.0000 0.26640  0.52410  0.03684  Biso   1.000  C
  C108     1.0000 0.76640  0.02410  0.03684  Biso   1.000  C
  C109     1.0000 0.73360  0.52410  0.46316  Biso   1.000  C
  C110     1.0000 0.23360  0.02410  0.46316  Biso   1.000  C
  C111     1.0000 0.73360  0.47590  0.96316  Biso   1.000  C
  C112     1.0000 0.23360  0.97590  0.96316  Biso   1.000  C
  H65      1.0000 0.28410  0.39180  0.57640  Biso   1.000  H
  H66      1.0000 0.78410  0.89180  0.57640  Biso   1.000  H
  H67      1.0000 0.28410  0.60820  0.07640  Biso   1.000  H
  H68      1.0000 0.78410  0.10820  0.07640  Biso   1.000  H
  H69      1.0000 0.71590  0.60820  0.42360  Biso   1.000  H
  H70      1.0000 0.21590  0.10820  0.42360  Biso   1.000  H
  H71      1.0000 0.71590  0.39180  0.92360  Biso   1.000  H
  H72      1.0000 0.21590  0.89180  0.92360  Biso   1.000  H
  H73      1.0000 0.28020  0.59380  0.55440  Biso   1.000  H
  H74      1.0000 0.78020  0.09380  0.55440  Biso   1.000  H
  H75      1.0000 0.28020  0.40620  0.05440  Biso   1.000  H
  H76      1.0000 0.78020  0.90620  0.05440  Biso   1.000  H
  H77      1.0000 0.71980  0.40620  0.44560  Biso   1.000  H
  H78      1.0000 0.21980  0.90620  0.44560  Biso   1.000  H
  H79      1.0000 0.71980  0.59380  0.94560  Biso   1.000  H
  H80      1.0000 0.21980  0.09380  0.94560  Biso   1.000  H
  H81      1.0000 0.27510  0.44510  0.49800  Biso   1.000  H
  H82      1.0000 0.77510  0.94510  0.49800  Biso   1.000  H
  H83      1.0000 0.27510  0.55490  0.99800  Biso   1.000  H
  H84      1.0000 0.77510  0.05490  0.99800  Biso   1.000  H
  H85      1.0000 0.72490  0.55490  0.50200  Biso   1.000  H
  H86      1.0000 0.22490  0.05490  0.50200  Biso   1.000  H
  H87      1.0000 0.72490  0.44510  0.00200  Biso   1.000  H
  H88      1.0000 0.22490  0.94510  0.00200  Biso   1.000  H
  C113     1.0000 0.08496  0.96200  0.32277  Biso   1.000  C
  C114     1.0000 0.58496  0.46200  0.32277  Biso   1.000  C
  C115     1.0000 0.08496  0.03800  0.82277  Biso   1.000  C
  C116     1.0000 0.58496  0.53800  0.82277  Biso   1.000  C
  C117     1.0000 0.91504  0.03800  0.67723  Biso   1.000  C
  C118     1.0000 0.41504  0.53800  0.67723  Biso   1.000  C
  C119     1.0000 0.91504  0.96200  0.17723  Biso   1.000  C
  C120     1.0000 0.41504  0.46200  0.17723  Biso   1.000  C
  C121     1.0000 0.08087  0.26020  0.32402  Biso   1.000  C
  C122     1.0000 0.58087  0.76020  0.32402  Biso   1.000  C
  C123     1.0000 0.08087  0.73980  0.82402  Biso   1.000  C
  C124     1.0000 0.58087  0.23980  0.82402  Biso   1.000  C
  C125     1.0000 0.91913  0.73980  0.67598  Biso   1.000  C
  C126     1.0000 0.41913  0.23980  0.67598  Biso   1.000  C
  C127     1.0000 0.91913  0.26020  0.17598  Biso   1.000  C
  C128     1.0000 0.41913  0.76020  0.17598  Biso   1.000  C
  O17      1.0000 0.28697  0.61260  0.72872  Biso   1.000  O
  O18      1.0000 0.78697  0.11260  0.72872  Biso   1.000  O
  O19      1.0000 0.28697  0.38740  0.22872  Biso   1.000  O
  O20      1.0000 0.78697  0.88740  0.22872  Biso   1.000  O
  O21      1.0000 0.71303  0.38740  0.27128  Biso   1.000  O
  O22      1.0000 0.21303  0.88740  0.27128  Biso   1.000  O
  O23      1.0000 0.71303  0.61260  0.77128  Biso   1.000  O
  O24      1.0000 0.21303  0.11260  0.77128  Biso   1.000  O
  H89      1.0000 0.26490  0.60700  0.75380  Biso   1.000  H
  H90      1.0000 0.76490  0.10700  0.75380  Biso   1.000  H
  H91      1.0000 0.26490  0.39300  0.25380  Biso   1.000  H
  H92      1.0000 0.76490  0.89300  0.25380  Biso   1.000  H
  H93      1.0000 0.73510  0.39300  0.24620  Biso   1.000  H
  H94      1.0000 0.23510  0.89300  0.24620  Biso   1.000  H
  H95      1.0000 0.73510  0.60700  0.74620  Biso   1.000  H
  H96      1.0000 0.23510  0.10700  0.74620  Biso   1.000  H
  H97      1.0000 0.28520  0.71810  0.70190  Biso   1.000  H
  H98      1.0000 0.78520  0.21810  0.70190  Biso   1.000  H
  H99      1.0000 0.28520  0.28190  0.20190  Biso   1.000  H
  H100     1.0000 0.78520  0.78190  0.20190  Biso   1.000  H
  H101     1.0000 0.71480  0.28190  0.29810  Biso   1.000  H
  H102     1.0000 0.21480  0.78190  0.29810  Biso   1.000  H
  H103     1.0000 0.71480  0.71810  0.79810  Biso   1.000  H
  H104     1.0000 0.21480  0.21810  0.79810  Biso   1.000  H
  O25      1.0000 0.25171  0.25030  0.67596  Biso   1.000  O
  O26      1.0000 0.75171  0.75030  0.67596  Biso   1.000  O
  O27      1.0000 0.25171  0.74970  0.17596  Biso   1.000  O
  O28      1.0000 0.75171  0.24970  0.17596  Biso   1.000  O
  O29      1.0000 0.74829  0.74970  0.32404  Biso   1.000  O
  O30      1.0000 0.24829  0.24970  0.32404  Biso   1.000  O
  O31      1.0000 0.74829  0.25030  0.82404  Biso   1.000  O
  O32      1.0000 0.24829  0.75030  0.82404  Biso   1.000  O
  H105     1.0000 0.22130  0.26200  0.62730  Biso   1.000  H
  H106     1.0000 0.72130  0.76200  0.62730  Biso   1.000  H
  H107     1.0000 0.22130  0.73800  0.12730  Biso   1.000  H
  H108     1.0000 0.72130  0.23800  0.12730  Biso   1.000  H
  H109     1.0000 0.77870  0.73800  0.37270  Biso   1.000  H
  H110     1.0000 0.27870  0.23800  0.37270  Biso   1.000  H
  H111     1.0000 0.77870  0.26200  0.87270  Biso   1.000  H
  H112     1.0000 0.27870  0.76200  0.87270  Biso   1.000  H
  H113     1.0000 0.26060  0.37340  0.68780  Biso   1.000  H
  H114     1.0000 0.76060  0.87340  0.68780  Biso   1.000  H
  H115     1.0000 0.26060  0.62660  0.18780  Biso   1.000  H
  H116     1.0000 0.76060  0.12660  0.18780  Biso   1.000  H
  H117     1.0000 0.73940  0.62660  0.31220  Biso   1.000  H
  H118     1.0000 0.23940  0.12660  0.31220  Biso   1.000  H
  H119     1.0000 0.73940  0.37340  0.81220  Biso   1.000  H
  H120     1.0000 0.23940  0.87340  0.81220  Biso   1.000  H
  O33      1.0000 0.28985  0.91490  0.65445  Biso   1.000  O
  O34      1.0000 0.78985  0.41490  0.65445  Biso   1.000  O
  O35      1.0000 0.28985  0.08510  0.15445  Biso   1.000  O
  O36      1.0000 0.78985  0.58510  0.15445  Biso   1.000  O
  O37      1.0000 0.71015  0.08510  0.34555  Biso   1.000  O
  O38      1.0000 0.21015  0.58510  0.34555  Biso   1.000  O
  O39      1.0000 0.71015  0.91490  0.84555  Biso   1.000  O
  O40      1.0000 0.21015  0.41490  0.84555  Biso   1.000  O
  H121     1.0000 0.29230  0.03450  0.67150  Biso   1.000  H
  H122     1.0000 0.79230  0.53450  0.67150  Biso   1.000  H
  H123     1.0000 0.29230  0.96550  0.17150  Biso   1.000  H
  H124     1.0000 0.79230  0.46550  0.17150  Biso   1.000  H
  H125     1.0000 0.70770  0.96550  0.32850  Biso   1.000  H
  H126     1.0000 0.20770  0.46550  0.32850  Biso   1.000  H
  H127     1.0000 0.70770  0.03450  0.82850  Biso   1.000  H
  H128     1.0000 0.20770  0.53450  0.82850  Biso   1.000  H
  H129     1.0000 0.30690  0.91400  0.62270  Biso   1.000  H
  H130     1.0000 0.80690  0.41400  0.62270  Biso   1.000  H
  H131     1.0000 0.30690  0.08600  0.12270  Biso   1.000  H
  H132     1.0000 0.80690  0.58600  0.12270  Biso   1.000  H
  H133     1.0000 0.69310  0.08600  0.37730  Biso   1.000  H
  H134     1.0000 0.19310  0.58600  0.37730  Biso   1.000  H
  H135     1.0000 0.69310  0.91400  0.87730  Biso   1.000  H
  H136     1.0000 0.19310  0.41400  0.87730  Biso   1.000  H
