data_image0
_cell_length_a       15.4828
_cell_length_b       7.3992
_cell_length_c       15.2252
_cell_angle_alpha    90
_cell_angle_beta     116.157
_cell_angle_gamma    90

_symmetry_space_group_name_H-M    "P 1"
_symmetry_int_tables_number       1

loop_
  _symmetry_equiv_pos_as_xyz
  'x, y, z'

loop_
  _atom_site_label
  _atom_site_occupancy
  _atom_site_fract_x
  _atom_site_fract_y
  _atom_site_fract_z
  _atom_site_thermal_displace_type
  _atom_site_B_iso_or_equiv
  _atom_site_type_symbol
  Br1      1.0000 0.73408  0.02047  0.02189  Biso   1.000  Br
  Br2      1.0000 0.26592  0.52047  0.47811  Biso   1.000  Br
  Br3      1.0000 0.26592  0.97953  0.97811  Biso   1.000  Br
  Br4      1.0000 0.73408  0.47953  0.52189  Biso   1.000  Br
  Cu1      1.0000 0.83071  0.03990  0.19105  Biso   1.000  Cu
  Cu2      1.0000 0.16929  0.53990  0.30895  Biso   1.000  Cu
  Cu3      1.0000 0.16929  0.96010  0.80895  Biso   1.000  Cu
  Cu4      1.0000 0.83071  0.46010  0.69105  Biso   1.000  Cu
  N1       1.0000 0.90000  0.13030  0.32480  Biso   1.000  N
  N2       1.0000 0.10000  0.63030  0.17520  Biso   1.000  N
  N3       1.0000 0.10000  0.86970  0.67520  Biso   1.000  N
  N4       1.0000 0.90000  0.36970  0.82480  Biso   1.000  N
  O1       1.0000 0.94400  0.15670  0.18338  Biso   1.000  O
  O2       1.0000 0.05600  0.65670  0.31662  Biso   1.000  O
  O3       1.0000 0.05600  0.84330  0.81662  Biso   1.000  O
  O4       1.0000 0.94400  0.34330  0.68338  Biso   1.000  O
  N5       1.0000 0.74100  0.96930  0.24890  Biso   1.000  N
  N6       1.0000 0.25900  0.46930  0.25110  Biso   1.000  N
  N7       1.0000 0.25900  0.03070  0.75110  Biso   1.000  N
  N8       1.0000 0.74100  0.53070  0.74890  Biso   1.000  N
  N9       1.0000 0.71310  0.95280  0.38120  Biso   1.000  N
  N10      1.0000 0.28690  0.45280  0.11880  Biso   1.000  N
  N11      1.0000 0.28690  0.04720  0.61880  Biso   1.000  N
  N12      1.0000 0.71310  0.54720  0.88120  Biso   1.000  N
  O5       1.0000 0.08830  0.27370  0.27520  Biso   1.000  O
  O6       1.0000 0.91170  0.77370  0.22480  Biso   1.000  O
  O7       1.0000 0.91170  0.72630  0.72480  Biso   1.000  O
  O8       1.0000 0.08830  0.22630  0.77520  Biso   1.000  O
  C1       1.0000 0.86280  0.10990  0.38830  Biso   1.000  C
  C2       1.0000 0.13720  0.60990  0.11170  Biso   1.000  C
  C3       1.0000 0.13720  0.89010  0.61170  Biso   1.000  C
  C4       1.0000 0.86280  0.39010  0.88830  Biso   1.000  C
  C5       1.0000 0.77100  0.01020  0.33970  Biso   1.000  C
  C6       1.0000 0.22900  0.51020  0.16030  Biso   1.000  C
  C7       1.0000 0.22900  0.98980  0.66030  Biso   1.000  C
  C8       1.0000 0.77100  0.48980  0.83970  Biso   1.000  C
  C9       1.0000 0.03620  0.28340  0.44140  Biso   1.000  C
  C10      1.0000 0.96380  0.78340  0.05860  Biso   1.000  C
  C11      1.0000 0.96380  0.71660  0.55860  Biso   1.000  C
  C12      1.0000 0.03620  0.21660  0.94140  Biso   1.000  C
  H1       1.0000 0.09520  0.33960  0.45900  Biso   1.000  H
  H2       1.0000 0.90480  0.83960  0.04100  Biso   1.000  H
  H3       1.0000 0.90480  0.66040  0.54100  Biso   1.000  H
  H4       1.0000 0.09520  0.16040  0.95900  Biso   1.000  H
  C13      1.0000 0.98370  0.21330  0.34810  Biso   1.000  C
  C14      1.0000 0.01630  0.71330  0.15190  Biso   1.000  C
  C15      1.0000 0.01630  0.78670  0.65190  Biso   1.000  C
  C16      1.0000 0.98370  0.28670  0.84810  Biso   1.000  C
  O9       1.0000 0.57130  0.79380  0.32080  Biso   1.000  O
  O10      1.0000 0.42870  0.29380  0.17920  Biso   1.000  O
  O11      1.0000 0.42870  0.20620  0.67920  Biso   1.000  O
  O12      1.0000 0.57130  0.70620  0.82080  Biso   1.000  O
  C17      1.0000 0.73080  0.57260  0.25370  Biso   1.000  C
  C18      1.0000 0.26920  0.07260  0.24630  Biso   1.000  C
  C19      1.0000 0.26920  0.42740  0.74630  Biso   1.000  C
  C20      1.0000 0.73080  0.92740  0.75370  Biso   1.000  C
  H5       1.0000 0.78930  0.64000  0.28670  Biso   1.000  H
  H6       1.0000 0.21070  0.14000  0.21330  Biso   1.000  H
  H7       1.0000 0.21070  0.36000  0.71330  Biso   1.000  H
  H8       1.0000 0.78930  0.86000  0.78670  Biso   1.000  H
  H9       1.0000 0.74300  0.46670  0.22440  Biso   1.000  H
  H10      1.0000 0.25700  0.96670  0.27560  Biso   1.000  H
  H11      1.0000 0.25700  0.53330  0.77560  Biso   1.000  H
  H12      1.0000 0.74300  0.03330  0.72440  Biso   1.000  H
  H13      1.0000 0.70730  0.53730  0.29980  Biso   1.000  H
  H14      1.0000 0.29270  0.03730  0.20020  Biso   1.000  H
  H15      1.0000 0.29270  0.46270  0.70020  Biso   1.000  H
  H16      1.0000 0.70730  0.96270  0.79980  Biso   1.000  H
  C21      1.0000 0.00910  0.21670  0.26260  Biso   1.000  C
  C22      1.0000 0.99090  0.71670  0.23740  Biso   1.000  C
  C23      1.0000 0.99090  0.78330  0.73740  Biso   1.000  C
  C24      1.0000 0.00910  0.28330  0.76260  Biso   1.000  C
  C25      1.0000 0.91030  0.18000  0.48150  Biso   1.000  C
  C26      1.0000 0.08970  0.68000  0.01850  Biso   1.000  C
  C27      1.0000 0.08970  0.82000  0.51850  Biso   1.000  C
  C28      1.0000 0.91030  0.32000  0.98150  Biso   1.000  C
  H17      1.0000 0.88420  0.16960  0.52590  Biso   1.000  H
  H18      1.0000 0.11580  0.66960  0.97410  Biso   1.000  H
  H19      1.0000 0.11580  0.83040  0.47410  Biso   1.000  H
  H20      1.0000 0.88420  0.33040  0.02590  Biso   1.000  H
  C29      1.0000 0.63500  0.86130  0.30880  Biso   1.000  C
  C30      1.0000 0.36500  0.36130  0.19120  Biso   1.000  C
  C31      1.0000 0.36500  0.13870  0.69120  Biso   1.000  C
  C32      1.0000 0.63500  0.63870  0.80880  Biso   1.000  C
  C33      1.0000 0.99770  0.26580  0.50790  Biso   1.000  C
  C34      1.0000 0.00230  0.76580  0.99210  Biso   1.000  C
  C35      1.0000 0.00230  0.73420  0.49210  Biso   1.000  C
  C36      1.0000 0.99770  0.23420  0.00790  Biso   1.000  C
  H21      1.0000 0.03080  0.31280  0.57070  Biso   1.000  H
  H22      1.0000 0.96920  0.81280  0.92930  Biso   1.000  H
  H23      1.0000 0.96920  0.68720  0.42930  Biso   1.000  H
  H24      1.0000 0.03080  0.18720  0.07070  Biso   1.000  H
  C37      1.0000 0.65740  0.68790  0.17650  Biso   1.000  C
  C38      1.0000 0.34260  0.18790  0.32350  Biso   1.000  C
  C39      1.0000 0.34260  0.31210  0.82350  Biso   1.000  C
  C40      1.0000 0.65740  0.81210  0.67650  Biso   1.000  C
  H25      1.0000 0.68000  0.70680  0.12640  Biso   1.000  H
  H26      1.0000 0.32000  0.20680  0.37360  Biso   1.000  H
  H27      1.0000 0.32000  0.29320  0.87360  Biso   1.000  H
  H28      1.0000 0.68000  0.79320  0.62640  Biso   1.000  H
  C41      1.0000 0.64910  0.87340  0.21510  Biso   1.000  C
  C42      1.0000 0.35090  0.37340  0.28490  Biso   1.000  C
  C43      1.0000 0.35090  0.12660  0.78490  Biso   1.000  C
  C44      1.0000 0.64910  0.62660  0.71510  Biso   1.000  C
  C45      1.0000 0.55970  0.59180  0.12650  Biso   1.000  C
  C46      1.0000 0.44030  0.09180  0.37350  Biso   1.000  C
  C47      1.0000 0.44030  0.40820  0.87350  Biso   1.000  C
  C48      1.0000 0.55970  0.90820  0.62650  Biso   1.000  C
  H29      1.0000 0.56570  0.48500  0.09380  Biso   1.000  H
  H30      1.0000 0.43430  0.98500  0.40620  Biso   1.000  H
  H31      1.0000 0.43430  0.51500  0.90620  Biso   1.000  H
  H32      1.0000 0.56570  0.01500  0.59380  Biso   1.000  H
  H33      1.0000 0.51390  0.67240  0.07960  Biso   1.000  H
  H34      1.0000 0.48610  0.17240  0.42040  Biso   1.000  H
  H35      1.0000 0.48610  0.32760  0.92040  Biso   1.000  H
  H36      1.0000 0.51390  0.82760  0.57960  Biso   1.000  H
  H37      1.0000 0.53820  0.55910  0.17460  Biso   1.000  H
  H38      1.0000 0.46180  0.05910  0.32540  Biso   1.000  H
  H39      1.0000 0.46180  0.44090  0.82540  Biso   1.000  H
  H40      1.0000 0.53820  0.94090  0.67460  Biso   1.000  H
  C49      1.0000 0.72290  0.97740  0.47980  Biso   1.000  C
  C50      1.0000 0.27710  0.47740  0.02020  Biso   1.000  C
  C51      1.0000 0.27710  0.02260  0.52020  Biso   1.000  C
  C52      1.0000 0.72290  0.52260  0.97980  Biso   1.000  C
  H41      1.0000 0.78400  0.93050  0.52570  Biso   1.000  H
  H42      1.0000 0.21600  0.43050  0.97430  Biso   1.000  H
  H43      1.0000 0.21600  0.06950  0.47430  Biso   1.000  H
  H44      1.0000 0.78400  0.56950  0.02570  Biso   1.000  H
  H45      1.0000 0.67220  0.91370  0.48670  Biso   1.000  H
  H46      1.0000 0.32780  0.41370  0.01330  Biso   1.000  H
  H47      1.0000 0.32780  0.08630  0.51330  Biso   1.000  H
  H48      1.0000 0.67220  0.58630  0.98670  Biso   1.000  H
  H49      1.0000 0.71920  0.10370  0.49230  Biso   1.000  H
  H50      1.0000 0.28080  0.60370  0.00770  Biso   1.000  H
  H51      1.0000 0.28080  0.89630  0.50770  Biso   1.000  H
  H52      1.0000 0.71920  0.39630  0.99230  Biso   1.000  H
  C53      1.0000 0.56820  0.99610  0.14100  Biso   1.000  C
  C54      1.0000 0.43180  0.49610  0.35900  Biso   1.000  C
  C55      1.0000 0.43180  0.00390  0.85900  Biso   1.000  C
  C56      1.0000 0.56820  0.50390  0.64100  Biso   1.000  C
  H53      1.0000 0.57210  0.11350  0.16940  Biso   1.000  H
  H54      1.0000 0.42790  0.61350  0.33060  Biso   1.000  H
  H55      1.0000 0.42790  0.88650  0.83060  Biso   1.000  H
  H56      1.0000 0.57210  0.38650  0.66940  Biso   1.000  H
  H57      1.0000 0.50650  0.94360  0.12580  Biso   1.000  H
  H58      1.0000 0.49350  0.44360  0.37420  Biso   1.000  H
  H59      1.0000 0.49350  0.05640  0.87420  Biso   1.000  H
  H60      1.0000 0.50650  0.55640  0.62580  Biso   1.000  H
  H61      1.0000 0.57610  0.00720  0.08210  Biso   1.000  H
  H62      1.0000 0.42390  0.50720  0.41790  Biso   1.000  H
  H63      1.0000 0.42390  0.99280  0.91790  Biso   1.000  H
  H64      1.0000 0.57610  0.49280  0.58210  Biso   1.000  H
