data_image0
_cell_length_a       11.731
_cell_length_b       14.274
_cell_length_c       13.211
_cell_angle_alpha    90
_cell_angle_beta     100.862
_cell_angle_gamma    90

_symmetry_space_group_name_H-M    "P 1"
_symmetry_int_tables_number       1

loop_
  _symmetry_equiv_pos_as_xyz
  'x, y, z'

loop_
  _atom_site_label
  _atom_site_occupancy
  _atom_site_fract_x
  _atom_site_fract_y
  _atom_site_fract_z
  _atom_site_thermal_displace_type
  _atom_site_B_iso_or_equiv
  _atom_site_type_symbol
  Cu1      1.0000 0.16833  0.25361  0.81160  Biso   1.000  Cu
  Cu2      1.0000 0.83167  0.75361  0.68840  Biso   1.000  Cu
  Cu3      1.0000 0.83167  0.74639  0.18840  Biso   1.000  Cu
  Cu4      1.0000 0.16833  0.24639  0.31160  Biso   1.000  Cu
  O1       1.0000 0.25410  0.36943  0.85492  Biso   1.000  O
  O2       1.0000 0.74590  0.86943  0.64508  Biso   1.000  O
  O3       1.0000 0.74590  0.63057  0.14508  Biso   1.000  O
  O4       1.0000 0.25410  0.13057  0.35492  Biso   1.000  O
  O5       1.0000 0.30350  0.34590  0.70480  Biso   1.000  O
  O6       1.0000 0.69650  0.84590  0.79520  Biso   1.000  O
  O7       1.0000 0.69650  0.65410  0.29520  Biso   1.000  O
  O8       1.0000 0.30350  0.15410  0.20480  Biso   1.000  O
  O9       1.0000 0.52529  0.41323  0.89850  Biso   1.000  O
  O10      1.0000 0.47471  0.91323  0.60150  Biso   1.000  O
  O11      1.0000 0.47471  0.58677  0.10150  Biso   1.000  O
  O12      1.0000 0.52529  0.08677  0.39850  Biso   1.000  O
  O13      1.0000 0.01783  0.32147  0.78438  Biso   1.000  O
  O14      1.0000 0.98217  0.82147  0.71562  Biso   1.000  O
  O15      1.0000 0.98217  0.67853  0.21562  Biso   1.000  O
  O16      1.0000 0.01783  0.17853  0.28438  Biso   1.000  O
  O17      1.0000 0.01730  0.22406  0.91366  Biso   1.000  O
  O18      1.0000 0.98270  0.72406  0.58634  Biso   1.000  O
  O19      1.0000 0.98270  0.77594  0.08634  Biso   1.000  O
  O20      1.0000 0.01730  0.27594  0.41366  Biso   1.000  O
  N1       1.0000 0.29140  0.16870  0.88780  Biso   1.000  N
  N2       1.0000 0.70860  0.66870  0.61220  Biso   1.000  N
  N3       1.0000 0.70860  0.83130  0.11220  Biso   1.000  N
  N4       1.0000 0.29140  0.33130  0.38780  Biso   1.000  N
  N5       1.0000 0.10730  0.15638  0.70530  Biso   1.000  N
  N6       1.0000 0.89270  0.65638  0.79470  Biso   1.000  N
  N7       1.0000 0.89270  0.84362  0.29470  Biso   1.000  N
  N8       1.0000 0.10730  0.34362  0.20530  Biso   1.000  N
  C1       1.0000 0.30330  0.39430  0.78090  Biso   1.000  C
  C2       1.0000 0.69670  0.89430  0.71910  Biso   1.000  C
  C3       1.0000 0.69670  0.60570  0.21910  Biso   1.000  C
  C4       1.0000 0.30330  0.10570  0.28090  Biso   1.000  C
  C5       1.0000 0.36400  0.48720  0.79440  Biso   1.000  C
  C6       1.0000 0.63600  0.98720  0.70560  Biso   1.000  C
  C7       1.0000 0.63600  0.51280  0.20560  Biso   1.000  C
  C8       1.0000 0.36400  0.01280  0.29440  Biso   1.000  C
  C9       1.0000 0.31080  0.56900  0.75080  Biso   1.000  C
  C10      1.0000 0.68920  0.06900  0.74920  Biso   1.000  C
  C11      1.0000 0.68920  0.43100  0.24920  Biso   1.000  C
  C12      1.0000 0.31080  0.93100  0.25080  Biso   1.000  C
  H1       1.0000 0.23690  0.56610  0.71030  Biso   1.000  H
  H2       1.0000 0.76310  0.06610  0.78970  Biso   1.000  H
  H3       1.0000 0.76310  0.43390  0.28970  Biso   1.000  H
  H4       1.0000 0.23690  0.93390  0.21030  Biso   1.000  H
  C13      1.0000 0.36770  0.65450  0.76750  Biso   1.000  C
  C14      1.0000 0.63230  0.15450  0.73250  Biso   1.000  C
  C15      1.0000 0.63230  0.34550  0.23250  Biso   1.000  C
  C16      1.0000 0.36770  0.84550  0.26750  Biso   1.000  C
  H5       1.0000 0.33150  0.70870  0.73830  Biso   1.000  H
  H6       1.0000 0.66850  0.20870  0.76170  Biso   1.000  H
  H7       1.0000 0.66850  0.29130  0.26170  Biso   1.000  H
  H8       1.0000 0.33150  0.79130  0.23830  Biso   1.000  H
  C17      1.0000 0.47710  0.65970  0.82700  Biso   1.000  C
  C18      1.0000 0.52290  0.15970  0.67300  Biso   1.000  C
  C19      1.0000 0.52290  0.34030  0.17300  Biso   1.000  C
  C20      1.0000 0.47710  0.84030  0.32700  Biso   1.000  C
  H9       1.0000 0.51440  0.71730  0.83780  Biso   1.000  H
  H10      1.0000 0.48560  0.21730  0.66220  Biso   1.000  H
  H11      1.0000 0.48560  0.28270  0.16220  Biso   1.000  H
  H12      1.0000 0.51440  0.78270  0.33780  Biso   1.000  H
  C21      1.0000 0.53170  0.58000  0.87070  Biso   1.000  C
  C22      1.0000 0.46830  0.08000  0.62930  Biso   1.000  C
  C23      1.0000 0.46830  0.42000  0.12930  Biso   1.000  C
  C24      1.0000 0.53170  0.92000  0.37070  Biso   1.000  C
  H13      1.0000 0.60530  0.58350  0.91160  Biso   1.000  H
  H14      1.0000 0.39470  0.08350  0.58840  Biso   1.000  H
  H15      1.0000 0.39470  0.41650  0.08840  Biso   1.000  H
  H16      1.0000 0.60530  0.91650  0.41160  Biso   1.000  H
  C25      1.0000 0.47540  0.49510  0.85280  Biso   1.000  C
  C26      1.0000 0.52460  0.99510  0.64720  Biso   1.000  C
  C27      1.0000 0.52460  0.50490  0.14720  Biso   1.000  C
  C28      1.0000 0.47540  0.00490  0.35280  Biso   1.000  C
  C29      1.0000 0.63530  0.38820  0.88430  Biso   1.000  C
  C30      1.0000 0.36470  0.88820  0.61570  Biso   1.000  C
  C31      1.0000 0.36470  0.61180  0.11570  Biso   1.000  C
  C32      1.0000 0.63530  0.11180  0.38430  Biso   1.000  C
  C33      1.0000 0.67960  0.41230  0.79860  Biso   1.000  C
  C34      1.0000 0.32040  0.91230  0.70140  Biso   1.000  C
  C35      1.0000 0.32040  0.58770  0.20140  Biso   1.000  C
  C36      1.0000 0.67960  0.08770  0.29860  Biso   1.000  C
  H17      1.0000 0.63690  0.44990  0.74770  Biso   1.000  H
  H18      1.0000 0.36310  0.94990  0.75230  Biso   1.000  H
  H19      1.0000 0.36310  0.55010  0.25230  Biso   1.000  H
  H20      1.0000 0.63690  0.05010  0.24770  Biso   1.000  H
  C37      1.0000 0.78850  0.38000  0.78900  Biso   1.000  C
  C38      1.0000 0.21150  0.88000  0.71100  Biso   1.000  C
  C39      1.0000 0.21150  0.62000  0.21100  Biso   1.000  C
  C40      1.0000 0.78850  0.12000  0.28900  Biso   1.000  C
  H21      1.0000 0.81950  0.39750  0.73200  Biso   1.000  H
  H22      1.0000 0.18050  0.89750  0.76800  Biso   1.000  H
  H23      1.0000 0.18050  0.60250  0.26800  Biso   1.000  H
  H24      1.0000 0.81950  0.10250  0.23200  Biso   1.000  H
  C41      1.0000 0.85200  0.32210  0.86320  Biso   1.000  C
  C42      1.0000 0.14800  0.82210  0.63680  Biso   1.000  C
  C43      1.0000 0.14800  0.67790  0.13680  Biso   1.000  C
  C44      1.0000 0.85200  0.17790  0.36320  Biso   1.000  C
  C45      1.0000 0.80540  0.29850  0.94790  Biso   1.000  C
  C46      1.0000 0.19460  0.79850  0.55210  Biso   1.000  C
  C47      1.0000 0.19460  0.70150  0.05210  Biso   1.000  C
  C48      1.0000 0.80540  0.20150  0.44790  Biso   1.000  C
  H25      1.0000 0.84710  0.25950  0.99800  Biso   1.000  H
  H26      1.0000 0.15290  0.75950  0.50200  Biso   1.000  H
  H27      1.0000 0.15290  0.74050  0.00200  Biso   1.000  H
  H28      1.0000 0.84710  0.24050  0.49800  Biso   1.000  H
  C49      1.0000 0.69710  0.33180  0.96030  Biso   1.000  C
  C50      1.0000 0.30290  0.83180  0.53970  Biso   1.000  C
  C51      1.0000 0.30290  0.66820  0.03970  Biso   1.000  C
  C52      1.0000 0.69710  0.16820  0.46030  Biso   1.000  C
  H29      1.0000 0.66710  0.31630  0.01840  Biso   1.000  H
  H30      1.0000 0.33290  0.81630  0.48160  Biso   1.000  H
  H31      1.0000 0.33290  0.68370  0.98160  Biso   1.000  H
  H32      1.0000 0.66710  0.18370  0.51840  Biso   1.000  H
  C53      1.0000 0.96890  0.28680  0.85420  Biso   1.000  C
  C54      1.0000 0.03110  0.78680  0.64580  Biso   1.000  C
  C55      1.0000 0.03110  0.71320  0.14580  Biso   1.000  C
  C56      1.0000 0.96890  0.21320  0.35420  Biso   1.000  C
  C57      1.0000 0.26070  0.08910  0.92740  Biso   1.000  C
  C58      1.0000 0.73930  0.58910  0.57260  Biso   1.000  C
  C59      1.0000 0.73930  0.91090  0.07260  Biso   1.000  C
  C60      1.0000 0.26070  0.41090  0.42740  Biso   1.000  C
  H33      1.0000 0.18210  0.07810  0.92520  Biso   1.000  H
  H34      1.0000 0.81790  0.57810  0.57480  Biso   1.000  H
  H35      1.0000 0.81790  0.92190  0.07480  Biso   1.000  H
  H36      1.0000 0.18210  0.42190  0.42520  Biso   1.000  H
  C61      1.0000 0.33870  0.02200  0.97150  Biso   1.000  C
  C62      1.0000 0.66130  0.52200  0.52850  Biso   1.000  C
  C63      1.0000 0.66130  0.97800  0.02850  Biso   1.000  C
  C64      1.0000 0.33870  0.47800  0.47150  Biso   1.000  C
  H37      1.0000 0.31210  0.96720  0.99720  Biso   1.000  H
  H38      1.0000 0.68790  0.46720  0.50280  Biso   1.000  H
  H39      1.0000 0.68790  0.03280  0.00280  Biso   1.000  H
  H40      1.0000 0.31210  0.53280  0.49720  Biso   1.000  H
  C65      1.0000 0.45630  0.03580  0.97780  Biso   1.000  C
  C66      1.0000 0.54370  0.53580  0.52220  Biso   1.000  C
  C67      1.0000 0.54370  0.96420  0.02220  Biso   1.000  C
  C68      1.0000 0.45630  0.46420  0.47780  Biso   1.000  C
  C69      1.0000 0.48700  0.11910  0.93970  Biso   1.000  C
  C70      1.0000 0.51300  0.61910  0.56030  Biso   1.000  C
  C71      1.0000 0.51300  0.88090  0.06030  Biso   1.000  C
  C72      1.0000 0.48700  0.38090  0.43970  Biso   1.000  C
  H41      1.0000 0.56520  0.13290  0.94360  Biso   1.000  H
  H42      1.0000 0.43480  0.63290  0.55640  Biso   1.000  H
  H43      1.0000 0.43480  0.86710  0.05640  Biso   1.000  H
  H44      1.0000 0.56520  0.36710  0.44360  Biso   1.000  H
  C73      1.0000 0.40470  0.18320  0.89580  Biso   1.000  C
  C74      1.0000 0.59530  0.68320  0.60420  Biso   1.000  C
  C75      1.0000 0.59530  0.81680  0.10420  Biso   1.000  C
  C76      1.0000 0.40470  0.31680  0.39580  Biso   1.000  C
  H45      1.0000 0.42930  0.23900  0.87060  Biso   1.000  H
  H46      1.0000 0.57070  0.73900  0.62940  Biso   1.000  H
  H47      1.0000 0.57070  0.76100  0.12940  Biso   1.000  H
  H48      1.0000 0.42930  0.26100  0.37060  Biso   1.000  H
  C77      1.0000 0.15840  0.14820  0.62350  Biso   1.000  C
  C78      1.0000 0.84160  0.64820  0.87650  Biso   1.000  C
  C79      1.0000 0.84160  0.85180  0.37650  Biso   1.000  C
  C80      1.0000 0.15840  0.35180  0.12350  Biso   1.000  C
  H49      1.0000 0.22280  0.18530  0.62080  Biso   1.000  H
  H50      1.0000 0.77720  0.68530  0.87920  Biso   1.000  H
  H51      1.0000 0.77720  0.81470  0.37920  Biso   1.000  H
  H52      1.0000 0.22280  0.31470  0.12080  Biso   1.000  H
  C81      1.0000 0.12030  0.08710  0.54230  Biso   1.000  C
  C82      1.0000 0.87970  0.58710  0.95770  Biso   1.000  C
  C83      1.0000 0.87970  0.91290  0.45770  Biso   1.000  C
  C84      1.0000 0.12030  0.41290  0.04230  Biso   1.000  C
  H53      1.0000 0.15980  0.08290  0.48770  Biso   1.000  H
  H54      1.0000 0.84020  0.58290  0.01230  Biso   1.000  H
  H55      1.0000 0.84020  0.91710  0.51230  Biso   1.000  H
  H56      1.0000 0.15980  0.41710  0.98770  Biso   1.000  H
  C85      1.0000 0.02330  0.03240  0.54340  Biso   1.000  C
  C86      1.0000 0.97670  0.53240  0.95660  Biso   1.000  C
  C87      1.0000 0.97670  0.96760  0.45660  Biso   1.000  C
  C88      1.0000 0.02330  0.46760  0.04340  Biso   1.000  C
  C89      1.0000 0.97010  0.04060  0.62830  Biso   1.000  C
  C90      1.0000 0.02990  0.54060  0.87170  Biso   1.000  C
  C91      1.0000 0.02990  0.95940  0.37170  Biso   1.000  C
  C92      1.0000 0.97010  0.45940  0.12830  Biso   1.000  C
  H57      1.0000 0.90460  0.00520  0.63250  Biso   1.000  H
  H58      1.0000 0.09540  0.50520  0.86750  Biso   1.000  H
  H59      1.0000 0.09540  0.99480  0.36750  Biso   1.000  H
  H60      1.0000 0.90460  0.49480  0.13250  Biso   1.000  H
  C93      1.0000 0.01530  0.10190  0.70670  Biso   1.000  C
  C94      1.0000 0.98470  0.60190  0.79330  Biso   1.000  C
  C95      1.0000 0.98470  0.89810  0.29330  Biso   1.000  C
  C96      1.0000 0.01530  0.39810  0.20670  Biso   1.000  C
  H61      1.0000 0.97940  0.10540  0.76360  Biso   1.000  H
  H62      1.0000 0.02060  0.60540  0.73640  Biso   1.000  H
  H63      1.0000 0.02060  0.89460  0.23640  Biso   1.000  H
  H64      1.0000 0.97940  0.39460  0.26360  Biso   1.000  H
  O21      1.0000 0.96030  0.41380  0.57540  Biso   1.000  O
  O22      1.0000 0.03970  0.91380  0.92460  Biso   1.000  O
  O23      1.0000 0.03970  0.58620  0.42460  Biso   1.000  O
  O24      1.0000 0.96030  0.08620  0.07540  Biso   1.000  O
  H65      1.0000 0.97700  0.38820  0.63450  Biso   1.000  H
  H66      1.0000 0.02300  0.88820  0.86550  Biso   1.000  H
  H67      1.0000 0.02300  0.61180  0.36550  Biso   1.000  H
  H68      1.0000 0.97700  0.11180  0.13450  Biso   1.000  H
  H69      1.0000 0.97650  0.37610  0.53040  Biso   1.000  H
  H70      1.0000 0.02350  0.87610  0.96960  Biso   1.000  H
  H71      1.0000 0.02350  0.62390  0.46960  Biso   1.000  H
  H72      1.0000 0.97650  0.12390  0.03040  Biso   1.000  H
  O25      1.0000 0.90640  0.43880  0.46950  Biso   1.000  O
  O26      1.0000 0.09360  0.93880  0.03050  Biso   1.000  O
  O27      1.0000 0.09360  0.56120  0.53050  Biso   1.000  O
  O28      1.0000 0.90640  0.06120  0.96950  Biso   1.000  O
  H73      1.0000 0.94280  0.40370  0.42230  Biso   1.000  H
  H74      1.0000 0.05720  0.90370  0.07770  Biso   1.000  H
  H75      1.0000 0.05720  0.59630  0.57770  Biso   1.000  H
  H76      1.0000 0.94280  0.09630  0.92230  Biso   1.000  H
  H77      1.0000 0.92110  0.50440  0.46220  Biso   1.000  H
  H78      1.0000 0.07890  0.00440  0.03780  Biso   1.000  H
  H79      1.0000 0.07890  0.49560  0.53780  Biso   1.000  H
  H80      1.0000 0.92110  0.99560  0.96220  Biso   1.000  H
