data_image0
_cell_length_a       12.564
_cell_length_b       11.628
_cell_length_c       15.235
_cell_angle_alpha    90
_cell_angle_beta     93.64
_cell_angle_gamma    90

_symmetry_space_group_name_H-M    "P 1"
_symmetry_int_tables_number       1

loop_
  _symmetry_equiv_pos_as_xyz
  'x, y, z'

loop_
  _atom_site_label
  _atom_site_occupancy
  _atom_site_fract_x
  _atom_site_fract_y
  _atom_site_fract_z
  _atom_site_thermal_displace_type
  _atom_site_B_iso_or_equiv
  _atom_site_type_symbol
  Cu1      1.0000 0.00000  0.00000  0.00000  Biso   1.000  Cu
  Cu2      1.0000 0.50000  0.50000  0.50000  Biso   1.000  Cu
  Cu3      1.0000 0.86888  0.10614  0.66972  Biso   1.000  Cu
  Cu4      1.0000 0.36888  0.39386  0.16972  Biso   1.000  Cu
  Cu5      1.0000 0.13112  0.89386  0.33028  Biso   1.000  Cu
  Cu6      1.0000 0.63112  0.60614  0.83028  Biso   1.000  Cu
  O1       1.0000 0.88410  0.09950  0.93950  Biso   1.000  O
  O2       1.0000 0.38410  0.40050  0.43950  Biso   1.000  O
  O3       1.0000 0.11590  0.90050  0.06050  Biso   1.000  O
  O4       1.0000 0.61590  0.59950  0.56050  Biso   1.000  O
  O5       1.0000 0.91040  0.05070  0.79990  Biso   1.000  O
  O6       1.0000 0.41040  0.44930  0.29990  Biso   1.000  O
  O7       1.0000 0.08960  0.94930  0.20010  Biso   1.000  O
  O8       1.0000 0.58960  0.55070  0.70010  Biso   1.000  O
  O9       1.0000 0.57170  0.99830  0.63250  Biso   1.000  O
  O10      1.0000 0.07170  0.50170  0.13250  Biso   1.000  O
  O11      1.0000 0.42830  0.00170  0.36750  Biso   1.000  O
  O12      1.0000 0.92830  0.49830  0.86750  Biso   1.000  O
  O13      1.0000 0.74600  0.01390  0.62520  Biso   1.000  O
  O14      1.0000 0.24600  0.48610  0.12520  Biso   1.000  O
  O15      1.0000 0.25400  0.98610  0.37480  Biso   1.000  O
  O16      1.0000 0.75400  0.51390  0.87480  Biso   1.000  O
  O17      1.0000 0.88780  0.44000  0.63170  Biso   1.000  O
  O18      1.0000 0.38780  0.06000  0.13170  Biso   1.000  O
  O19      1.0000 0.11220  0.56000  0.36830  Biso   1.000  O
  O20      1.0000 0.61220  0.94000  0.86830  Biso   1.000  O
  O21      1.0000 0.93280  0.25710  0.64620  Biso   1.000  O
  O22      1.0000 0.43280  0.24290  0.14620  Biso   1.000  O
  O23      1.0000 0.06720  0.74290  0.35380  Biso   1.000  O
  O24      1.0000 0.56720  0.75710  0.85380  Biso   1.000  O
  O25      1.0000 0.97850  0.12900  0.12770  Biso   1.000  O
  O26      1.0000 0.47850  0.37100  0.62770  Biso   1.000  O
  O27      1.0000 0.02150  0.87100  0.87230  Biso   1.000  O
  O28      1.0000 0.52150  0.62900  0.37230  Biso   1.000  O
  O29      1.0000 0.61100  0.89700  0.46750  Biso   1.000  O
  O30      1.0000 0.11100  0.60300  0.96750  Biso   1.000  O
  O31      1.0000 0.38900  0.10300  0.53250  Biso   1.000  O
  O32      1.0000 0.88900  0.39700  0.03250  Biso   1.000  O
  O33      1.0000 0.60390  0.95900  0.26110  Biso   1.000  O
  O34      1.0000 0.10390  0.54100  0.76110  Biso   1.000  O
  O35      1.0000 0.39610  0.04100  0.73890  Biso   1.000  O
  O36      1.0000 0.89610  0.45900  0.23890  Biso   1.000  O
  O37      1.0000 0.80610  0.25700  0.17100  Biso   1.000  O
  O38      1.0000 0.30610  0.24300  0.67100  Biso   1.000  O
  O39      1.0000 0.19390  0.74300  0.82900  Biso   1.000  O
  O40      1.0000 0.69390  0.75700  0.32900  Biso   1.000  O
  O41      1.0000 0.57400  0.08400  0.00500  Biso   1.000  O
  O42      1.0000 0.07400  0.41600  0.50500  Biso   1.000  O
  O43      1.0000 0.42600  0.91600  0.99500  Biso   1.000  O
  O44      1.0000 0.92600  0.58400  0.49500  Biso   1.000  O
  O45      1.0000 0.62800  0.14200  0.14700  Biso   1.000  O
  O46      1.0000 0.12800  0.35800  0.64700  Biso   1.000  O
  O47      1.0000 0.37200  0.85800  0.85300  Biso   1.000  O
  O48      1.0000 0.87200  0.64200  0.35300  Biso   1.000  O
  O49      1.0000 0.71300  0.23200  0.03700  Biso   1.000  O
  O50      1.0000 0.21300  0.26800  0.53700  Biso   1.000  O
  O51      1.0000 0.28700  0.76800  0.96300  Biso   1.000  O
  O52      1.0000 0.78700  0.73200  0.46300  Biso   1.000  O
  N1       1.0000 0.11120  0.11340  0.96260  Biso   1.000  N
  N2       1.0000 0.61120  0.38660  0.46260  Biso   1.000  N
  N3       1.0000 0.88880  0.88660  0.03740  Biso   1.000  N
  N4       1.0000 0.38880  0.61340  0.53740  Biso   1.000  N
  N5       1.0000 0.51950  0.50700  0.87520  Biso   1.000  N
  N6       1.0000 0.01950  0.99300  0.37520  Biso   1.000  N
  N7       1.0000 0.48050  0.49300  0.12480  Biso   1.000  N
  N8       1.0000 0.98050  0.00700  0.62480  Biso   1.000  N
  N9       1.0000 0.76190  0.20020  0.73280  Biso   1.000  N
  N10      1.0000 0.26190  0.29980  0.23280  Biso   1.000  N
  N11      1.0000 0.23810  0.79980  0.26720  Biso   1.000  N
  N12      1.0000 0.73810  0.70020  0.76720  Biso   1.000  N
  C1       1.0000 0.20620  0.07580  0.93910  Biso   1.000  C
  C2       1.0000 0.70620  0.42420  0.43910  Biso   1.000  C
  C3       1.0000 0.79380  0.92420  0.06090  Biso   1.000  C
  C4       1.0000 0.29380  0.57580  0.56090  Biso   1.000  C
  C5       1.0000 0.28710  0.15280  0.92120  Biso   1.000  C
  C6       1.0000 0.78710  0.34720  0.42120  Biso   1.000  C
  C7       1.0000 0.71290  0.84720  0.07880  Biso   1.000  C
  C8       1.0000 0.21290  0.65280  0.57880  Biso   1.000  C
  C9       1.0000 0.26990  0.26910  0.92360  Biso   1.000  C
  C10      1.0000 0.76990  0.23090  0.42360  Biso   1.000  C
  C11      1.0000 0.73010  0.73090  0.07640  Biso   1.000  C
  C12      1.0000 0.23010  0.76910  0.57640  Biso   1.000  C
  C13      1.0000 0.17020  0.30520  0.94620  Biso   1.000  C
  C14      1.0000 0.67020  0.19480  0.44620  Biso   1.000  C
  C15      1.0000 0.82980  0.69480  0.05380  Biso   1.000  C
  C16      1.0000 0.32980  0.80520  0.55380  Biso   1.000  C
  C17      1.0000 0.09300  0.22560  0.96420  Biso   1.000  C
  C18      1.0000 0.59300  0.27440  0.46420  Biso   1.000  C
  C19      1.0000 0.90700  0.77440  0.03580  Biso   1.000  C
  C20      1.0000 0.40700  0.72560  0.53580  Biso   1.000  C
  C21      1.0000 0.35690  0.35350  0.90780  Biso   1.000  C
  C22      1.0000 0.85690  0.14650  0.40780  Biso   1.000  C
  C23      1.0000 0.64310  0.64650  0.09220  Biso   1.000  C
  C24      1.0000 0.14310  0.85350  0.59220  Biso   1.000  C
  C25      1.0000 0.46310  0.32540  0.92760  Biso   1.000  C
  C26      1.0000 0.96310  0.17460  0.42760  Biso   1.000  C
  C27      1.0000 0.53690  0.67460  0.07240  Biso   1.000  C
  C28      1.0000 0.03690  0.82540  0.57240  Biso   1.000  C
  C29      1.0000 0.33480  0.46050  0.87450  Biso   1.000  C
  C30      1.0000 0.83480  0.03950  0.37450  Biso   1.000  C
  C31      1.0000 0.66520  0.53950  0.12550  Biso   1.000  C
  C32      1.0000 0.16520  0.96050  0.62550  Biso   1.000  C
  C33      1.0000 0.41650  0.53460  0.85780  Biso   1.000  C
  C34      1.0000 0.91650  0.96540  0.35780  Biso   1.000  C
  C35      1.0000 0.58350  0.46540  0.14220  Biso   1.000  C
  C36      1.0000 0.08350  0.03460  0.64220  Biso   1.000  C
  C37      1.0000 0.54020  0.40360  0.91060  Biso   1.000  C
  C38      1.0000 0.04020  0.09640  0.41060  Biso   1.000  C
  C39      1.0000 0.45980  0.59640  0.08940  Biso   1.000  C
  C40      1.0000 0.95980  0.90360  0.58940  Biso   1.000  C
  C41      1.0000 0.80180  0.21350  0.82480  Biso   1.000  C
  C42      1.0000 0.30180  0.28650  0.32480  Biso   1.000  C
  C43      1.0000 0.19820  0.78650  0.17520  Biso   1.000  C
  C44      1.0000 0.69820  0.71350  0.67520  Biso   1.000  C
  C45      1.0000 0.86980  0.11150  0.85640  Biso   1.000  C
  C46      1.0000 0.36980  0.38850  0.35640  Biso   1.000  C
  C47      1.0000 0.13020  0.88850  0.14360  Biso   1.000  C
  C48      1.0000 0.63020  0.61150  0.64360  Biso   1.000  C
  C49      1.0000 0.65900  0.13880  0.72300  Biso   1.000  C
  C50      1.0000 0.15900  0.36120  0.22300  Biso   1.000  C
  C51      1.0000 0.34100  0.86120  0.27700  Biso   1.000  C
  C52      1.0000 0.84100  0.63880  0.77700  Biso   1.000  C
  C53      1.0000 0.65870  0.04330  0.65430  Biso   1.000  C
  C54      1.0000 0.15870  0.45670  0.15430  Biso   1.000  C
  C55      1.0000 0.34130  0.95670  0.34570  Biso   1.000  C
  C56      1.0000 0.84130  0.54330  0.84570  Biso   1.000  C
  C57      1.0000 0.76060  0.31140  0.68630  Biso   1.000  C
  C58      1.0000 0.26060  0.18860  0.18630  Biso   1.000  C
  C59      1.0000 0.23940  0.68860  0.31370  Biso   1.000  C
  C60      1.0000 0.73940  0.81140  0.81370  Biso   1.000  C
  C61      1.0000 0.86780  0.33950  0.65250  Biso   1.000  C
  C62      1.0000 0.36780  0.16050  0.15250  Biso   1.000  C
  C63      1.0000 0.13220  0.66050  0.34750  Biso   1.000  C
  C64      1.0000 0.63220  0.83950  0.84750  Biso   1.000  C
  H1       1.0000 0.21872  0.99430  0.93238  Biso   1.000  H
  H2       1.0000 0.71872  0.50570  0.43238  Biso   1.000  H
  H3       1.0000 0.78128  0.00570  0.06762  Biso   1.000  H
  H4       1.0000 0.28128  0.49430  0.56762  Biso   1.000  H
  H5       1.0000 0.35566  0.12218  0.90788  Biso   1.000  H
  H6       1.0000 0.85566  0.37782  0.40788  Biso   1.000  H
  H7       1.0000 0.64434  0.87782  0.09212  Biso   1.000  H
  H8       1.0000 0.14434  0.62218  0.59212  Biso   1.000  H
  H9       1.0000 0.15526  0.38649  0.94711  Biso   1.000  H
  H10      1.0000 0.65526  0.11351  0.44711  Biso   1.000  H
  H11      1.0000 0.84474  0.61351  0.05289  Biso   1.000  H
  H12      1.0000 0.34474  0.88649  0.55289  Biso   1.000  H
  H13      1.0000 0.02331  0.25343  0.97905  Biso   1.000  H
  H14      1.0000 0.52331  0.24657  0.47905  Biso   1.000  H
  H15      1.0000 0.97669  0.74657  0.02095  Biso   1.000  H
  H16      1.0000 0.47669  0.75343  0.52095  Biso   1.000  H
  H17      1.0000 0.48082  0.25080  0.95452  Biso   1.000  H
  H18      1.0000 0.98082  0.24920  0.45452  Biso   1.000  H
  H19      1.0000 0.51918  0.74920  0.04548  Biso   1.000  H
  H20      1.0000 0.01918  0.75080  0.54548  Biso   1.000  H
  H21      1.0000 0.26058  0.48452  0.86387  Biso   1.000  H
  H22      1.0000 0.76058  0.01548  0.36387  Biso   1.000  H
  H23      1.0000 0.73942  0.51548  0.13613  Biso   1.000  H
  H24      1.0000 0.23942  0.98452  0.63613  Biso   1.000  H
  H25      1.0000 0.40005  0.60820  0.83083  Biso   1.000  H
  H26      1.0000 0.90005  0.89180  0.33083  Biso   1.000  H
  H27      1.0000 0.59995  0.39180  0.16917  Biso   1.000  H
  H28      1.0000 0.09995  0.10820  0.66917  Biso   1.000  H
  H29      1.0000 0.61473  0.38330  0.92564  Biso   1.000  H
  H30      1.0000 0.11473  0.11670  0.42564  Biso   1.000  H
  H31      1.0000 0.38527  0.61670  0.07436  Biso   1.000  H
  H32      1.0000 0.88527  0.88330  0.57436  Biso   1.000  H
  H33      1.0000 0.74340  0.22386  0.86148  Biso   1.000  H
  H34      1.0000 0.24340  0.27614  0.36148  Biso   1.000  H
  H35      1.0000 0.25660  0.77614  0.13852  Biso   1.000  H
  H36      1.0000 0.75660  0.72386  0.63852  Biso   1.000  H
  H37      1.0000 0.84495  0.28308  0.83019  Biso   1.000  H
  H38      1.0000 0.34495  0.21692  0.33019  Biso   1.000  H
  H39      1.0000 0.15505  0.71692  0.16981  Biso   1.000  H
  H40      1.0000 0.65505  0.78308  0.66981  Biso   1.000  H
  H41      1.0000 0.60411  0.19157  0.70709  Biso   1.000  H
  H42      1.0000 0.10411  0.30843  0.20709  Biso   1.000  H
  H43      1.0000 0.39589  0.80843  0.29291  Biso   1.000  H
  H44      1.0000 0.89589  0.69157  0.79291  Biso   1.000  H
  H45      1.0000 0.64501  0.10394  0.77824  Biso   1.000  H
  H46      1.0000 0.14501  0.39606  0.27824  Biso   1.000  H
  H47      1.0000 0.35499  0.89606  0.22176  Biso   1.000  H
  H48      1.0000 0.85499  0.60394  0.72176  Biso   1.000  H
  H49      1.0000 0.74080  0.37154  0.72649  Biso   1.000  H
  H50      1.0000 0.24080  0.12846  0.22649  Biso   1.000  H
  H51      1.0000 0.25920  0.62846  0.27351  Biso   1.000  H
  H52      1.0000 0.75920  0.87154  0.77351  Biso   1.000  H
  H53      1.0000 0.70665  0.31061  0.63859  Biso   1.000  H
  H54      1.0000 0.20665  0.18939  0.13859  Biso   1.000  H
  H55      1.0000 0.29335  0.68939  0.36141  Biso   1.000  H
  H56      1.0000 0.79335  0.81061  0.86141  Biso   1.000  H
