data_image0
_cell_length_a       4.6067
_cell_length_b       5.5119
_cell_length_c       10.626
_cell_angle_alpha    102.892
_cell_angle_beta     94.792
_cell_angle_gamma    101.704

_symmetry_space_group_name_H-M    "P 1"
_symmetry_int_tables_number       1

loop_
  _symmetry_equiv_pos_as_xyz
  'x, y, z'

loop_
  _atom_site_label
  _atom_site_occupancy
  _atom_site_fract_x
  _atom_site_fract_y
  _atom_site_fract_z
  _atom_site_thermal_displace_type
  _atom_site_B_iso_or_equiv
  _atom_site_type_symbol
  Cu1      1.0000 0.00000  0.00000  0.00000  Biso   1.000  Cu
  P1       1.0000 0.45420  0.76350  0.77704  Biso   1.000  P
  P2       1.0000 0.54580  0.23650  0.22296  Biso   1.000  P
  O1       1.0000 0.67440  0.99310  0.86770  Biso   1.000  O
  O2       1.0000 0.32560  0.00690  0.13230  Biso   1.000  O
  O3       1.0000 0.18140  0.66130  0.83690  Biso   1.000  O
  O4       1.0000 0.81860  0.33870  0.16310  Biso   1.000  O
  O5       1.0000 0.61530  0.54220  0.73050  Biso   1.000  O
  O6       1.0000 0.38470  0.45780  0.26950  Biso   1.000  O
  H1       1.0000 0.73400  0.56500  0.74700  Biso   1.000  H
  H2       1.0000 0.26600  0.43500  0.25300  Biso   1.000  H
  O7       1.0000 0.74440  0.72530  0.05310  Biso   1.000  O
  O8       1.0000 0.25560  0.27470  0.94690  Biso   1.000  O
  H3       1.0000 0.79000  0.63000  0.09200  Biso   1.000  H
  H4       1.0000 0.21000  0.37000  0.90800  Biso   1.000  H
  H5       1.0000 0.57600  0.78200  0.08600  Biso   1.000  H
  H6       1.0000 0.42400  0.21800  0.91400  Biso   1.000  H
  C1       1.0000 0.32580  0.85480  0.63470  Biso   1.000  C
  C2       1.0000 0.67420  0.14520  0.36530  Biso   1.000  C
  H7       1.0000 0.21600  0.97200  0.65800  Biso   1.000  H
  H8       1.0000 0.78400  0.02800  0.34200  Biso   1.000  H
  H9       1.0000 0.17300  0.68200  0.56700  Biso   1.000  H
  H10      1.0000 0.82700  0.31800  0.43300  Biso   1.000  H
  C3       1.0000 0.56320  0.94870  0.55470  Biso   1.000  C
  C4       1.0000 0.43680  0.05130  0.44530  Biso   1.000  C
  H11      1.0000 0.68800  0.07600  0.60000  Biso   1.000  H
  H12      1.0000 0.31200  0.92400  0.40000  Biso   1.000  H
  H13      1.0000 0.63500  0.80200  0.51900  Biso   1.000  H
  H14      1.0000 0.36500  0.19800  0.48100  Biso   1.000  H
