data_image0
_cell_length_a       11.692
_cell_length_b       20.665
_cell_length_c       7.36
_cell_angle_alpha    90
_cell_angle_beta     103.73
_cell_angle_gamma    90

_symmetry_space_group_name_H-M    "P 1"
_symmetry_int_tables_number       1

loop_
  _symmetry_equiv_pos_as_xyz
  'x, y, z'

loop_
  _atom_site_label
  _atom_site_occupancy
  _atom_site_fract_x
  _atom_site_fract_y
  _atom_site_fract_z
  _atom_site_thermal_displace_type
  _atom_site_B_iso_or_equiv
  _atom_site_type_symbol
  Cu1      1.0000 0.28723  0.25181  0.20700  Biso   1.000  Cu
  Cu2      1.0000 0.71277  0.75181  0.29300  Biso   1.000  Cu
  Cu3      1.0000 0.71277  0.74819  0.79300  Biso   1.000  Cu
  Cu4      1.0000 0.28723  0.24819  0.70700  Biso   1.000  Cu
  Mn1      1.0000 0.78765  0.14885  0.95580  Biso   1.000  Mn
  Mn2      1.0000 0.21235  0.64885  0.54420  Biso   1.000  Mn
  Mn3      1.0000 0.21235  0.85115  0.04420  Biso   1.000  Mn
  Mn4      1.0000 0.78765  0.35115  0.45580  Biso   1.000  Mn
  S1       1.0000 0.10610  0.29824  0.13940  Biso   1.000  S
  S2       1.0000 0.89390  0.79824  0.36060  Biso   1.000  S
  S3       1.0000 0.89390  0.70176  0.86060  Biso   1.000  S
  S4       1.0000 0.10610  0.20176  0.63940  Biso   1.000  S
  S5       1.0000 0.20860  0.15080  0.16600  Biso   1.000  S
  S6       1.0000 0.79140  0.65080  0.33400  Biso   1.000  S
  S7       1.0000 0.79140  0.84920  0.83400  Biso   1.000  S
  S8       1.0000 0.20860  0.34920  0.66600  Biso   1.000  S
  S9       1.0000 0.46900  0.29595  0.78530  Biso   1.000  S
  S10      1.0000 0.53100  0.79595  0.71470  Biso   1.000  S
  S11      1.0000 0.53100  0.70405  0.21470  Biso   1.000  S
  S12      1.0000 0.46900  0.20405  0.28530  Biso   1.000  S
  S13      1.0000 0.36860  0.14803  0.73660  Biso   1.000  S
  S14      1.0000 0.63140  0.64803  0.76340  Biso   1.000  S
  S15      1.0000 0.63140  0.85197  0.26340  Biso   1.000  S
  S16      1.0000 0.36860  0.35197  0.23660  Biso   1.000  S
  O1       1.0000 0.90130  0.23860  0.03250  Biso   1.000  O
  O2       1.0000 0.09870  0.73860  0.46750  Biso   1.000  O
  O3       1.0000 0.09870  0.76140  0.96750  Biso   1.000  O
  O4       1.0000 0.90130  0.26140  0.53250  Biso   1.000  O
  O5       1.0000 0.98470  0.12070  0.05530  Biso   1.000  O
  O6       1.0000 0.01530  0.62070  0.44470  Biso   1.000  O
  O7       1.0000 0.01530  0.87930  0.94470  Biso   1.000  O
  O8       1.0000 0.98470  0.37930  0.55530  Biso   1.000  O
  O9       1.0000 0.67110  0.23800  0.87410  Biso   1.000  O
  O10      1.0000 0.32890  0.73800  0.62590  Biso   1.000  O
  O11      1.0000 0.32890  0.76200  0.12590  Biso   1.000  O
  O12      1.0000 0.67110  0.26200  0.37410  Biso   1.000  O
  O13      1.0000 0.59050  0.11900  0.83280  Biso   1.000  O
  O14      1.0000 0.40950  0.61900  0.66720  Biso   1.000  O
  O15      1.0000 0.40950  0.88100  0.16720  Biso   1.000  O
  O16      1.0000 0.59050  0.38100  0.33280  Biso   1.000  O
  C1       1.0000 0.01250  0.23430  0.08260  Biso   1.000  C
  C2       1.0000 0.98750  0.73430  0.41740  Biso   1.000  C
  C3       1.0000 0.98750  0.76570  0.91740  Biso   1.000  C
  C4       1.0000 0.01250  0.26570  0.58260  Biso   1.000  C
  C5       1.0000 0.06080  0.16740  0.09950  Biso   1.000  C
  C6       1.0000 0.93920  0.66740  0.40050  Biso   1.000  C
  C7       1.0000 0.93920  0.83260  0.90050  Biso   1.000  C
  C8       1.0000 0.06080  0.33260  0.59950  Biso   1.000  C
  C9       1.0000 0.56110  0.23270  0.82500  Biso   1.000  C
  C10      1.0000 0.43890  0.73270  0.67500  Biso   1.000  C
  C11      1.0000 0.43890  0.76730  0.17500  Biso   1.000  C
  C12      1.0000 0.56110  0.26730  0.32500  Biso   1.000  C
  C13      1.0000 0.51890  0.16250  0.80610  Biso   1.000  C
  C14      1.0000 0.48110  0.66250  0.69390  Biso   1.000  C
  C15      1.0000 0.48110  0.83750  0.19390  Biso   1.000  C
  C16      1.0000 0.51890  0.33750  0.30610  Biso   1.000  C
  O17      1.0000 0.75740  0.13320  0.23170  Biso   1.000  O
  O18      1.0000 0.24260  0.63320  0.26830  Biso   1.000  O
  O19      1.0000 0.24260  0.86680  0.76830  Biso   1.000  O
  O20      1.0000 0.75740  0.36680  0.73170  Biso   1.000  O
  O21      1.0000 0.81550  0.14700  0.67540  Biso   1.000  O
  O22      1.0000 0.18450  0.64700  0.82460  Biso   1.000  O
  O23      1.0000 0.18450  0.85300  0.32460  Biso   1.000  O
  O24      1.0000 0.81550  0.35300  0.17540  Biso   1.000  O
  O25      1.0000 0.78630  0.04430  0.96830  Biso   1.000  O
  O26      1.0000 0.21370  0.54430  0.53170  Biso   1.000  O
  O27      1.0000 0.21370  0.95570  0.03170  Biso   1.000  O
  O28      1.0000 0.78630  0.45570  0.46830  Biso   1.000  O
  O29      1.0000 0.04310  0.47160  0.28690  Biso   1.000  O
  O30      1.0000 0.95690  0.97160  0.21310  Biso   1.000  O
  O31      1.0000 0.95690  0.52840  0.71310  Biso   1.000  O
  O32      1.0000 0.04310  0.02840  0.78690  Biso   1.000  O
  O33      1.0000 0.42450  0.46910  0.59450  Biso   1.000  O
  O34      1.0000 0.57550  0.96910  0.90550  Biso   1.000  O
  O35      1.0000 0.57550  0.53090  0.40550  Biso   1.000  O
  O36      1.0000 0.42450  0.03090  0.09450  Biso   1.000  O
  O37      1.0000 0.13310  0.45820  0.96380  Biso   1.000  O
  O38      1.0000 0.86690  0.95820  0.53620  Biso   1.000  O
  O39      1.0000 0.86690  0.54180  0.03620  Biso   1.000  O
  O40      1.0000 0.13310  0.04180  0.46380  Biso   1.000  O
  O41      1.0000 0.70700  0.44690  0.93690  Biso   1.000  O
  O42      1.0000 0.29300  0.94690  0.56310  Biso   1.000  O
  O43      1.0000 0.29300  0.55310  0.06310  Biso   1.000  O
  O44      1.0000 0.70700  0.05310  0.43690  Biso   1.000  O
  O45      1.0000 0.47900  0.02570  0.45500  Biso   1.000  O
  O46      1.0000 0.52100  0.52570  0.04500  Biso   1.000  O
  O47      1.0000 0.52100  0.97430  0.54500  Biso   1.000  O
  O48      1.0000 0.47900  0.47430  0.95500  Biso   1.000  O
