data_image0
_cell_length_a       27.746
_cell_length_b       10.096
_cell_length_c       19.083
_cell_angle_alpha    90
_cell_angle_beta     129.075
_cell_angle_gamma    90

_symmetry_space_group_name_H-M    "P 1"
_symmetry_int_tables_number       1

loop_
  _symmetry_equiv_pos_as_xyz
  'x, y, z'

loop_
  _atom_site_label
  _atom_site_occupancy
  _atom_site_fract_x
  _atom_site_fract_y
  _atom_site_fract_z
  _atom_site_thermal_displace_type
  _atom_site_B_iso_or_equiv
  _atom_site_type_symbol
  La1      1.0000 0.00000  0.92998  0.25000  Biso   1.000  La
  La2      1.0000 0.50000  0.42998  0.25000  Biso   1.000  La
  La3      1.0000 0.00000  0.07002  0.75000  Biso   1.000  La
  La4      1.0000 0.50000  0.57002  0.75000  Biso   1.000  La
  Fe1      1.0000 0.25000  0.75000  0.50000  Biso   1.000  Fe
  Fe2      1.0000 0.75000  0.25000  0.50000  Biso   1.000  Fe
  Fe3      1.0000 0.25000  0.25000  0.00000  Biso   1.000  Fe
  Fe4      1.0000 0.75000  0.75000  0.00000  Biso   1.000  Fe
  Cu1      1.0000 0.11587  0.77180  0.61159  Biso   1.000  Cu
  Cu2      1.0000 0.61587  0.27180  0.61159  Biso   1.000  Cu
  Cu3      1.0000 0.11587  0.22820  0.11159  Biso   1.000  Cu
  Cu4      1.0000 0.61587  0.72820  0.11159  Biso   1.000  Cu
  Cu5      1.0000 0.88413  0.22820  0.38841  Biso   1.000  Cu
  Cu6      1.0000 0.38413  0.72820  0.38841  Biso   1.000  Cu
  Cu7      1.0000 0.88413  0.77180  0.88841  Biso   1.000  Cu
  Cu8      1.0000 0.38413  0.27180  0.88841  Biso   1.000  Cu
  N1       1.0000 0.08280  0.93580  0.54270  Biso   1.000  N
  N2       1.0000 0.58280  0.43580  0.54270  Biso   1.000  N
  N3       1.0000 0.08280  0.06420  0.04270  Biso   1.000  N
  N4       1.0000 0.58280  0.56420  0.04270  Biso   1.000  N
  N5       1.0000 0.91720  0.06420  0.45730  Biso   1.000  N
  N6       1.0000 0.41720  0.56420  0.45730  Biso   1.000  N
  N7       1.0000 0.91720  0.93580  0.95730  Biso   1.000  N
  N8       1.0000 0.41720  0.43580  0.95730  Biso   1.000  N
  C1       1.0000 0.13830  0.48530  0.63810  Biso   1.000  C
  C2       1.0000 0.63830  0.98530  0.63810  Biso   1.000  C
  C3       1.0000 0.13830  0.51470  0.13810  Biso   1.000  C
  C4       1.0000 0.63830  0.01470  0.13810  Biso   1.000  C
  C5       1.0000 0.86170  0.51470  0.36190  Biso   1.000  C
  C6       1.0000 0.36170  0.01470  0.36190  Biso   1.000  C
  C7       1.0000 0.86170  0.48530  0.86190  Biso   1.000  C
  C8       1.0000 0.36170  0.98530  0.86190  Biso   1.000  C
  H1       1.0000 0.10930  0.44850  0.64510  Biso   1.000  H
  H2       1.0000 0.60930  0.94850  0.64510  Biso   1.000  H
  H3       1.0000 0.10930  0.55150  0.14510  Biso   1.000  H
  H4       1.0000 0.60930  0.05150  0.14510  Biso   1.000  H
  H5       1.0000 0.89070  0.55150  0.35490  Biso   1.000  H
  H6       1.0000 0.39070  0.05150  0.35490  Biso   1.000  H
  H7       1.0000 0.89070  0.44850  0.85490  Biso   1.000  H
  H8       1.0000 0.39070  0.94850  0.85490  Biso   1.000  H
  H9       1.0000 0.17480  0.42920  0.67300  Biso   1.000  H
  H10      1.0000 0.67480  0.92920  0.67300  Biso   1.000  H
  H11      1.0000 0.17480  0.57080  0.17300  Biso   1.000  H
  H12      1.0000 0.67480  0.07080  0.17300  Biso   1.000  H
  H13      1.0000 0.82520  0.57080  0.32700  Biso   1.000  H
  H14      1.0000 0.32520  0.07080  0.32700  Biso   1.000  H
  H15      1.0000 0.82520  0.42920  0.82700  Biso   1.000  H
  H16      1.0000 0.32520  0.92920  0.82700  Biso   1.000  H
  C9       1.0000 0.22310  0.56580  0.48200  Biso   1.000  C
  C10      1.0000 0.72310  0.06580  0.48200  Biso   1.000  C
  C11      1.0000 0.22310  0.43420  0.98200  Biso   1.000  C
  C12      1.0000 0.72310  0.93420  0.98200  Biso   1.000  C
  C13      1.0000 0.77690  0.43420  0.51800  Biso   1.000  C
  C14      1.0000 0.27690  0.93420  0.51800  Biso   1.000  C
  C15      1.0000 0.77690  0.56580  0.01800  Biso   1.000  C
  C16      1.0000 0.27690  0.06580  0.01800  Biso   1.000  C
  C17      1.0000 0.16540  0.81000  0.40850  Biso   1.000  C
  C18      1.0000 0.66540  0.31000  0.40850  Biso   1.000  C
  C19      1.0000 0.16540  0.19000  0.90850  Biso   1.000  C
  C20      1.0000 0.66540  0.69000  0.90850  Biso   1.000  C
  C21      1.0000 0.83460  0.19000  0.59150  Biso   1.000  C
  C22      1.0000 0.33460  0.69000  0.59150  Biso   1.000  C
  C23      1.0000 0.83460  0.81000  0.09150  Biso   1.000  C
  C24      1.0000 0.33460  0.31000  0.09150  Biso   1.000  C
  N9       1.0000 0.06820  0.68790  0.49290  Biso   1.000  N
  N10      1.0000 0.56820  0.18790  0.49290  Biso   1.000  N
  N11      1.0000 0.06820  0.31210  0.99290  Biso   1.000  N
  N12      1.0000 0.56820  0.81210  0.99290  Biso   1.000  N
  N13      1.0000 0.93180  0.31210  0.50710  Biso   1.000  N
  N14      1.0000 0.43180  0.81210  0.50710  Biso   1.000  N
  N15      1.0000 0.93180  0.68790  0.00710  Biso   1.000  N
  N16      1.0000 0.43180  0.18790  0.00710  Biso   1.000  N
  O1       1.0000 0.02587  0.00360  0.39520  Biso   1.000  O
  O2       1.0000 0.52587  0.50360  0.39520  Biso   1.000  O
  O3       1.0000 0.02587  0.99640  0.89520  Biso   1.000  O
  O4       1.0000 0.52587  0.49640  0.89520  Biso   1.000  O
  O5       1.0000 0.97413  0.99640  0.60480  Biso   1.000  O
  O6       1.0000 0.47413  0.49640  0.60480  Biso   1.000  O
  O7       1.0000 0.97413  0.00360  0.10480  Biso   1.000  O
  O8       1.0000 0.47413  0.50360  0.10480  Biso   1.000  O
  C25      1.0000 0.04980  0.91620  0.45700  Biso   1.000  C
  C26      1.0000 0.54980  0.41620  0.45700  Biso   1.000  C
  C27      1.0000 0.04980  0.08380  0.95700  Biso   1.000  C
  C28      1.0000 0.54980  0.58380  0.95700  Biso   1.000  C
  C29      1.0000 0.95020  0.08380  0.54300  Biso   1.000  C
  C30      1.0000 0.45020  0.58380  0.54300  Biso   1.000  C
  C31      1.0000 0.95020  0.91620  0.04300  Biso   1.000  C
  C32      1.0000 0.45020  0.41620  0.04300  Biso   1.000  C
  N17      1.0000 0.11580  0.84780  0.35450  Biso   1.000  N
  N18      1.0000 0.61580  0.34780  0.35450  Biso   1.000  N
  N19      1.0000 0.11580  0.15220  0.85450  Biso   1.000  N
  N20      1.0000 0.61580  0.65220  0.85450  Biso   1.000  N
  N21      1.0000 0.88420  0.15220  0.64550  Biso   1.000  N
  N22      1.0000 0.38420  0.65220  0.64550  Biso   1.000  N
  N23      1.0000 0.88420  0.84780  0.14550  Biso   1.000  N
  N24      1.0000 0.38420  0.34780  0.14550  Biso   1.000  N
  N25      1.0000 0.20880  0.45810  0.47260  Biso   1.000  N
  N26      1.0000 0.70880  0.95810  0.47260  Biso   1.000  N
  N27      1.0000 0.20880  0.54190  0.97260  Biso   1.000  N
  N28      1.0000 0.70880  0.04190  0.97260  Biso   1.000  N
  N29      1.0000 0.79120  0.54190  0.52740  Biso   1.000  N
  N30      1.0000 0.29120  0.04190  0.52740  Biso   1.000  N
  N31      1.0000 0.79120  0.45810  0.02740  Biso   1.000  N
  N32      1.0000 0.29120  0.95810  0.02740  Biso   1.000  N
  C33      1.0000 0.26070  0.72560  0.40940  Biso   1.000  C
  C34      1.0000 0.76070  0.22560  0.40940  Biso   1.000  C
  C35      1.0000 0.26070  0.27440  0.90940  Biso   1.000  C
  C36      1.0000 0.76070  0.77440  0.90940  Biso   1.000  C
  C37      1.0000 0.73930  0.27440  0.59060  Biso   1.000  C
  C38      1.0000 0.23930  0.77440  0.59060  Biso   1.000  C
  C39      1.0000 0.73930  0.72560  0.09060  Biso   1.000  C
  C40      1.0000 0.23930  0.22560  0.09060  Biso   1.000  C
  O9       1.0000 0.00568  0.75030  0.34360  Biso   1.000  O
  O10      1.0000 0.50568  0.25030  0.34360  Biso   1.000  O
  O11      1.0000 0.00568  0.24970  0.84360  Biso   1.000  O
  O12      1.0000 0.50568  0.74970  0.84360  Biso   1.000  O
  O13      1.0000 0.99432  0.24970  0.65640  Biso   1.000  O
  O14      1.0000 0.49432  0.74970  0.65640  Biso   1.000  O
  O15      1.0000 0.99432  0.75030  0.15640  Biso   1.000  O
  O16      1.0000 0.49432  0.25030  0.15640  Biso   1.000  O
  N33      1.0000 0.16430  0.85740  0.73190  Biso   1.000  N
  N34      1.0000 0.66430  0.35740  0.73190  Biso   1.000  N
  N35      1.0000 0.16430  0.14260  0.23190  Biso   1.000  N
  N36      1.0000 0.66430  0.64260  0.23190  Biso   1.000  N
  N37      1.0000 0.83570  0.14260  0.26810  Biso   1.000  N
  N38      1.0000 0.33570  0.64260  0.26810  Biso   1.000  N
  N39      1.0000 0.83570  0.85740  0.76810  Biso   1.000  N
  N40      1.0000 0.33570  0.35740  0.76810  Biso   1.000  N
  H17      1.0000 0.13350  0.85580  0.73620  Biso   1.000  H
  H18      1.0000 0.63350  0.35580  0.73620  Biso   1.000  H
  H19      1.0000 0.13350  0.14420  0.23620  Biso   1.000  H
  H20      1.0000 0.63350  0.64420  0.23620  Biso   1.000  H
  H21      1.0000 0.86650  0.14420  0.26380  Biso   1.000  H
  H22      1.0000 0.36650  0.64420  0.26380  Biso   1.000  H
  H23      1.0000 0.86650  0.85580  0.76380  Biso   1.000  H
  H24      1.0000 0.36650  0.35580  0.76380  Biso   1.000  H
  C41      1.0000 0.04000  0.77300  0.42830  Biso   1.000  C
  C42      1.0000 0.54000  0.27300  0.42830  Biso   1.000  C
  C43      1.0000 0.04000  0.22700  0.92830  Biso   1.000  C
  C44      1.0000 0.54000  0.72700  0.92830  Biso   1.000  C
  C45      1.0000 0.96000  0.22700  0.57170  Biso   1.000  C
  C46      1.0000 0.46000  0.72700  0.57170  Biso   1.000  C
  C47      1.0000 0.96000  0.77300  0.07170  Biso   1.000  C
  C48      1.0000 0.46000  0.27300  0.07170  Biso   1.000  C
  N41      1.0000 0.26590  0.70880  0.35540  Biso   1.000  N
  N42      1.0000 0.76590  0.20880  0.35540  Biso   1.000  N
  N43      1.0000 0.26590  0.29120  0.85540  Biso   1.000  N
  N44      1.0000 0.76590  0.79120  0.85540  Biso   1.000  N
  N45      1.0000 0.73410  0.29120  0.64460  Biso   1.000  N
  N46      1.0000 0.23410  0.79120  0.64460  Biso   1.000  N
  N47      1.0000 0.73410  0.70880  0.14460  Biso   1.000  N
  N48      1.0000 0.23410  0.20880  0.14460  Biso   1.000  N
  C49      1.0000 0.19020  0.62890  0.77410  Biso   1.000  C
  C50      1.0000 0.69020  0.12890  0.77410  Biso   1.000  C
  C51      1.0000 0.19020  0.37110  0.27410  Biso   1.000  C
  C52      1.0000 0.69020  0.87110  0.27410  Biso   1.000  C
  C53      1.0000 0.80980  0.37110  0.22590  Biso   1.000  C
  C54      1.0000 0.30980  0.87110  0.22590  Biso   1.000  C
  C55      1.0000 0.80980  0.62890  0.72590  Biso   1.000  C
  C56      1.0000 0.30980  0.12890  0.72590  Biso   1.000  C
  H25      1.0000 0.22910  0.58120  0.80650  Biso   1.000  H
  H26      1.0000 0.72910  0.08120  0.80650  Biso   1.000  H
  H27      1.0000 0.22910  0.41880  0.30650  Biso   1.000  H
  H28      1.0000 0.72910  0.91880  0.30650  Biso   1.000  H
  H29      1.0000 0.77090  0.41880  0.19350  Biso   1.000  H
  H30      1.0000 0.27090  0.91880  0.19350  Biso   1.000  H
  H31      1.0000 0.77090  0.58120  0.69350  Biso   1.000  H
  H32      1.0000 0.27090  0.08120  0.69350  Biso   1.000  H
  H33      1.0000 0.16700  0.59140  0.79180  Biso   1.000  H
  H34      1.0000 0.66700  0.09140  0.79180  Biso   1.000  H
  H35      1.0000 0.16700  0.40860  0.29180  Biso   1.000  H
  H36      1.0000 0.66700  0.90860  0.29180  Biso   1.000  H
  H37      1.0000 0.83300  0.40860  0.20820  Biso   1.000  H
  H38      1.0000 0.33300  0.90860  0.20820  Biso   1.000  H
  H39      1.0000 0.83300  0.59140  0.70820  Biso   1.000  H
  H40      1.0000 0.33300  0.09140  0.70820  Biso   1.000  H
  C57      1.0000 0.17320  0.99310  0.74130  Biso   1.000  C
  C58      1.0000 0.67320  0.49310  0.74130  Biso   1.000  C
  C59      1.0000 0.17320  0.00690  0.24130  Biso   1.000  C
  C60      1.0000 0.67320  0.50690  0.24130  Biso   1.000  C
  C61      1.0000 0.82680  0.00690  0.25870  Biso   1.000  C
  C62      1.0000 0.32680  0.50690  0.25870  Biso   1.000  C
  C63      1.0000 0.82680  0.99310  0.75870  Biso   1.000  C
  C64      1.0000 0.32680  0.49310  0.75870  Biso   1.000  C
  H41      1.0000 0.21400  0.00900  0.75860  Biso   1.000  H
  H42      1.0000 0.71400  0.50900  0.75860  Biso   1.000  H
  H43      1.0000 0.21400  0.99100  0.25860  Biso   1.000  H
  H44      1.0000 0.71400  0.49100  0.25860  Biso   1.000  H
  H45      1.0000 0.78600  0.99100  0.24140  Biso   1.000  H
  H46      1.0000 0.28600  0.49100  0.24140  Biso   1.000  H
  H47      1.0000 0.78600  0.00900  0.74140  Biso   1.000  H
  H48      1.0000 0.28600  0.50900  0.74140  Biso   1.000  H
  H49      1.0000 0.17590  0.01820  0.79270  Biso   1.000  H
  H50      1.0000 0.67590  0.51820  0.79270  Biso   1.000  H
  H51      1.0000 0.17590  0.98180  0.29270  Biso   1.000  H
  H52      1.0000 0.67590  0.48180  0.29270  Biso   1.000  H
  H53      1.0000 0.82410  0.98180  0.20730  Biso   1.000  H
  H54      1.0000 0.32410  0.48180  0.20730  Biso   1.000  H
  H55      1.0000 0.82410  0.01820  0.70730  Biso   1.000  H
  H56      1.0000 0.32410  0.51820  0.70730  Biso   1.000  H
  N49      1.0000 0.15640  0.60680  0.68140  Biso   1.000  N
  N50      1.0000 0.65640  0.10680  0.68140  Biso   1.000  N
  N51      1.0000 0.15640  0.39320  0.18140  Biso   1.000  N
  N52      1.0000 0.65640  0.89320  0.18140  Biso   1.000  N
  N53      1.0000 0.84360  0.39320  0.31860  Biso   1.000  N
  N54      1.0000 0.34360  0.89320  0.31860  Biso   1.000  N
  N55      1.0000 0.84360  0.60680  0.81860  Biso   1.000  N
  N56      1.0000 0.34360  0.10680  0.81860  Biso   1.000  N
  H57      1.0000 0.18990  0.61500  0.68330  Biso   1.000  H
  H58      1.0000 0.68990  0.11500  0.68330  Biso   1.000  H
  H59      1.0000 0.18990  0.38500  0.18330  Biso   1.000  H
  H60      1.0000 0.68990  0.88500  0.18330  Biso   1.000  H
  H61      1.0000 0.81010  0.38500  0.31670  Biso   1.000  H
  H62      1.0000 0.31010  0.88500  0.31670  Biso   1.000  H
  H63      1.0000 0.81010  0.61500  0.81670  Biso   1.000  H
  H64      1.0000 0.31010  0.11500  0.81670  Biso   1.000  H
  C65      1.0000 0.06520  0.54810  0.47260  Biso   1.000  C
  C66      1.0000 0.56520  0.04810  0.47260  Biso   1.000  C
  C67      1.0000 0.06520  0.45190  0.97260  Biso   1.000  C
  C68      1.0000 0.56520  0.95190  0.97260  Biso   1.000  C
  C69      1.0000 0.93480  0.45190  0.52740  Biso   1.000  C
  C70      1.0000 0.43480  0.95190  0.52740  Biso   1.000  C
  C71      1.0000 0.93480  0.54810  0.02740  Biso   1.000  C
  C72      1.0000 0.43480  0.04810  0.02740  Biso   1.000  C
  H65      1.0000 0.02460  0.51490  0.44840  Biso   1.000  H
  H66      1.0000 0.52460  0.01490  0.44840  Biso   1.000  H
  H67      1.0000 0.02460  0.48510  0.94840  Biso   1.000  H
  H68      1.0000 0.52460  0.98510  0.94840  Biso   1.000  H
  H69      1.0000 0.97540  0.48510  0.55160  Biso   1.000  H
  H70      1.0000 0.47540  0.98510  0.55160  Biso   1.000  H
  H71      1.0000 0.97540  0.51490  0.05160  Biso   1.000  H
  H72      1.0000 0.47540  0.01490  0.05160  Biso   1.000  H
  H73      1.0000 0.06920  0.53900  0.42590  Biso   1.000  H
  H74      1.0000 0.56920  0.03900  0.42590  Biso   1.000  H
  H75      1.0000 0.06920  0.46100  0.92590  Biso   1.000  H
  H76      1.0000 0.56920  0.96100  0.92590  Biso   1.000  H
  H77      1.0000 0.93080  0.46100  0.57410  Biso   1.000  H
  H78      1.0000 0.43080  0.96100  0.57410  Biso   1.000  H
  H79      1.0000 0.93080  0.53900  0.07410  Biso   1.000  H
  H80      1.0000 0.43080  0.03900  0.07410  Biso   1.000  H
  C73      1.0000 0.20380  0.76640  0.80280  Biso   1.000  C
  C74      1.0000 0.70380  0.26640  0.80280  Biso   1.000  C
  C75      1.0000 0.20380  0.23360  0.30280  Biso   1.000  C
  C76      1.0000 0.70380  0.73360  0.30280  Biso   1.000  C
  C77      1.0000 0.79620  0.23360  0.19720  Biso   1.000  C
  C78      1.0000 0.29620  0.73360  0.19720  Biso   1.000  C
  C79      1.0000 0.79620  0.76640  0.69720  Biso   1.000  C
  C80      1.0000 0.29620  0.26640  0.69720  Biso   1.000  C
  H81      1.0000 0.20000  0.77940  0.84950  Biso   1.000  H
  H82      1.0000 0.70000  0.27940  0.84950  Biso   1.000  H
  H83      1.0000 0.20000  0.22060  0.34950  Biso   1.000  H
  H84      1.0000 0.70000  0.72060  0.34950  Biso   1.000  H
  H85      1.0000 0.80000  0.22060  0.15050  Biso   1.000  H
  H86      1.0000 0.30000  0.72060  0.15050  Biso   1.000  H
  H87      1.0000 0.80000  0.77940  0.65050  Biso   1.000  H
  H88      1.0000 0.30000  0.27940  0.65050  Biso   1.000  H
  H89      1.0000 0.24640  0.78510  0.82890  Biso   1.000  H
  H90      1.0000 0.74640  0.28510  0.82890  Biso   1.000  H
  H91      1.0000 0.24640  0.21490  0.32890  Biso   1.000  H
  H92      1.0000 0.74640  0.71490  0.32890  Biso   1.000  H
  H93      1.0000 0.75360  0.21490  0.17110  Biso   1.000  H
  H94      1.0000 0.25360  0.71490  0.17110  Biso   1.000  H
  H95      1.0000 0.75360  0.78510  0.67110  Biso   1.000  H
  H96      1.0000 0.25360  0.28510  0.67110  Biso   1.000  H
  C81      1.0000 0.11180  0.46600  0.54840  Biso   1.000  C
  C82      1.0000 0.61180  0.96600  0.54840  Biso   1.000  C
  C83      1.0000 0.11180  0.53400  0.04840  Biso   1.000  C
  C84      1.0000 0.61180  0.03400  0.04840  Biso   1.000  C
  C85      1.0000 0.88820  0.53400  0.45160  Biso   1.000  C
  C86      1.0000 0.38820  0.03400  0.45160  Biso   1.000  C
  C87      1.0000 0.88820  0.46600  0.95160  Biso   1.000  C
  C88      1.0000 0.38820  0.96600  0.95160  Biso   1.000  C
  H97      1.0000 0.09440  0.37740  0.53350  Biso   1.000  H
  H98      1.0000 0.59440  0.87740  0.53350  Biso   1.000  H
  H99      1.0000 0.09440  0.62260  0.03350  Biso   1.000  H
  H100     1.0000 0.59440  0.12260  0.03350  Biso   1.000  H
  H101     1.0000 0.90560  0.62260  0.46650  Biso   1.000  H
  H102     1.0000 0.40560  0.12260  0.46650  Biso   1.000  H
  H103     1.0000 0.90560  0.37740  0.96650  Biso   1.000  H
  H104     1.0000 0.40560  0.87740  0.96650  Biso   1.000  H
  H105     1.0000 0.14630  0.46270  0.54730  Biso   1.000  H
  H106     1.0000 0.64630  0.96270  0.54730  Biso   1.000  H
  H107     1.0000 0.14630  0.53730  0.04730  Biso   1.000  H
  H108     1.0000 0.64630  0.03730  0.04730  Biso   1.000  H
  H109     1.0000 0.85370  0.53730  0.45270  Biso   1.000  H
  H110     1.0000 0.35370  0.03730  0.45270  Biso   1.000  H
  H111     1.0000 0.85370  0.46270  0.95270  Biso   1.000  H
  H112     1.0000 0.35370  0.96270  0.95270  Biso   1.000  H
  O17      1.0000 0.06951  0.12930  0.29810  Biso   1.000  O
  O18      1.0000 0.56951  0.62930  0.29810  Biso   1.000  O
  O19      1.0000 0.06951  0.87070  0.79810  Biso   1.000  O
  O20      1.0000 0.56951  0.37070  0.79810  Biso   1.000  O
  O21      1.0000 0.93049  0.87070  0.70190  Biso   1.000  O
  O22      1.0000 0.43049  0.37070  0.70190  Biso   1.000  O
  O23      1.0000 0.93049  0.12930  0.20190  Biso   1.000  O
  O24      1.0000 0.43049  0.62930  0.20190  Biso   1.000  O
  O25      1.0000 0.16960  0.18880  0.46680  Biso   1.000  O
  O26      1.0000 0.66960  0.68880  0.46680  Biso   1.000  O
  O27      1.0000 0.16960  0.81120  0.96680  Biso   1.000  O
  O28      1.0000 0.66960  0.31120  0.96680  Biso   1.000  O
  O29      1.0000 0.83040  0.81120  0.53320  Biso   1.000  O
  O30      1.0000 0.33040  0.31120  0.53320  Biso   1.000  O
  O31      1.0000 0.83040  0.18880  0.03320  Biso   1.000  O
  O32      1.0000 0.33040  0.68880  0.03320  Biso   1.000  O
  C89      1.0000 0.09870  0.07230  0.57750  Biso   1.000  C
  C90      1.0000 0.59870  0.57230  0.57750  Biso   1.000  C
  C91      1.0000 0.09870  0.92770  0.07750  Biso   1.000  C
  C92      1.0000 0.59870  0.42770  0.07750  Biso   1.000  C
  C93      1.0000 0.90130  0.92770  0.42250  Biso   1.000  C
  C94      1.0000 0.40130  0.42770  0.42250  Biso   1.000  C
  C95      1.0000 0.90130  0.07230  0.92250  Biso   1.000  C
  C96      1.0000 0.40130  0.57230  0.92250  Biso   1.000  C
  H113     1.0000 0.12290  0.11180  0.56220  Biso   1.000  H
  H114     1.0000 0.62290  0.61180  0.56220  Biso   1.000  H
  H115     1.0000 0.12290  0.88820  0.06220  Biso   1.000  H
  H116     1.0000 0.62290  0.38820  0.06220  Biso   1.000  H
  H117     1.0000 0.87710  0.88820  0.43780  Biso   1.000  H
  H118     1.0000 0.37710  0.38820  0.43780  Biso   1.000  H
  H119     1.0000 0.87710  0.11180  0.93780  Biso   1.000  H
  H120     1.0000 0.37710  0.61180  0.93780  Biso   1.000  H
  H121     1.0000 0.06060  0.12290  0.54680  Biso   1.000  H
  H122     1.0000 0.56060  0.62290  0.54680  Biso   1.000  H
  H123     1.0000 0.06060  0.87710  0.04680  Biso   1.000  H
  H124     1.0000 0.56060  0.37710  0.04680  Biso   1.000  H
  H125     1.0000 0.93940  0.87710  0.45320  Biso   1.000  H
  H126     1.0000 0.43940  0.37710  0.45320  Biso   1.000  H
  H127     1.0000 0.93940  0.12290  0.95320  Biso   1.000  H
  H128     1.0000 0.43940  0.62290  0.95320  Biso   1.000  H
  O33      1.0000 0.02410  0.74370  0.62240  Biso   1.000  O
  O34      1.0000 0.52410  0.24370  0.62240  Biso   1.000  O
  O35      1.0000 0.02410  0.25630  0.12240  Biso   1.000  O
  O36      1.0000 0.52410  0.75630  0.12240  Biso   1.000  O
  O37      1.0000 0.97590  0.25630  0.37760  Biso   1.000  O
  O38      1.0000 0.47590  0.75630  0.37760  Biso   1.000  O
  O39      1.0000 0.97590  0.74370  0.87760  Biso   1.000  O
  O40      1.0000 0.47590  0.24370  0.87760  Biso   1.000  O
  O41      1.0000 0.92010  0.54660  0.24100  Biso   1.000  O
  O42      1.0000 0.42010  0.04660  0.24100  Biso   1.000  O
  O43      1.0000 0.92010  0.45340  0.74100  Biso   1.000  O
  O44      1.0000 0.42010  0.95340  0.74100  Biso   1.000  O
  O45      1.0000 0.07990  0.45340  0.75900  Biso   1.000  O
  O46      1.0000 0.57990  0.95340  0.75900  Biso   1.000  O
  O47      1.0000 0.07990  0.54660  0.25900  Biso   1.000  O
  O48      1.0000 0.57990  0.04660  0.25900  Biso   1.000  O
  C97      1.0000 0.13260  0.08430  0.67210  Biso   1.000  C
  C98      1.0000 0.63260  0.58430  0.67210  Biso   1.000  C
  C99      1.0000 0.13260  0.91570  0.17210  Biso   1.000  C
  C100     1.0000 0.63260  0.41570  0.17210  Biso   1.000  C
  C101     1.0000 0.86740  0.91570  0.32790  Biso   1.000  C
  C102     1.0000 0.36740  0.41570  0.32790  Biso   1.000  C
  C103     1.0000 0.86740  0.08430  0.82790  Biso   1.000  C
  C104     1.0000 0.36740  0.58430  0.82790  Biso   1.000  C
  H129     1.0000 0.15680  0.16480  0.68900  Biso   1.000  H
  H130     1.0000 0.65680  0.66480  0.68900  Biso   1.000  H
  H131     1.0000 0.15680  0.83520  0.18900  Biso   1.000  H
  H132     1.0000 0.65680  0.33520  0.18900  Biso   1.000  H
  H133     1.0000 0.84320  0.83520  0.31100  Biso   1.000  H
  H134     1.0000 0.34320  0.33520  0.31100  Biso   1.000  H
  H135     1.0000 0.84320  0.16480  0.81100  Biso   1.000  H
  H136     1.0000 0.34320  0.66480  0.81100  Biso   1.000  H
  H137     1.0000 0.10160  0.10370  0.67910  Biso   1.000  H
  H138     1.0000 0.60160  0.60370  0.67910  Biso   1.000  H
  H139     1.0000 0.10160  0.89630  0.17910  Biso   1.000  H
  H140     1.0000 0.60160  0.39630  0.17910  Biso   1.000  H
  H141     1.0000 0.89840  0.89630  0.32090  Biso   1.000  H
  H142     1.0000 0.39840  0.39630  0.32090  Biso   1.000  H
  H143     1.0000 0.89840  0.10370  0.82090  Biso   1.000  H
  H144     1.0000 0.39840  0.60370  0.82090  Biso   1.000  H
  O49      1.0000 0.00000  0.37930  0.25000  Biso   1.000  O
  O50      1.0000 0.50000  0.87930  0.25000  Biso   1.000  O
  O51      1.0000 0.00000  0.62070  0.75000  Biso   1.000  O
  O52      1.0000 0.50000  0.12070  0.75000  Biso   1.000  O
  H145     1.0000 0.17910  0.26920  0.47010  Biso   1.000  H
  H146     1.0000 0.67910  0.76920  0.47010  Biso   1.000  H
  H147     1.0000 0.17910  0.73080  0.97010  Biso   1.000  H
  H148     1.0000 0.67910  0.23080  0.97010  Biso   1.000  H
  H149     1.0000 0.82090  0.73080  0.52990  Biso   1.000  H
  H150     1.0000 0.32090  0.23080  0.52990  Biso   1.000  H
  H151     1.0000 0.82090  0.26920  0.02990  Biso   1.000  H
  H152     1.0000 0.32090  0.76920  0.02990  Biso   1.000  H
  H153     1.0000 0.20360  0.14730  0.48840  Biso   1.000  H
  H154     1.0000 0.70360  0.64730  0.48840  Biso   1.000  H
  H155     1.0000 0.20360  0.85270  0.98840  Biso   1.000  H
  H156     1.0000 0.70360  0.35270  0.98840  Biso   1.000  H
  H157     1.0000 0.79640  0.85270  0.51160  Biso   1.000  H
  H158     1.0000 0.29640  0.35270  0.51160  Biso   1.000  H
  H159     1.0000 0.79640  0.14730  0.01160  Biso   1.000  H
  H160     1.0000 0.29640  0.64730  0.01160  Biso   1.000  H
  H161     1.0000 0.03080  0.41970  0.26460  Biso   1.000  H
  H162     1.0000 0.53080  0.91970  0.26460  Biso   1.000  H
  H163     1.0000 0.03080  0.58030  0.76460  Biso   1.000  H
  H164     1.0000 0.53080  0.08030  0.76460  Biso   1.000  H
  H165     1.0000 0.96920  0.58030  0.73540  Biso   1.000  H
  H166     1.0000 0.46920  0.08030  0.73540  Biso   1.000  H
  H167     1.0000 0.96920  0.41970  0.23540  Biso   1.000  H
  H168     1.0000 0.46920  0.91970  0.23540  Biso   1.000  H
  H169     1.0000 0.09970  0.13680  0.34960  Biso   1.000  H
  H170     1.0000 0.59970  0.63680  0.34960  Biso   1.000  H
  H171     1.0000 0.09970  0.86320  0.84960  Biso   1.000  H
  H172     1.0000 0.59970  0.36320  0.84960  Biso   1.000  H
  H173     1.0000 0.90030  0.86320  0.65040  Biso   1.000  H
  H174     1.0000 0.40030  0.36320  0.65040  Biso   1.000  H
  H175     1.0000 0.90030  0.13680  0.15040  Biso   1.000  H
  H176     1.0000 0.40030  0.63680  0.15040  Biso   1.000  H
  H177     1.0000 0.04880  0.18800  0.26670  Biso   1.000  H
  H178     1.0000 0.54880  0.68800  0.26670  Biso   1.000  H
  H179     1.0000 0.04880  0.81200  0.76670  Biso   1.000  H
  H180     1.0000 0.54880  0.31200  0.76670  Biso   1.000  H
  H181     1.0000 0.95120  0.81200  0.73330  Biso   1.000  H
  H182     1.0000 0.45120  0.31200  0.73330  Biso   1.000  H
  H183     1.0000 0.95120  0.18800  0.23330  Biso   1.000  H
  H184     1.0000 0.45120  0.68800  0.23330  Biso   1.000  H
  H185     1.0000 0.94710  0.60870  0.26790  Biso   1.000  H
  H186     1.0000 0.44710  0.10870  0.26790  Biso   1.000  H
  H187     1.0000 0.94710  0.39130  0.76790  Biso   1.000  H
  H188     1.0000 0.44710  0.89130  0.76790  Biso   1.000  H
  H189     1.0000 0.05290  0.39130  0.73210  Biso   1.000  H
  H190     1.0000 0.55290  0.89130  0.73210  Biso   1.000  H
  H191     1.0000 0.05290  0.60870  0.23210  Biso   1.000  H
  H192     1.0000 0.55290  0.10870  0.23210  Biso   1.000  H
  H193     1.0000 0.89690  0.56350  0.18170  Biso   1.000  H
  H194     1.0000 0.39690  0.06350  0.18170  Biso   1.000  H
  H195     1.0000 0.89690  0.43650  0.68170  Biso   1.000  H
  H196     1.0000 0.39690  0.93650  0.68170  Biso   1.000  H
  H197     1.0000 0.10310  0.43650  0.81830  Biso   1.000  H
  H198     1.0000 0.60310  0.93650  0.81830  Biso   1.000  H
  H199     1.0000 0.10310  0.56350  0.31830  Biso   1.000  H
  H200     1.0000 0.60310  0.06350  0.31830  Biso   1.000  H
  H201     1.0000 0.00840  0.67980  0.63810  Biso   1.000  H
  H202     1.0000 0.50840  0.17980  0.63810  Biso   1.000  H
  H203     1.0000 0.00840  0.32020  0.13810  Biso   1.000  H
  H204     1.0000 0.50840  0.82020  0.13810  Biso   1.000  H
  H205     1.0000 0.99160  0.32020  0.36190  Biso   1.000  H
  H206     1.0000 0.49160  0.82020  0.36190  Biso   1.000  H
  H207     1.0000 0.99160  0.67980  0.86190  Biso   1.000  H
  H208     1.0000 0.49160  0.17980  0.86190  Biso   1.000  H
  H209     1.0000 0.00810  0.80710  0.63580  Biso   1.000  H
  H210     1.0000 0.50810  0.30710  0.63580  Biso   1.000  H
  H211     1.0000 0.00810  0.19290  0.13580  Biso   1.000  H
  H212     1.0000 0.50810  0.69290  0.13580  Biso   1.000  H
  H213     1.0000 0.99190  0.19290  0.36420  Biso   1.000  H
  H214     1.0000 0.49190  0.69290  0.36420  Biso   1.000  H
  H215     1.0000 0.99190  0.80710  0.86420  Biso   1.000  H
  H216     1.0000 0.49190  0.30710  0.86420  Biso   1.000  H
