data_image0
_cell_length_a       27.413
_cell_length_b       10.13
_cell_length_c       19.067
_cell_angle_alpha    90
_cell_angle_beta     129.81
_cell_angle_gamma    90

_symmetry_space_group_name_H-M    "P 1"
_symmetry_int_tables_number       1

loop_
  _symmetry_equiv_pos_as_xyz
  'x, y, z'

loop_
  _atom_site_label
  _atom_site_occupancy
  _atom_site_fract_x
  _atom_site_fract_y
  _atom_site_fract_z
  _atom_site_thermal_displace_type
  _atom_site_B_iso_or_equiv
  _atom_site_type_symbol
  Gd1      1.0000 0.00000  0.92398  0.25000  Biso   1.000  Gd
  Gd2      1.0000 0.50000  0.42398  0.25000  Biso   1.000  Gd
  Gd3      1.0000 0.00000  0.07602  0.75000  Biso   1.000  Gd
  Gd4      1.0000 0.50000  0.57602  0.75000  Biso   1.000  Gd
  Co1      1.0000 0.25000  0.75000  0.50000  Biso   1.000  Co
  Co2      1.0000 0.75000  0.25000  0.50000  Biso   1.000  Co
  Co3      1.0000 0.25000  0.25000  0.00000  Biso   1.000  Co
  Co4      1.0000 0.75000  0.75000  0.00000  Biso   1.000  Co
  Cu1      1.0000 0.11588  0.77239  0.60944  Biso   1.000  Cu
  Cu2      1.0000 0.61588  0.27239  0.60944  Biso   1.000  Cu
  Cu3      1.0000 0.11588  0.22761  0.10944  Biso   1.000  Cu
  Cu4      1.0000 0.61588  0.72761  0.10944  Biso   1.000  Cu
  Cu5      1.0000 0.88412  0.22761  0.39056  Biso   1.000  Cu
  Cu6      1.0000 0.38412  0.72761  0.39056  Biso   1.000  Cu
  Cu7      1.0000 0.88412  0.77239  0.89056  Biso   1.000  Cu
  Cu8      1.0000 0.38412  0.27239  0.89056  Biso   1.000  Cu
  N1       1.0000 0.08230  0.93570  0.53870  Biso   1.000  N
  N2       1.0000 0.58230  0.43570  0.53870  Biso   1.000  N
  N3       1.0000 0.08230  0.06430  0.03870  Biso   1.000  N
  N4       1.0000 0.58230  0.56430  0.03870  Biso   1.000  N
  N5       1.0000 0.91770  0.06430  0.46130  Biso   1.000  N
  N6       1.0000 0.41770  0.56430  0.46130  Biso   1.000  N
  N7       1.0000 0.91770  0.93570  0.96130  Biso   1.000  N
  N8       1.0000 0.41770  0.43570  0.96130  Biso   1.000  N
  C1       1.0000 0.13620  0.48480  0.63840  Biso   1.000  C
  C2       1.0000 0.63620  0.98480  0.63840  Biso   1.000  C
  C3       1.0000 0.13620  0.51520  0.13840  Biso   1.000  C
  C4       1.0000 0.63620  0.01520  0.13840  Biso   1.000  C
  C5       1.0000 0.86380  0.51520  0.36160  Biso   1.000  C
  C6       1.0000 0.36380  0.01520  0.36160  Biso   1.000  C
  C7       1.0000 0.86380  0.48480  0.86160  Biso   1.000  C
  C8       1.0000 0.36380  0.98480  0.86160  Biso   1.000  C
  H1       1.0000 0.17040  0.42190  0.67680  Biso   1.000  H
  H2       1.0000 0.67040  0.92190  0.67680  Biso   1.000  H
  H3       1.0000 0.17040  0.57810  0.17680  Biso   1.000  H
  H4       1.0000 0.67040  0.07810  0.17680  Biso   1.000  H
  H5       1.0000 0.82960  0.57810  0.32320  Biso   1.000  H
  H6       1.0000 0.32960  0.07810  0.32320  Biso   1.000  H
  H7       1.0000 0.82960  0.42190  0.82320  Biso   1.000  H
  H8       1.0000 0.32960  0.92190  0.82320  Biso   1.000  H
  H9       1.0000 0.10210  0.45940  0.63840  Biso   1.000  H
  H10      1.0000 0.60210  0.95940  0.63840  Biso   1.000  H
  H11      1.0000 0.10210  0.54060  0.13840  Biso   1.000  H
  H12      1.0000 0.60210  0.04060  0.13840  Biso   1.000  H
  H13      1.0000 0.89790  0.54060  0.36160  Biso   1.000  H
  H14      1.0000 0.39790  0.04060  0.36160  Biso   1.000  H
  H15      1.0000 0.89790  0.45940  0.86160  Biso   1.000  H
  H16      1.0000 0.39790  0.95940  0.86160  Biso   1.000  H
  C9       1.0000 0.22300  0.57110  0.48170  Biso   1.000  C
  C10      1.0000 0.72300  0.07110  0.48170  Biso   1.000  C
  C11      1.0000 0.22300  0.42890  0.98170  Biso   1.000  C
  C12      1.0000 0.72300  0.92890  0.98170  Biso   1.000  C
  C13      1.0000 0.77700  0.42890  0.51830  Biso   1.000  C
  C14      1.0000 0.27700  0.92890  0.51830  Biso   1.000  C
  C15      1.0000 0.77700  0.57110  0.01830  Biso   1.000  C
  C16      1.0000 0.27700  0.07110  0.01830  Biso   1.000  C
  C17      1.0000 0.16460  0.80780  0.40800  Biso   1.000  C
  C18      1.0000 0.66460  0.30780  0.40800  Biso   1.000  C
  C19      1.0000 0.16460  0.19220  0.90800  Biso   1.000  C
  C20      1.0000 0.66460  0.69220  0.90800  Biso   1.000  C
  C21      1.0000 0.83540  0.19220  0.59200  Biso   1.000  C
  C22      1.0000 0.33540  0.69220  0.59200  Biso   1.000  C
  C23      1.0000 0.83540  0.80780  0.09200  Biso   1.000  C
  C24      1.0000 0.33540  0.30780  0.09200  Biso   1.000  C
  N9       1.0000 0.06740  0.68620  0.49010  Biso   1.000  N
  N10      1.0000 0.56740  0.18620  0.49010  Biso   1.000  N
  N11      1.0000 0.06740  0.31380  0.99010  Biso   1.000  N
  N12      1.0000 0.56740  0.81380  0.99010  Biso   1.000  N
  N13      1.0000 0.93260  0.31380  0.50990  Biso   1.000  N
  N14      1.0000 0.43260  0.81380  0.50990  Biso   1.000  N
  N15      1.0000 0.93260  0.68620  0.00990  Biso   1.000  N
  N16      1.0000 0.43260  0.18620  0.00990  Biso   1.000  N
  O1       1.0000 0.02690  0.00130  0.38970  Biso   1.000  O
  O2       1.0000 0.52690  0.50130  0.38970  Biso   1.000  O
  O3       1.0000 0.02690  0.99870  0.88970  Biso   1.000  O
  O4       1.0000 0.52690  0.49870  0.88970  Biso   1.000  O
  O5       1.0000 0.97310  0.99870  0.61030  Biso   1.000  O
  O6       1.0000 0.47310  0.49870  0.61030  Biso   1.000  O
  O7       1.0000 0.97310  0.00130  0.11030  Biso   1.000  O
  O8       1.0000 0.47310  0.50130  0.11030  Biso   1.000  O
  C25      1.0000 0.04990  0.91510  0.45220  Biso   1.000  C
  C26      1.0000 0.54990  0.41510  0.45220  Biso   1.000  C
  C27      1.0000 0.04990  0.08490  0.95220  Biso   1.000  C
  C28      1.0000 0.54990  0.58490  0.95220  Biso   1.000  C
  C29      1.0000 0.95010  0.08490  0.54780  Biso   1.000  C
  C30      1.0000 0.45010  0.58490  0.54780  Biso   1.000  C
  C31      1.0000 0.95010  0.91510  0.04780  Biso   1.000  C
  C32      1.0000 0.45010  0.41510  0.04780  Biso   1.000  C
  N17      1.0000 0.11410  0.84560  0.35420  Biso   1.000  N
  N18      1.0000 0.61410  0.34560  0.35420  Biso   1.000  N
  N19      1.0000 0.11410  0.15440  0.85420  Biso   1.000  N
  N20      1.0000 0.61410  0.65440  0.85420  Biso   1.000  N
  N21      1.0000 0.88590  0.15440  0.64580  Biso   1.000  N
  N22      1.0000 0.38590  0.65440  0.64580  Biso   1.000  N
  N23      1.0000 0.88590  0.84560  0.14580  Biso   1.000  N
  N24      1.0000 0.38590  0.34560  0.14580  Biso   1.000  N
  N25      1.0000 0.20830  0.46270  0.47130  Biso   1.000  N
  N26      1.0000 0.70830  0.96270  0.47130  Biso   1.000  N
  N27      1.0000 0.20830  0.53730  0.97130  Biso   1.000  N
  N28      1.0000 0.70830  0.03730  0.97130  Biso   1.000  N
  N29      1.0000 0.79170  0.53730  0.52870  Biso   1.000  N
  N30      1.0000 0.29170  0.03730  0.52870  Biso   1.000  N
  N31      1.0000 0.79170  0.46270  0.02870  Biso   1.000  N
  N32      1.0000 0.29170  0.96270  0.02870  Biso   1.000  N
  C33      1.0000 0.26040  0.72650  0.41090  Biso   1.000  C
  C34      1.0000 0.76040  0.22650  0.41090  Biso   1.000  C
  C35      1.0000 0.26040  0.27350  0.91090  Biso   1.000  C
  C36      1.0000 0.76040  0.77350  0.91090  Biso   1.000  C
  C37      1.0000 0.73960  0.27350  0.58910  Biso   1.000  C
  C38      1.0000 0.23960  0.77350  0.58910  Biso   1.000  C
  C39      1.0000 0.73960  0.72650  0.08910  Biso   1.000  C
  C40      1.0000 0.23960  0.22650  0.08910  Biso   1.000  C
  O9       1.0000 0.00472  0.74830  0.33720  Biso   1.000  O
  O10      1.0000 0.50472  0.24830  0.33720  Biso   1.000  O
  O11      1.0000 0.00472  0.25170  0.83720  Biso   1.000  O
  O12      1.0000 0.50472  0.75170  0.83720  Biso   1.000  O
  O13      1.0000 0.99528  0.25170  0.66280  Biso   1.000  O
  O14      1.0000 0.49528  0.75170  0.66280  Biso   1.000  O
  O15      1.0000 0.99528  0.74830  0.16280  Biso   1.000  O
  O16      1.0000 0.49528  0.24830  0.16280  Biso   1.000  O
  N33      1.0000 0.16300  0.85880  0.73030  Biso   1.000  N
  N34      1.0000 0.66300  0.35880  0.73030  Biso   1.000  N
  N35      1.0000 0.16300  0.14120  0.23030  Biso   1.000  N
  N36      1.0000 0.66300  0.64120  0.23030  Biso   1.000  N
  N37      1.0000 0.83700  0.14120  0.26970  Biso   1.000  N
  N38      1.0000 0.33700  0.64120  0.26970  Biso   1.000  N
  N39      1.0000 0.83700  0.85880  0.76970  Biso   1.000  N
  N40      1.0000 0.33700  0.35880  0.76970  Biso   1.000  N
  H17      1.0000 0.13140  0.85740  0.73380  Biso   1.000  H
  H18      1.0000 0.63140  0.35740  0.73380  Biso   1.000  H
  H19      1.0000 0.13140  0.14260  0.23380  Biso   1.000  H
  H20      1.0000 0.63140  0.64260  0.23380  Biso   1.000  H
  H21      1.0000 0.86860  0.14260  0.26620  Biso   1.000  H
  H22      1.0000 0.36860  0.64260  0.26620  Biso   1.000  H
  H23      1.0000 0.86860  0.85740  0.76620  Biso   1.000  H
  H24      1.0000 0.36860  0.35740  0.76620  Biso   1.000  H
  C41      1.0000 0.03980  0.77100  0.42380  Biso   1.000  C
  C42      1.0000 0.53980  0.27100  0.42380  Biso   1.000  C
  C43      1.0000 0.03980  0.22900  0.92380  Biso   1.000  C
  C44      1.0000 0.53980  0.72900  0.92380  Biso   1.000  C
  C45      1.0000 0.96020  0.22900  0.57620  Biso   1.000  C
  C46      1.0000 0.46020  0.72900  0.57620  Biso   1.000  C
  C47      1.0000 0.96020  0.77100  0.07620  Biso   1.000  C
  C48      1.0000 0.46020  0.27100  0.07620  Biso   1.000  C
  N41      1.0000 0.26650  0.71120  0.35760  Biso   1.000  N
  N42      1.0000 0.76650  0.21120  0.35760  Biso   1.000  N
  N43      1.0000 0.26650  0.28880  0.85760  Biso   1.000  N
  N44      1.0000 0.76650  0.78880  0.85760  Biso   1.000  N
  N45      1.0000 0.73350  0.28880  0.64240  Biso   1.000  N
  N46      1.0000 0.23350  0.78880  0.64240  Biso   1.000  N
  N47      1.0000 0.73350  0.71120  0.14240  Biso   1.000  N
  N48      1.0000 0.23350  0.21120  0.14240  Biso   1.000  N
  C49      1.0000 0.18940  0.63050  0.77430  Biso   1.000  C
  C50      1.0000 0.68940  0.13050  0.77430  Biso   1.000  C
  C51      1.0000 0.18940  0.36950  0.27430  Biso   1.000  C
  C52      1.0000 0.68940  0.86950  0.27430  Biso   1.000  C
  C53      1.0000 0.81060  0.36950  0.22570  Biso   1.000  C
  C54      1.0000 0.31060  0.86950  0.22570  Biso   1.000  C
  C55      1.0000 0.81060  0.63050  0.72570  Biso   1.000  C
  C56      1.0000 0.31060  0.13050  0.72570  Biso   1.000  C
  H25      1.0000 0.22840  0.57940  0.81100  Biso   1.000  H
  H26      1.0000 0.72840  0.07940  0.81100  Biso   1.000  H
  H27      1.0000 0.22840  0.42060  0.31100  Biso   1.000  H
  H28      1.0000 0.72840  0.92060  0.31100  Biso   1.000  H
  H29      1.0000 0.77160  0.42060  0.18900  Biso   1.000  H
  H30      1.0000 0.27160  0.92060  0.18900  Biso   1.000  H
  H31      1.0000 0.77160  0.57940  0.68900  Biso   1.000  H
  H32      1.0000 0.27160  0.07940  0.68900  Biso   1.000  H
  H33      1.0000 0.16250  0.59810  0.78700  Biso   1.000  H
  H34      1.0000 0.66250  0.09810  0.78700  Biso   1.000  H
  H35      1.0000 0.16250  0.40190  0.28700  Biso   1.000  H
  H36      1.0000 0.66250  0.90190  0.28700  Biso   1.000  H
  H37      1.0000 0.83750  0.40190  0.21300  Biso   1.000  H
  H38      1.0000 0.33750  0.90190  0.21300  Biso   1.000  H
  H39      1.0000 0.83750  0.59810  0.71300  Biso   1.000  H
  H40      1.0000 0.33750  0.09810  0.71300  Biso   1.000  H
  C57      1.0000 0.17370  0.99500  0.74000  Biso   1.000  C
  C58      1.0000 0.67370  0.49500  0.74000  Biso   1.000  C
  C59      1.0000 0.17370  0.00500  0.24000  Biso   1.000  C
  C60      1.0000 0.67370  0.50500  0.24000  Biso   1.000  C
  C61      1.0000 0.82630  0.00500  0.26000  Biso   1.000  C
  C62      1.0000 0.32630  0.50500  0.26000  Biso   1.000  C
  C63      1.0000 0.82630  0.99500  0.76000  Biso   1.000  C
  C64      1.0000 0.32630  0.49500  0.76000  Biso   1.000  C
  H41      1.0000 0.21360  0.00940  0.75240  Biso   1.000  H
  H42      1.0000 0.71360  0.50940  0.75240  Biso   1.000  H
  H43      1.0000 0.21360  0.99060  0.25240  Biso   1.000  H
  H44      1.0000 0.71360  0.49060  0.25240  Biso   1.000  H
  H45      1.0000 0.78640  0.99060  0.24760  Biso   1.000  H
  H46      1.0000 0.28640  0.49060  0.24760  Biso   1.000  H
  H47      1.0000 0.78640  0.00940  0.74760  Biso   1.000  H
  H48      1.0000 0.28640  0.50940  0.74760  Biso   1.000  H
  H49      1.0000 0.18040  0.02120  0.79450  Biso   1.000  H
  H50      1.0000 0.68040  0.52120  0.79450  Biso   1.000  H
  H51      1.0000 0.18040  0.97880  0.29450  Biso   1.000  H
  H52      1.0000 0.68040  0.47880  0.29450  Biso   1.000  H
  H53      1.0000 0.81960  0.97880  0.20550  Biso   1.000  H
  H54      1.0000 0.31960  0.47880  0.20550  Biso   1.000  H
  H55      1.0000 0.81960  0.02120  0.70550  Biso   1.000  H
  H56      1.0000 0.31960  0.52120  0.70550  Biso   1.000  H
  N49      1.0000 0.15870  0.60880  0.68200  Biso   1.000  N
  N50      1.0000 0.65870  0.10880  0.68200  Biso   1.000  N
  N51      1.0000 0.15870  0.39120  0.18200  Biso   1.000  N
  N52      1.0000 0.65870  0.89120  0.18200  Biso   1.000  N
  N53      1.0000 0.84130  0.39120  0.31800  Biso   1.000  N
  N54      1.0000 0.34130  0.89120  0.31800  Biso   1.000  N
  N55      1.0000 0.84130  0.60880  0.81800  Biso   1.000  N
  N56      1.0000 0.34130  0.10880  0.81800  Biso   1.000  N
  H57      1.0000 0.19350  0.61350  0.68590  Biso   1.000  H
  H58      1.0000 0.69350  0.11350  0.68590  Biso   1.000  H
  H59      1.0000 0.19350  0.38650  0.18590  Biso   1.000  H
  H60      1.0000 0.69350  0.88650  0.18590  Biso   1.000  H
  H61      1.0000 0.80650  0.38650  0.31410  Biso   1.000  H
  H62      1.0000 0.30650  0.88650  0.31410  Biso   1.000  H
  H63      1.0000 0.80650  0.61350  0.81410  Biso   1.000  H
  H64      1.0000 0.30650  0.11350  0.81410  Biso   1.000  H
  C65      1.0000 0.06350  0.54610  0.46930  Biso   1.000  C
  C66      1.0000 0.56350  0.04610  0.46930  Biso   1.000  C
  C67      1.0000 0.06350  0.45390  0.96930  Biso   1.000  C
  C68      1.0000 0.56350  0.95390  0.96930  Biso   1.000  C
  C69      1.0000 0.93650  0.45390  0.53070  Biso   1.000  C
  C70      1.0000 0.43650  0.95390  0.53070  Biso   1.000  C
  C71      1.0000 0.93650  0.54610  0.03070  Biso   1.000  C
  C72      1.0000 0.43650  0.04610  0.03070  Biso   1.000  C
  H65      1.0000 0.06620  0.53590  0.42130  Biso   1.000  H
  H66      1.0000 0.56620  0.03590  0.42130  Biso   1.000  H
  H67      1.0000 0.06620  0.46410  0.92130  Biso   1.000  H
  H68      1.0000 0.56620  0.96410  0.92130  Biso   1.000  H
  H69      1.0000 0.93380  0.46410  0.57870  Biso   1.000  H
  H70      1.0000 0.43380  0.96410  0.57870  Biso   1.000  H
  H71      1.0000 0.93380  0.53590  0.07870  Biso   1.000  H
  H72      1.0000 0.43380  0.03590  0.07870  Biso   1.000  H
  H73      1.0000 0.02250  0.51250  0.44640  Biso   1.000  H
  H74      1.0000 0.52250  0.01250  0.44640  Biso   1.000  H
  H75      1.0000 0.02250  0.48750  0.94640  Biso   1.000  H
  H76      1.0000 0.52250  0.98750  0.94640  Biso   1.000  H
  H77      1.0000 0.97750  0.48750  0.55360  Biso   1.000  H
  H78      1.0000 0.47750  0.98750  0.55360  Biso   1.000  H
  H79      1.0000 0.97750  0.51250  0.05360  Biso   1.000  H
  H80      1.0000 0.47750  0.01250  0.05360  Biso   1.000  H
  C73      1.0000 0.20480  0.76810  0.80220  Biso   1.000  C
  C74      1.0000 0.70480  0.26810  0.80220  Biso   1.000  C
  C75      1.0000 0.20480  0.23190  0.30220  Biso   1.000  C
  C76      1.0000 0.70480  0.73190  0.30220  Biso   1.000  C
  C77      1.0000 0.79520  0.23190  0.19780  Biso   1.000  C
  C78      1.0000 0.29520  0.73190  0.19780  Biso   1.000  C
  C79      1.0000 0.79520  0.76810  0.69780  Biso   1.000  C
  C80      1.0000 0.29520  0.26810  0.69780  Biso   1.000  C
  H81      1.0000 0.20340  0.78330  0.85120  Biso   1.000  H
  H82      1.0000 0.70340  0.28330  0.85120  Biso   1.000  H
  H83      1.0000 0.20340  0.21670  0.35120  Biso   1.000  H
  H84      1.0000 0.70340  0.71670  0.35120  Biso   1.000  H
  H85      1.0000 0.79660  0.21670  0.14880  Biso   1.000  H
  H86      1.0000 0.29660  0.71670  0.14880  Biso   1.000  H
  H87      1.0000 0.79660  0.78330  0.64880  Biso   1.000  H
  H88      1.0000 0.29660  0.28330  0.64880  Biso   1.000  H
  H89      1.0000 0.24780  0.78520  0.82600  Biso   1.000  H
  H90      1.0000 0.74780  0.28520  0.82600  Biso   1.000  H
  H91      1.0000 0.24780  0.21480  0.32600  Biso   1.000  H
  H92      1.0000 0.74780  0.71480  0.32600  Biso   1.000  H
  H93      1.0000 0.75220  0.21480  0.17400  Biso   1.000  H
  H94      1.0000 0.25220  0.71480  0.17400  Biso   1.000  H
  H95      1.0000 0.75220  0.78520  0.67400  Biso   1.000  H
  H96      1.0000 0.25220  0.28520  0.67400  Biso   1.000  H
  C81      1.0000 0.11380  0.46700  0.54860  Biso   1.000  C
  C82      1.0000 0.61380  0.96700  0.54860  Biso   1.000  C
  C83      1.0000 0.11380  0.53300  0.04860  Biso   1.000  C
  C84      1.0000 0.61380  0.03300  0.04860  Biso   1.000  C
  C85      1.0000 0.88620  0.53300  0.45140  Biso   1.000  C
  C86      1.0000 0.38620  0.03300  0.45140  Biso   1.000  C
  C87      1.0000 0.88620  0.46700  0.95140  Biso   1.000  C
  C88      1.0000 0.38620  0.96700  0.95140  Biso   1.000  C
  H97      1.0000 0.09990  0.37580  0.53290  Biso   1.000  H
  H98      1.0000 0.59990  0.87580  0.53290  Biso   1.000  H
  H99      1.0000 0.09990  0.62420  0.03290  Biso   1.000  H
  H100     1.0000 0.59990  0.12420  0.03290  Biso   1.000  H
  H101     1.0000 0.90010  0.62420  0.46710  Biso   1.000  H
  H102     1.0000 0.40010  0.12420  0.46710  Biso   1.000  H
  H103     1.0000 0.90010  0.37580  0.96710  Biso   1.000  H
  H104     1.0000 0.40010  0.87580  0.96710  Biso   1.000  H
  H105     1.0000 0.15060  0.47450  0.55230  Biso   1.000  H
  H106     1.0000 0.65060  0.97450  0.55230  Biso   1.000  H
  H107     1.0000 0.15060  0.52550  0.05230  Biso   1.000  H
  H108     1.0000 0.65060  0.02550  0.05230  Biso   1.000  H
  H109     1.0000 0.84940  0.52550  0.44770  Biso   1.000  H
  H110     1.0000 0.34940  0.02550  0.44770  Biso   1.000  H
  H111     1.0000 0.84940  0.47450  0.94770  Biso   1.000  H
  H112     1.0000 0.34940  0.97450  0.94770  Biso   1.000  H
  O17      1.0000 0.06769  0.11360  0.29260  Biso   1.000  O
  O18      1.0000 0.56769  0.61360  0.29260  Biso   1.000  O
  O19      1.0000 0.06769  0.88640  0.79260  Biso   1.000  O
  O20      1.0000 0.56769  0.38640  0.79260  Biso   1.000  O
  O21      1.0000 0.93231  0.88640  0.70740  Biso   1.000  O
  O22      1.0000 0.43231  0.38640  0.70740  Biso   1.000  O
  O23      1.0000 0.93231  0.11360  0.20740  Biso   1.000  O
  O24      1.0000 0.43231  0.61360  0.20740  Biso   1.000  O
  O25      1.0000 0.16850  0.19010  0.46270  Biso   1.000  O
  O26      1.0000 0.66850  0.69010  0.46270  Biso   1.000  O
  O27      1.0000 0.16850  0.80990  0.96270  Biso   1.000  O
  O28      1.0000 0.66850  0.30990  0.96270  Biso   1.000  O
  O29      1.0000 0.83150  0.80990  0.53730  Biso   1.000  O
  O30      1.0000 0.33150  0.30990  0.53730  Biso   1.000  O
  O31      1.0000 0.83150  0.19010  0.03730  Biso   1.000  O
  O32      1.0000 0.33150  0.69010  0.03730  Biso   1.000  O
  C89      1.0000 0.09850  0.07210  0.57400  Biso   1.000  C
  C90      1.0000 0.59850  0.57210  0.57400  Biso   1.000  C
  C91      1.0000 0.09850  0.92790  0.07400  Biso   1.000  C
  C92      1.0000 0.59850  0.42790  0.07400  Biso   1.000  C
  C93      1.0000 0.90150  0.92790  0.42600  Biso   1.000  C
  C94      1.0000 0.40150  0.42790  0.42600  Biso   1.000  C
  C95      1.0000 0.90150  0.07210  0.92600  Biso   1.000  C
  C96      1.0000 0.40150  0.57210  0.92600  Biso   1.000  C
  H113     1.0000 0.12640  0.10890  0.56420  Biso   1.000  H
  H114     1.0000 0.62640  0.60890  0.56420  Biso   1.000  H
  H115     1.0000 0.12640  0.89110  0.06420  Biso   1.000  H
  H116     1.0000 0.62640  0.39110  0.06420  Biso   1.000  H
  H117     1.0000 0.87360  0.89110  0.43580  Biso   1.000  H
  H118     1.0000 0.37360  0.39110  0.43580  Biso   1.000  H
  H119     1.0000 0.87360  0.10890  0.93580  Biso   1.000  H
  H120     1.0000 0.37360  0.60890  0.93580  Biso   1.000  H
  H121     1.0000 0.05990  0.12440  0.53870  Biso   1.000  H
  H122     1.0000 0.55990  0.62440  0.53870  Biso   1.000  H
  H123     1.0000 0.05990  0.87560  0.03870  Biso   1.000  H
  H124     1.0000 0.55990  0.37560  0.03870  Biso   1.000  H
  H125     1.0000 0.94010  0.87560  0.46130  Biso   1.000  H
  H126     1.0000 0.44010  0.37560  0.46130  Biso   1.000  H
  H127     1.0000 0.94010  0.12440  0.96130  Biso   1.000  H
  H128     1.0000 0.44010  0.62440  0.96130  Biso   1.000  H
  O33      1.0000 0.02340  0.74490  0.62510  Biso   1.000  O
  O34      1.0000 0.52340  0.24490  0.62510  Biso   1.000  O
  O35      1.0000 0.02340  0.25510  0.12510  Biso   1.000  O
  O36      1.0000 0.52340  0.75510  0.12510  Biso   1.000  O
  O37      1.0000 0.97660  0.25510  0.37490  Biso   1.000  O
  O38      1.0000 0.47660  0.75510  0.37490  Biso   1.000  O
  O39      1.0000 0.97660  0.74490  0.87490  Biso   1.000  O
  O40      1.0000 0.47660  0.24490  0.87490  Biso   1.000  O
  O41      1.0000 0.92150  0.53960  0.23820  Biso   1.000  O
  O42      1.0000 0.42150  0.03960  0.23820  Biso   1.000  O
  O43      1.0000 0.92150  0.46040  0.73820  Biso   1.000  O
  O44      1.0000 0.42150  0.96040  0.73820  Biso   1.000  O
  O45      1.0000 0.07850  0.46040  0.76180  Biso   1.000  O
  O46      1.0000 0.57850  0.96040  0.76180  Biso   1.000  O
  O47      1.0000 0.07850  0.53960  0.26180  Biso   1.000  O
  O48      1.0000 0.57850  0.03960  0.26180  Biso   1.000  O
  C97      1.0000 0.12900  0.08490  0.66980  Biso   1.000  C
  C98      1.0000 0.62900  0.58490  0.66980  Biso   1.000  C
  C99      1.0000 0.12900  0.91510  0.16980  Biso   1.000  C
  C100     1.0000 0.62900  0.41510  0.16980  Biso   1.000  C
  C101     1.0000 0.87100  0.91510  0.33020  Biso   1.000  C
  C102     1.0000 0.37100  0.41510  0.33020  Biso   1.000  C
  C103     1.0000 0.87100  0.08490  0.83020  Biso   1.000  C
  C104     1.0000 0.37100  0.58490  0.83020  Biso   1.000  C
  H129     1.0000 0.14990  0.17030  0.68860  Biso   1.000  H
  H130     1.0000 0.64990  0.67030  0.68860  Biso   1.000  H
  H131     1.0000 0.14990  0.82970  0.18860  Biso   1.000  H
  H132     1.0000 0.64990  0.32970  0.18860  Biso   1.000  H
  H133     1.0000 0.85010  0.82970  0.31140  Biso   1.000  H
  H134     1.0000 0.35010  0.32970  0.31140  Biso   1.000  H
  H135     1.0000 0.85010  0.17030  0.81140  Biso   1.000  H
  H136     1.0000 0.35010  0.67030  0.81140  Biso   1.000  H
  H137     1.0000 0.09500  0.09160  0.67240  Biso   1.000  H
  H138     1.0000 0.59500  0.59160  0.67240  Biso   1.000  H
  H139     1.0000 0.09500  0.90840  0.17240  Biso   1.000  H
  H140     1.0000 0.59500  0.40840  0.17240  Biso   1.000  H
  H141     1.0000 0.90500  0.90840  0.32760  Biso   1.000  H
  H142     1.0000 0.40500  0.40840  0.32760  Biso   1.000  H
  H143     1.0000 0.90500  0.09160  0.82760  Biso   1.000  H
  H144     1.0000 0.40500  0.59160  0.82760  Biso   1.000  H
  O49      1.0000 0.00000  0.36600  0.25000  Biso   1.000  O
  O50      1.0000 0.50000  0.86600  0.25000  Biso   1.000  O
  O51      1.0000 0.00000  0.63400  0.75000  Biso   1.000  O
  O52      1.0000 0.50000  0.13400  0.75000  Biso   1.000  O
  H145     1.0000 0.17910  0.26920  0.47010  Biso   1.000  H
  H146     1.0000 0.67910  0.76920  0.47010  Biso   1.000  H
  H147     1.0000 0.17910  0.73080  0.97010  Biso   1.000  H
  H148     1.0000 0.67910  0.23080  0.97010  Biso   1.000  H
  H149     1.0000 0.82090  0.73080  0.52990  Biso   1.000  H
  H150     1.0000 0.32090  0.23080  0.52990  Biso   1.000  H
  H151     1.0000 0.82090  0.26920  0.02990  Biso   1.000  H
  H152     1.0000 0.32090  0.76920  0.02990  Biso   1.000  H
  H153     1.0000 0.20360  0.14730  0.48840  Biso   1.000  H
  H154     1.0000 0.70360  0.64730  0.48840  Biso   1.000  H
  H155     1.0000 0.20360  0.85270  0.98840  Biso   1.000  H
  H156     1.0000 0.70360  0.35270  0.98840  Biso   1.000  H
  H157     1.0000 0.79640  0.85270  0.51160  Biso   1.000  H
  H158     1.0000 0.29640  0.35270  0.51160  Biso   1.000  H
  H159     1.0000 0.79640  0.14730  0.01160  Biso   1.000  H
  H160     1.0000 0.29640  0.64730  0.01160  Biso   1.000  H
  H161     1.0000 0.03080  0.41970  0.26460  Biso   1.000  H
  H162     1.0000 0.53080  0.91970  0.26460  Biso   1.000  H
  H163     1.0000 0.03080  0.58030  0.76460  Biso   1.000  H
  H164     1.0000 0.53080  0.08030  0.76460  Biso   1.000  H
  H165     1.0000 0.96920  0.58030  0.73540  Biso   1.000  H
  H166     1.0000 0.46920  0.08030  0.73540  Biso   1.000  H
  H167     1.0000 0.96920  0.41970  0.23540  Biso   1.000  H
  H168     1.0000 0.46920  0.91970  0.23540  Biso   1.000  H
  H169     1.0000 0.09970  0.13680  0.34960  Biso   1.000  H
  H170     1.0000 0.59970  0.63680  0.34960  Biso   1.000  H
  H171     1.0000 0.09970  0.86320  0.84960  Biso   1.000  H
  H172     1.0000 0.59970  0.36320  0.84960  Biso   1.000  H
  H173     1.0000 0.90030  0.86320  0.65040  Biso   1.000  H
  H174     1.0000 0.40030  0.36320  0.65040  Biso   1.000  H
  H175     1.0000 0.90030  0.13680  0.15040  Biso   1.000  H
  H176     1.0000 0.40030  0.63680  0.15040  Biso   1.000  H
  H177     1.0000 0.04880  0.18800  0.26670  Biso   1.000  H
  H178     1.0000 0.54880  0.68800  0.26670  Biso   1.000  H
  H179     1.0000 0.04880  0.81200  0.76670  Biso   1.000  H
  H180     1.0000 0.54880  0.31200  0.76670  Biso   1.000  H
  H181     1.0000 0.95120  0.81200  0.73330  Biso   1.000  H
  H182     1.0000 0.45120  0.31200  0.73330  Biso   1.000  H
  H183     1.0000 0.95120  0.18800  0.23330  Biso   1.000  H
  H184     1.0000 0.45120  0.68800  0.23330  Biso   1.000  H
  H185     1.0000 0.94710  0.60870  0.26790  Biso   1.000  H
  H186     1.0000 0.44710  0.10870  0.26790  Biso   1.000  H
  H187     1.0000 0.94710  0.39130  0.76790  Biso   1.000  H
  H188     1.0000 0.44710  0.89130  0.76790  Biso   1.000  H
  H189     1.0000 0.05290  0.39130  0.73210  Biso   1.000  H
  H190     1.0000 0.55290  0.89130  0.73210  Biso   1.000  H
  H191     1.0000 0.05290  0.60870  0.23210  Biso   1.000  H
  H192     1.0000 0.55290  0.10870  0.23210  Biso   1.000  H
  H193     1.0000 0.89690  0.56350  0.18170  Biso   1.000  H
  H194     1.0000 0.39690  0.06350  0.18170  Biso   1.000  H
  H195     1.0000 0.89690  0.43650  0.68170  Biso   1.000  H
  H196     1.0000 0.39690  0.93650  0.68170  Biso   1.000  H
  H197     1.0000 0.10310  0.43650  0.81830  Biso   1.000  H
  H198     1.0000 0.60310  0.93650  0.81830  Biso   1.000  H
  H199     1.0000 0.10310  0.56350  0.31830  Biso   1.000  H
  H200     1.0000 0.60310  0.06350  0.31830  Biso   1.000  H
  H201     1.0000 0.00840  0.67980  0.63810  Biso   1.000  H
  H202     1.0000 0.50840  0.17980  0.63810  Biso   1.000  H
  H203     1.0000 0.00840  0.32020  0.13810  Biso   1.000  H
  H204     1.0000 0.50840  0.82020  0.13810  Biso   1.000  H
  H205     1.0000 0.99160  0.32020  0.36190  Biso   1.000  H
  H206     1.0000 0.49160  0.82020  0.36190  Biso   1.000  H
  H207     1.0000 0.99160  0.67980  0.86190  Biso   1.000  H
  H208     1.0000 0.49160  0.17980  0.86190  Biso   1.000  H
  H209     1.0000 0.00810  0.80710  0.63580  Biso   1.000  H
  H210     1.0000 0.50810  0.30710  0.63580  Biso   1.000  H
  H211     1.0000 0.00810  0.19290  0.13580  Biso   1.000  H
  H212     1.0000 0.50810  0.69290  0.13580  Biso   1.000  H
  H213     1.0000 0.99190  0.19290  0.36420  Biso   1.000  H
  H214     1.0000 0.49190  0.69290  0.36420  Biso   1.000  H
  H215     1.0000 0.99190  0.80710  0.86420  Biso   1.000  H
  H216     1.0000 0.49190  0.30710  0.86420  Biso   1.000  H
