data_image0
_cell_length_a       28.006
_cell_length_b       10.1441
_cell_length_c       19.041
_cell_angle_alpha    90
_cell_angle_beta     129.622
_cell_angle_gamma    90

_symmetry_space_group_name_H-M    "P 1"
_symmetry_int_tables_number       1

loop_
  _symmetry_equiv_pos_as_xyz
  'x, y, z'

loop_
  _atom_site_label
  _atom_site_occupancy
  _atom_site_fract_x
  _atom_site_fract_y
  _atom_site_fract_z
  _atom_site_thermal_displace_type
  _atom_site_B_iso_or_equiv
  _atom_site_type_symbol
  Gd1      1.0000 0.00000  0.93239  0.25000  Biso   1.000  Gd
  Gd2      1.0000 0.50000  0.43239  0.25000  Biso   1.000  Gd
  Gd3      1.0000 0.00000  0.06761  0.75000  Biso   1.000  Gd
  Gd4      1.0000 0.50000  0.56761  0.75000  Biso   1.000  Gd
  Cr1      1.0000 0.25000  0.75000  0.50000  Biso   1.000  Cr
  Cr2      1.0000 0.75000  0.25000  0.50000  Biso   1.000  Cr
  Cr3      1.0000 0.25000  0.25000  0.00000  Biso   1.000  Cr
  Cr4      1.0000 0.75000  0.75000  0.00000  Biso   1.000  Cr
  Cu1      1.0000 0.11478  0.77518  0.60913  Biso   1.000  Cu
  Cu2      1.0000 0.61478  0.27518  0.60913  Biso   1.000  Cu
  Cu3      1.0000 0.11478  0.22482  0.10913  Biso   1.000  Cu
  Cu4      1.0000 0.61478  0.72482  0.10913  Biso   1.000  Cu
  Cu5      1.0000 0.88522  0.22482  0.39087  Biso   1.000  Cu
  Cu6      1.0000 0.38522  0.72482  0.39087  Biso   1.000  Cu
  Cu7      1.0000 0.88522  0.77518  0.89087  Biso   1.000  Cu
  Cu8      1.0000 0.38522  0.27518  0.89087  Biso   1.000  Cu
  N1       1.0000 0.08220  0.93840  0.53970  Biso   1.000  N
  N2       1.0000 0.58220  0.43840  0.53970  Biso   1.000  N
  N3       1.0000 0.08220  0.06160  0.03970  Biso   1.000  N
  N4       1.0000 0.58220  0.56160  0.03970  Biso   1.000  N
  N5       1.0000 0.91780  0.06160  0.46030  Biso   1.000  N
  N6       1.0000 0.41780  0.56160  0.46030  Biso   1.000  N
  N7       1.0000 0.91780  0.93840  0.96030  Biso   1.000  N
  N8       1.0000 0.41780  0.43840  0.96030  Biso   1.000  N
  C1       1.0000 0.13480  0.48780  0.63730  Biso   1.000  C
  C2       1.0000 0.63480  0.98780  0.63730  Biso   1.000  C
  C3       1.0000 0.13480  0.51220  0.13730  Biso   1.000  C
  C4       1.0000 0.63480  0.01220  0.13730  Biso   1.000  C
  C5       1.0000 0.86520  0.51220  0.36270  Biso   1.000  C
  C6       1.0000 0.36520  0.01220  0.36270  Biso   1.000  C
  C7       1.0000 0.86520  0.48780  0.86270  Biso   1.000  C
  C8       1.0000 0.36520  0.98780  0.86270  Biso   1.000  C
  H1       1.0000 0.10200  0.46270  0.63870  Biso   1.000  H
  H2       1.0000 0.60200  0.96270  0.63870  Biso   1.000  H
  H3       1.0000 0.10200  0.53730  0.13870  Biso   1.000  H
  H4       1.0000 0.60200  0.03730  0.13870  Biso   1.000  H
  H5       1.0000 0.89800  0.53730  0.36130  Biso   1.000  H
  H6       1.0000 0.39800  0.03730  0.36130  Biso   1.000  H
  H7       1.0000 0.89800  0.46270  0.86130  Biso   1.000  H
  H8       1.0000 0.39800  0.96270  0.86130  Biso   1.000  H
  H9       1.0000 0.16820  0.42490  0.67510  Biso   1.000  H
  H10      1.0000 0.66820  0.92490  0.67510  Biso   1.000  H
  H11      1.0000 0.16820  0.57510  0.17510  Biso   1.000  H
  H12      1.0000 0.66820  0.07510  0.17510  Biso   1.000  H
  H13      1.0000 0.83180  0.57510  0.32490  Biso   1.000  H
  H14      1.0000 0.33180  0.07510  0.32490  Biso   1.000  H
  H15      1.0000 0.83180  0.42490  0.82490  Biso   1.000  H
  H16      1.0000 0.33180  0.92490  0.82490  Biso   1.000  H
  C9       1.0000 0.21940  0.55640  0.47990  Biso   1.000  C
  C10      1.0000 0.71940  0.05640  0.47990  Biso   1.000  C
  C11      1.0000 0.21940  0.44360  0.97990  Biso   1.000  C
  C12      1.0000 0.71940  0.94360  0.97990  Biso   1.000  C
  C13      1.0000 0.78060  0.44360  0.52010  Biso   1.000  C
  C14      1.0000 0.28060  0.94360  0.52010  Biso   1.000  C
  C15      1.0000 0.78060  0.55640  0.02010  Biso   1.000  C
  C16      1.0000 0.28060  0.05640  0.02010  Biso   1.000  C
  C17      1.0000 0.16020  0.81710  0.40220  Biso   1.000  C
  C18      1.0000 0.66020  0.31710  0.40220  Biso   1.000  C
  C19      1.0000 0.16020  0.18290  0.90220  Biso   1.000  C
  C20      1.0000 0.66020  0.68290  0.90220  Biso   1.000  C
  C21      1.0000 0.83980  0.18290  0.59780  Biso   1.000  C
  C22      1.0000 0.33980  0.68290  0.59780  Biso   1.000  C
  C23      1.0000 0.83980  0.81710  0.09780  Biso   1.000  C
  C24      1.0000 0.33980  0.31710  0.09780  Biso   1.000  C
  N9       1.0000 0.06720  0.69150  0.48910  Biso   1.000  N
  N10      1.0000 0.56720  0.19150  0.48910  Biso   1.000  N
  N11      1.0000 0.06720  0.30850  0.98910  Biso   1.000  N
  N12      1.0000 0.56720  0.80850  0.98910  Biso   1.000  N
  N13      1.0000 0.93280  0.30850  0.51090  Biso   1.000  N
  N14      1.0000 0.43280  0.80850  0.51090  Biso   1.000  N
  N15      1.0000 0.93280  0.69150  0.01090  Biso   1.000  N
  N16      1.0000 0.43280  0.19150  0.01090  Biso   1.000  N
  O1       1.0000 0.02675  0.00600  0.39020  Biso   1.000  O
  O2       1.0000 0.52675  0.50600  0.39020  Biso   1.000  O
  O3       1.0000 0.02675  0.99400  0.89020  Biso   1.000  O
  O4       1.0000 0.52675  0.49400  0.89020  Biso   1.000  O
  O5       1.0000 0.97325  0.99400  0.60980  Biso   1.000  O
  O6       1.0000 0.47325  0.49400  0.60980  Biso   1.000  O
  O7       1.0000 0.97325  0.00600  0.10980  Biso   1.000  O
  O8       1.0000 0.47325  0.50600  0.10980  Biso   1.000  O
  C25      1.0000 0.05020  0.91990  0.45320  Biso   1.000  C
  C26      1.0000 0.55020  0.41990  0.45320  Biso   1.000  C
  C27      1.0000 0.05020  0.08010  0.95320  Biso   1.000  C
  C28      1.0000 0.55020  0.58010  0.95320  Biso   1.000  C
  C29      1.0000 0.94980  0.08010  0.54680  Biso   1.000  C
  C30      1.0000 0.44980  0.58010  0.54680  Biso   1.000  C
  C31      1.0000 0.94980  0.91990  0.04680  Biso   1.000  C
  C32      1.0000 0.44980  0.41990  0.04680  Biso   1.000  C
  N17      1.0000 0.11020  0.85530  0.34970  Biso   1.000  N
  N18      1.0000 0.61020  0.35530  0.34970  Biso   1.000  N
  N19      1.0000 0.11020  0.14470  0.84970  Biso   1.000  N
  N20      1.0000 0.61020  0.64470  0.84970  Biso   1.000  N
  N21      1.0000 0.88980  0.14470  0.65030  Biso   1.000  N
  N22      1.0000 0.38980  0.64470  0.65030  Biso   1.000  N
  N23      1.0000 0.88980  0.85530  0.15030  Biso   1.000  N
  N24      1.0000 0.38980  0.35530  0.15030  Biso   1.000  N
  N25      1.0000 0.20500  0.45000  0.46940  Biso   1.000  N
  N26      1.0000 0.70500  0.95000  0.46940  Biso   1.000  N
  N27      1.0000 0.20500  0.55000  0.96940  Biso   1.000  N
  N28      1.0000 0.70500  0.05000  0.96940  Biso   1.000  N
  N29      1.0000 0.79500  0.55000  0.53060  Biso   1.000  N
  N30      1.0000 0.29500  0.05000  0.53060  Biso   1.000  N
  N31      1.0000 0.79500  0.45000  0.03060  Biso   1.000  N
  N32      1.0000 0.29500  0.95000  0.03060  Biso   1.000  N
  C33      1.0000 0.25930  0.72170  0.40150  Biso   1.000  C
  C34      1.0000 0.75930  0.22170  0.40150  Biso   1.000  C
  C35      1.0000 0.25930  0.27830  0.90150  Biso   1.000  C
  C36      1.0000 0.75930  0.77830  0.90150  Biso   1.000  C
  C37      1.0000 0.74070  0.27830  0.59850  Biso   1.000  C
  C38      1.0000 0.24070  0.77830  0.59850  Biso   1.000  C
  C39      1.0000 0.74070  0.72170  0.09850  Biso   1.000  C
  C40      1.0000 0.24070  0.22170  0.09850  Biso   1.000  C
  O9       1.0000 0.00597  0.75440  0.33720  Biso   1.000  O
  O10      1.0000 0.50597  0.25440  0.33720  Biso   1.000  O
  O11      1.0000 0.00597  0.24560  0.83720  Biso   1.000  O
  O12      1.0000 0.50597  0.74560  0.83720  Biso   1.000  O
  O13      1.0000 0.99403  0.24560  0.66280  Biso   1.000  O
  O14      1.0000 0.49403  0.74560  0.66280  Biso   1.000  O
  O15      1.0000 0.99403  0.75440  0.16280  Biso   1.000  O
  O16      1.0000 0.49403  0.25440  0.16280  Biso   1.000  O
  N33      1.0000 0.16080  0.86090  0.73040  Biso   1.000  N
  N34      1.0000 0.66080  0.36090  0.73040  Biso   1.000  N
  N35      1.0000 0.16080  0.13910  0.23040  Biso   1.000  N
  N36      1.0000 0.66080  0.63910  0.23040  Biso   1.000  N
  N37      1.0000 0.83920  0.13910  0.26960  Biso   1.000  N
  N38      1.0000 0.33920  0.63910  0.26960  Biso   1.000  N
  N39      1.0000 0.83920  0.86090  0.76960  Biso   1.000  N
  N40      1.0000 0.33920  0.36090  0.76960  Biso   1.000  N
  H17      1.0000 0.13010  0.85990  0.73440  Biso   1.000  H
  H18      1.0000 0.63010  0.35990  0.73440  Biso   1.000  H
  H19      1.0000 0.13010  0.14010  0.23440  Biso   1.000  H
  H20      1.0000 0.63010  0.64010  0.23440  Biso   1.000  H
  H21      1.0000 0.86990  0.14010  0.26560  Biso   1.000  H
  H22      1.0000 0.36990  0.64010  0.26560  Biso   1.000  H
  H23      1.0000 0.86990  0.85990  0.76560  Biso   1.000  H
  H24      1.0000 0.36990  0.35990  0.76560  Biso   1.000  H
  C41      1.0000 0.03970  0.77680  0.42330  Biso   1.000  C
  C42      1.0000 0.53970  0.27680  0.42330  Biso   1.000  C
  C43      1.0000 0.03970  0.22320  0.92330  Biso   1.000  C
  C44      1.0000 0.53970  0.72320  0.92330  Biso   1.000  C
  C45      1.0000 0.96030  0.22320  0.57670  Biso   1.000  C
  C46      1.0000 0.46030  0.72320  0.57670  Biso   1.000  C
  C47      1.0000 0.96030  0.77680  0.07670  Biso   1.000  C
  C48      1.0000 0.46030  0.27680  0.07670  Biso   1.000  C
  N41      1.0000 0.26550  0.70290  0.34860  Biso   1.000  N
  N42      1.0000 0.76550  0.20290  0.34860  Biso   1.000  N
  N43      1.0000 0.26550  0.29710  0.84860  Biso   1.000  N
  N44      1.0000 0.76550  0.79710  0.84860  Biso   1.000  N
  N45      1.0000 0.73450  0.29710  0.65140  Biso   1.000  N
  N46      1.0000 0.23450  0.79710  0.65140  Biso   1.000  N
  N47      1.0000 0.73450  0.70290  0.15140  Biso   1.000  N
  N48      1.0000 0.23450  0.20290  0.15140  Biso   1.000  N
  C49      1.0000 0.18730  0.63280  0.77360  Biso   1.000  C
  C50      1.0000 0.68730  0.13280  0.77360  Biso   1.000  C
  C51      1.0000 0.18730  0.36720  0.27360  Biso   1.000  C
  C52      1.0000 0.68730  0.86720  0.27360  Biso   1.000  C
  C53      1.0000 0.81270  0.36720  0.22640  Biso   1.000  C
  C54      1.0000 0.31270  0.86720  0.22640  Biso   1.000  C
  C55      1.0000 0.81270  0.63280  0.72640  Biso   1.000  C
  C56      1.0000 0.31270  0.13280  0.72640  Biso   1.000  C
  H25      1.0000 0.22540  0.58210  0.81000  Biso   1.000  H
  H26      1.0000 0.72540  0.08210  0.81000  Biso   1.000  H
  H27      1.0000 0.22540  0.41790  0.31000  Biso   1.000  H
  H28      1.0000 0.72540  0.91790  0.31000  Biso   1.000  H
  H29      1.0000 0.77460  0.41790  0.19000  Biso   1.000  H
  H30      1.0000 0.27460  0.91790  0.19000  Biso   1.000  H
  H31      1.0000 0.77460  0.58210  0.69000  Biso   1.000  H
  H32      1.0000 0.27460  0.08210  0.69000  Biso   1.000  H
  H33      1.0000 0.16100  0.59960  0.78630  Biso   1.000  H
  H34      1.0000 0.66100  0.09960  0.78630  Biso   1.000  H
  H35      1.0000 0.16100  0.40040  0.28630  Biso   1.000  H
  H36      1.0000 0.66100  0.90040  0.28630  Biso   1.000  H
  H37      1.0000 0.83900  0.40040  0.21370  Biso   1.000  H
  H38      1.0000 0.33900  0.90040  0.21370  Biso   1.000  H
  H39      1.0000 0.83900  0.59960  0.71370  Biso   1.000  H
  H40      1.0000 0.33900  0.09960  0.71370  Biso   1.000  H
  C57      1.0000 0.17240  0.99550  0.74090  Biso   1.000  C
  C58      1.0000 0.67240  0.49550  0.74090  Biso   1.000  C
  C59      1.0000 0.17240  0.00450  0.24090  Biso   1.000  C
  C60      1.0000 0.67240  0.50450  0.24090  Biso   1.000  C
  C61      1.0000 0.82760  0.00450  0.25910  Biso   1.000  C
  C62      1.0000 0.32760  0.50450  0.25910  Biso   1.000  C
  C63      1.0000 0.82760  0.99550  0.75910  Biso   1.000  C
  C64      1.0000 0.32760  0.49550  0.75910  Biso   1.000  C
  H41      1.0000 0.21080  0.00880  0.75140  Biso   1.000  H
  H42      1.0000 0.71080  0.50880  0.75140  Biso   1.000  H
  H43      1.0000 0.21080  0.99120  0.25140  Biso   1.000  H
  H44      1.0000 0.71080  0.49120  0.25140  Biso   1.000  H
  H45      1.0000 0.78920  0.99120  0.24860  Biso   1.000  H
  H46      1.0000 0.28920  0.49120  0.24860  Biso   1.000  H
  H47      1.0000 0.78920  0.00880  0.74860  Biso   1.000  H
  H48      1.0000 0.28920  0.50880  0.74860  Biso   1.000  H
  H49      1.0000 0.18010  0.02140  0.79640  Biso   1.000  H
  H50      1.0000 0.68010  0.52140  0.79640  Biso   1.000  H
  H51      1.0000 0.18010  0.97860  0.29640  Biso   1.000  H
  H52      1.0000 0.68010  0.47860  0.29640  Biso   1.000  H
  H53      1.0000 0.81990  0.97860  0.20360  Biso   1.000  H
  H54      1.0000 0.31990  0.47860  0.20360  Biso   1.000  H
  H55      1.0000 0.81990  0.02140  0.70360  Biso   1.000  H
  H56      1.0000 0.31990  0.52140  0.70360  Biso   1.000  H
  N49      1.0000 0.15720  0.61180  0.68060  Biso   1.000  N
  N50      1.0000 0.65720  0.11180  0.68060  Biso   1.000  N
  N51      1.0000 0.15720  0.38820  0.18060  Biso   1.000  N
  N52      1.0000 0.65720  0.88820  0.18060  Biso   1.000  N
  N53      1.0000 0.84280  0.38820  0.31940  Biso   1.000  N
  N54      1.0000 0.34280  0.88820  0.31940  Biso   1.000  N
  N55      1.0000 0.84280  0.61180  0.81940  Biso   1.000  N
  N56      1.0000 0.34280  0.11180  0.81940  Biso   1.000  N
  H57      1.0000 0.19110  0.61670  0.68390  Biso   1.000  H
  H58      1.0000 0.69110  0.11670  0.68390  Biso   1.000  H
  H59      1.0000 0.19110  0.38330  0.18390  Biso   1.000  H
  H60      1.0000 0.69110  0.88330  0.18390  Biso   1.000  H
  H61      1.0000 0.80890  0.38330  0.31610  Biso   1.000  H
  H62      1.0000 0.30890  0.88330  0.31610  Biso   1.000  H
  H63      1.0000 0.80890  0.61670  0.81610  Biso   1.000  H
  H64      1.0000 0.30890  0.11670  0.81610  Biso   1.000  H
  C65      1.0000 0.06370  0.55120  0.46850  Biso   1.000  C
  C66      1.0000 0.56370  0.05120  0.46850  Biso   1.000  C
  C67      1.0000 0.06370  0.44880  0.96850  Biso   1.000  C
  C68      1.0000 0.56370  0.94880  0.96850  Biso   1.000  C
  C69      1.0000 0.93630  0.44880  0.53150  Biso   1.000  C
  C70      1.0000 0.43630  0.94880  0.53150  Biso   1.000  C
  C71      1.0000 0.93630  0.55120  0.03150  Biso   1.000  C
  C72      1.0000 0.43630  0.05120  0.03150  Biso   1.000  C
  H65      1.0000 0.06670  0.54150  0.42080  Biso   1.000  H
  H66      1.0000 0.56670  0.04150  0.42080  Biso   1.000  H
  H67      1.0000 0.06670  0.45850  0.92080  Biso   1.000  H
  H68      1.0000 0.56670  0.95850  0.92080  Biso   1.000  H
  H69      1.0000 0.93330  0.45850  0.57920  Biso   1.000  H
  H70      1.0000 0.43330  0.95850  0.57920  Biso   1.000  H
  H71      1.0000 0.93330  0.54150  0.07920  Biso   1.000  H
  H72      1.0000 0.43330  0.04150  0.07920  Biso   1.000  H
  H73      1.0000 0.02340  0.51830  0.44490  Biso   1.000  H
  H74      1.0000 0.52340  0.01830  0.44490  Biso   1.000  H
  H75      1.0000 0.02340  0.48170  0.94490  Biso   1.000  H
  H76      1.0000 0.52340  0.98170  0.94490  Biso   1.000  H
  H77      1.0000 0.97660  0.48170  0.55510  Biso   1.000  H
  H78      1.0000 0.47660  0.98170  0.55510  Biso   1.000  H
  H79      1.0000 0.97660  0.51830  0.05510  Biso   1.000  H
  H80      1.0000 0.47660  0.01830  0.05510  Biso   1.000  H
  C73      1.0000 0.20180  0.76910  0.80160  Biso   1.000  C
  C74      1.0000 0.70180  0.26910  0.80160  Biso   1.000  C
  C75      1.0000 0.20180  0.23090  0.30160  Biso   1.000  C
  C76      1.0000 0.70180  0.73090  0.30160  Biso   1.000  C
  C77      1.0000 0.79820  0.23090  0.19840  Biso   1.000  C
  C78      1.0000 0.29820  0.73090  0.19840  Biso   1.000  C
  C79      1.0000 0.79820  0.76910  0.69840  Biso   1.000  C
  C80      1.0000 0.29820  0.26910  0.69840  Biso   1.000  C
  H81      1.0000 0.20070  0.78300  0.85100  Biso   1.000  H
  H82      1.0000 0.70070  0.28300  0.85100  Biso   1.000  H
  H83      1.0000 0.20070  0.21700  0.35100  Biso   1.000  H
  H84      1.0000 0.70070  0.71700  0.35100  Biso   1.000  H
  H85      1.0000 0.79930  0.21700  0.14900  Biso   1.000  H
  H86      1.0000 0.29930  0.71700  0.14900  Biso   1.000  H
  H87      1.0000 0.79930  0.78300  0.64900  Biso   1.000  H
  H88      1.0000 0.29930  0.28300  0.64900  Biso   1.000  H
  H89      1.0000 0.24370  0.78670  0.82510  Biso   1.000  H
  H90      1.0000 0.74370  0.28670  0.82510  Biso   1.000  H
  H91      1.0000 0.24370  0.21330  0.32510  Biso   1.000  H
  H92      1.0000 0.74370  0.71330  0.32510  Biso   1.000  H
  H93      1.0000 0.75630  0.21330  0.17490  Biso   1.000  H
  H94      1.0000 0.25630  0.71330  0.17490  Biso   1.000  H
  H95      1.0000 0.75630  0.78670  0.67490  Biso   1.000  H
  H96      1.0000 0.25630  0.28670  0.67490  Biso   1.000  H
  C81      1.0000 0.11160  0.46970  0.54640  Biso   1.000  C
  C82      1.0000 0.61160  0.96970  0.54640  Biso   1.000  C
  C83      1.0000 0.11160  0.53030  0.04640  Biso   1.000  C
  C84      1.0000 0.61160  0.03030  0.04640  Biso   1.000  C
  C85      1.0000 0.88840  0.53030  0.45360  Biso   1.000  C
  C86      1.0000 0.38840  0.03030  0.45360  Biso   1.000  C
  C87      1.0000 0.88840  0.46970  0.95360  Biso   1.000  C
  C88      1.0000 0.38840  0.96970  0.95360  Biso   1.000  C
  H97      1.0000 0.09660  0.37970  0.53020  Biso   1.000  H
  H98      1.0000 0.59660  0.87970  0.53020  Biso   1.000  H
  H99      1.0000 0.09660  0.62030  0.03020  Biso   1.000  H
  H100     1.0000 0.59660  0.12030  0.03020  Biso   1.000  H
  H101     1.0000 0.90340  0.62030  0.46980  Biso   1.000  H
  H102     1.0000 0.40340  0.12030  0.46980  Biso   1.000  H
  H103     1.0000 0.90340  0.37970  0.96980  Biso   1.000  H
  H104     1.0000 0.40340  0.87970  0.96980  Biso   1.000  H
  H105     1.0000 0.14730  0.47370  0.54900  Biso   1.000  H
  H106     1.0000 0.64730  0.97370  0.54900  Biso   1.000  H
  H107     1.0000 0.14730  0.52630  0.04900  Biso   1.000  H
  H108     1.0000 0.64730  0.02630  0.04900  Biso   1.000  H
  H109     1.0000 0.85270  0.52630  0.45100  Biso   1.000  H
  H110     1.0000 0.35270  0.02630  0.45100  Biso   1.000  H
  H111     1.0000 0.85270  0.47370  0.95100  Biso   1.000  H
  H112     1.0000 0.35270  0.97370  0.95100  Biso   1.000  H
  O17      1.0000 0.06624  0.12230  0.29340  Biso   1.000  O
  O18      1.0000 0.56624  0.62230  0.29340  Biso   1.000  O
  O19      1.0000 0.06624  0.87770  0.79340  Biso   1.000  O
  O20      1.0000 0.56624  0.37770  0.79340  Biso   1.000  O
  O21      1.0000 0.93376  0.87770  0.70660  Biso   1.000  O
  O22      1.0000 0.43376  0.37770  0.70660  Biso   1.000  O
  O23      1.0000 0.93376  0.12230  0.20660  Biso   1.000  O
  O24      1.0000 0.43376  0.62230  0.20660  Biso   1.000  O
  O25      1.0000 0.16810  0.18150  0.46510  Biso   1.000  O
  O26      1.0000 0.66810  0.68150  0.46510  Biso   1.000  O
  O27      1.0000 0.16810  0.81850  0.96510  Biso   1.000  O
  O28      1.0000 0.66810  0.31850  0.96510  Biso   1.000  O
  O29      1.0000 0.83190  0.81850  0.53490  Biso   1.000  O
  O30      1.0000 0.33190  0.31850  0.53490  Biso   1.000  O
  O31      1.0000 0.83190  0.18150  0.03490  Biso   1.000  O
  O32      1.0000 0.33190  0.68150  0.03490  Biso   1.000  O
  C89      1.0000 0.09820  0.07560  0.57470  Biso   1.000  C
  C90      1.0000 0.59820  0.57560  0.57470  Biso   1.000  C
  C91      1.0000 0.09820  0.92440  0.07470  Biso   1.000  C
  C92      1.0000 0.59820  0.42440  0.07470  Biso   1.000  C
  C93      1.0000 0.90180  0.92440  0.42530  Biso   1.000  C
  C94      1.0000 0.40180  0.42440  0.42530  Biso   1.000  C
  C95      1.0000 0.90180  0.07560  0.92530  Biso   1.000  C
  C96      1.0000 0.40180  0.57560  0.92530  Biso   1.000  C
  H113     1.0000 0.12560  0.11210  0.56510  Biso   1.000  H
  H114     1.0000 0.62560  0.61210  0.56510  Biso   1.000  H
  H115     1.0000 0.12560  0.88790  0.06510  Biso   1.000  H
  H116     1.0000 0.62560  0.38790  0.06510  Biso   1.000  H
  H117     1.0000 0.87440  0.88790  0.43490  Biso   1.000  H
  H118     1.0000 0.37440  0.38790  0.43490  Biso   1.000  H
  H119     1.0000 0.87440  0.11210  0.93490  Biso   1.000  H
  H120     1.0000 0.37440  0.61210  0.93490  Biso   1.000  H
  H121     1.0000 0.06060  0.12800  0.53970  Biso   1.000  H
  H122     1.0000 0.56060  0.62800  0.53970  Biso   1.000  H
  H123     1.0000 0.06060  0.87200  0.03970  Biso   1.000  H
  H124     1.0000 0.56060  0.37200  0.03970  Biso   1.000  H
  H125     1.0000 0.93940  0.87200  0.46030  Biso   1.000  H
  H126     1.0000 0.43940  0.37200  0.46030  Biso   1.000  H
  H127     1.0000 0.93940  0.12800  0.96030  Biso   1.000  H
  H128     1.0000 0.43940  0.62800  0.96030  Biso   1.000  H
  O33      1.0000 0.02390  0.74270  0.62460  Biso   1.000  O
  O34      1.0000 0.52390  0.24270  0.62460  Biso   1.000  O
  O35      1.0000 0.02390  0.25730  0.12460  Biso   1.000  O
  O36      1.0000 0.52390  0.75730  0.12460  Biso   1.000  O
  O37      1.0000 0.97610  0.25730  0.37540  Biso   1.000  O
  O38      1.0000 0.47610  0.75730  0.37540  Biso   1.000  O
  O39      1.0000 0.97610  0.74270  0.87540  Biso   1.000  O
  O40      1.0000 0.47610  0.24270  0.87540  Biso   1.000  O
  O41      1.0000 0.92390  0.54680  0.24130  Biso   1.000  O
  O42      1.0000 0.42390  0.04680  0.24130  Biso   1.000  O
  O43      1.0000 0.92390  0.45320  0.74130  Biso   1.000  O
  O44      1.0000 0.42390  0.95320  0.74130  Biso   1.000  O
  O45      1.0000 0.07610  0.45320  0.75870  Biso   1.000  O
  O46      1.0000 0.57610  0.95320  0.75870  Biso   1.000  O
  O47      1.0000 0.07610  0.54680  0.25870  Biso   1.000  O
  O48      1.0000 0.57610  0.04680  0.25870  Biso   1.000  O
  C97      1.0000 0.12790  0.08700  0.67110  Biso   1.000  C
  C98      1.0000 0.62790  0.58700  0.67110  Biso   1.000  C
  C99      1.0000 0.12790  0.91300  0.17110  Biso   1.000  C
  C100     1.0000 0.62790  0.41300  0.17110  Biso   1.000  C
  C101     1.0000 0.87210  0.91300  0.32890  Biso   1.000  C
  C102     1.0000 0.37210  0.41300  0.32890  Biso   1.000  C
  C103     1.0000 0.87210  0.08700  0.82890  Biso   1.000  C
  C104     1.0000 0.37210  0.58700  0.82890  Biso   1.000  C
  H129     1.0000 0.14800  0.17250  0.69040  Biso   1.000  H
  H130     1.0000 0.64800  0.67250  0.69040  Biso   1.000  H
  H131     1.0000 0.14800  0.82750  0.19040  Biso   1.000  H
  H132     1.0000 0.64800  0.32750  0.19040  Biso   1.000  H
  H133     1.0000 0.85200  0.82750  0.30960  Biso   1.000  H
  H134     1.0000 0.35200  0.32750  0.30960  Biso   1.000  H
  H135     1.0000 0.85200  0.17250  0.80960  Biso   1.000  H
  H136     1.0000 0.35200  0.67250  0.80960  Biso   1.000  H
  H137     1.0000 0.09460  0.09170  0.67390  Biso   1.000  H
  H138     1.0000 0.59460  0.59170  0.67390  Biso   1.000  H
  H139     1.0000 0.09460  0.90830  0.17390  Biso   1.000  H
  H140     1.0000 0.59460  0.40830  0.17390  Biso   1.000  H
  H141     1.0000 0.90540  0.90830  0.32610  Biso   1.000  H
  H142     1.0000 0.40540  0.40830  0.32610  Biso   1.000  H
  H143     1.0000 0.90540  0.09170  0.82610  Biso   1.000  H
  H144     1.0000 0.40540  0.59170  0.82610  Biso   1.000  H
  O49      1.0000 0.00000  0.37370  0.25000  Biso   1.000  O
  O50      1.0000 0.50000  0.87370  0.25000  Biso   1.000  O
  O51      1.0000 0.00000  0.62630  0.75000  Biso   1.000  O
  O52      1.0000 0.50000  0.12630  0.75000  Biso   1.000  O
