data_image0
_cell_length_a       27.51
_cell_length_b       10.13
_cell_length_c       19.055
_cell_angle_alpha    90
_cell_angle_beta     129.767
_cell_angle_gamma    90

_symmetry_space_group_name_H-M    "P 1"
_symmetry_int_tables_number       1

loop_
  _symmetry_equiv_pos_as_xyz
  'x, y, z'

loop_
  _atom_site_label
  _atom_site_occupancy
  _atom_site_fract_x
  _atom_site_fract_y
  _atom_site_fract_z
  _atom_site_thermal_displace_type
  _atom_site_B_iso_or_equiv
  _atom_site_type_symbol
  Gd1      1.0000 0.00000  0.92755  0.25000  Biso   1.000  Gd
  Gd2      1.0000 0.50000  0.42755  0.25000  Biso   1.000  Gd
  Gd3      1.0000 0.00000  0.07245  0.75000  Biso   1.000  Gd
  Gd4      1.0000 0.50000  0.57245  0.75000  Biso   1.000  Gd
  Fe1      1.0000 0.25000  0.75000  0.50000  Biso   1.000  Fe
  Fe2      1.0000 0.75000  0.25000  0.50000  Biso   1.000  Fe
  Fe3      1.0000 0.25000  0.25000  0.00000  Biso   1.000  Fe
  Fe4      1.0000 0.75000  0.75000  0.00000  Biso   1.000  Fe
  Cu1      1.0000 0.11572  0.77423  0.60967  Biso   1.000  Cu
  Cu2      1.0000 0.61572  0.27423  0.60967  Biso   1.000  Cu
  Cu3      1.0000 0.11572  0.22577  0.10967  Biso   1.000  Cu
  Cu4      1.0000 0.61572  0.72577  0.10967  Biso   1.000  Cu
  Cu5      1.0000 0.88428  0.22577  0.39033  Biso   1.000  Cu
  Cu6      1.0000 0.38428  0.72577  0.39033  Biso   1.000  Cu
  Cu7      1.0000 0.88428  0.77423  0.89033  Biso   1.000  Cu
  Cu8      1.0000 0.38428  0.27423  0.89033  Biso   1.000  Cu
  N1       1.0000 0.08250  0.93780  0.53940  Biso   1.000  N
  N2       1.0000 0.58250  0.43780  0.53940  Biso   1.000  N
  N3       1.0000 0.08250  0.06220  0.03940  Biso   1.000  N
  N4       1.0000 0.58250  0.56220  0.03940  Biso   1.000  N
  N5       1.0000 0.91750  0.06220  0.46060  Biso   1.000  N
  N6       1.0000 0.41750  0.56220  0.46060  Biso   1.000  N
  N7       1.0000 0.91750  0.93780  0.96060  Biso   1.000  N
  N8       1.0000 0.41750  0.43780  0.96060  Biso   1.000  N
  C1       1.0000 0.13620  0.48610  0.63880  Biso   1.000  C
  C2       1.0000 0.63620  0.98610  0.63880  Biso   1.000  C
  C3       1.0000 0.13620  0.51390  0.13880  Biso   1.000  C
  C4       1.0000 0.63620  0.01390  0.13880  Biso   1.000  C
  C5       1.0000 0.86380  0.51390  0.36120  Biso   1.000  C
  C6       1.0000 0.36380  0.01390  0.36120  Biso   1.000  C
  C7       1.0000 0.86380  0.48610  0.86120  Biso   1.000  C
  C8       1.0000 0.36380  0.98610  0.86120  Biso   1.000  C
  H1       1.0000 0.10210  0.46160  0.63870  Biso   1.000  H
  H2       1.0000 0.60210  0.96160  0.63870  Biso   1.000  H
  H3       1.0000 0.10210  0.53840  0.13870  Biso   1.000  H
  H4       1.0000 0.60210  0.03840  0.13870  Biso   1.000  H
  H5       1.0000 0.89790  0.53840  0.36130  Biso   1.000  H
  H6       1.0000 0.39790  0.03840  0.36130  Biso   1.000  H
  H7       1.0000 0.89790  0.46160  0.86130  Biso   1.000  H
  H8       1.0000 0.39790  0.96160  0.86130  Biso   1.000  H
  H9       1.0000 0.17000  0.42290  0.67730  Biso   1.000  H
  H10      1.0000 0.67000  0.92290  0.67730  Biso   1.000  H
  H11      1.0000 0.17000  0.57710  0.17730  Biso   1.000  H
  H12      1.0000 0.67000  0.07710  0.17730  Biso   1.000  H
  H13      1.0000 0.83000  0.57710  0.32270  Biso   1.000  H
  H14      1.0000 0.33000  0.07710  0.32270  Biso   1.000  H
  H15      1.0000 0.83000  0.42290  0.82270  Biso   1.000  H
  H16      1.0000 0.33000  0.92290  0.82270  Biso   1.000  H
  C9       1.0000 0.22230  0.56720  0.48160  Biso   1.000  C
  C10      1.0000 0.72230  0.06720  0.48160  Biso   1.000  C
  C11      1.0000 0.22230  0.43280  0.98160  Biso   1.000  C
  C12      1.0000 0.72230  0.93280  0.98160  Biso   1.000  C
  C13      1.0000 0.77770  0.43280  0.51840  Biso   1.000  C
  C14      1.0000 0.27770  0.93280  0.51840  Biso   1.000  C
  C15      1.0000 0.77770  0.56720  0.01840  Biso   1.000  C
  C16      1.0000 0.27770  0.06720  0.01840  Biso   1.000  C
  C17      1.0000 0.16390  0.81220  0.40660  Biso   1.000  C
  C18      1.0000 0.66390  0.31220  0.40660  Biso   1.000  C
  C19      1.0000 0.16390  0.18780  0.90660  Biso   1.000  C
  C20      1.0000 0.66390  0.68780  0.90660  Biso   1.000  C
  C21      1.0000 0.83610  0.18780  0.59340  Biso   1.000  C
  C22      1.0000 0.33610  0.68780  0.59340  Biso   1.000  C
  C23      1.0000 0.83610  0.81220  0.09340  Biso   1.000  C
  C24      1.0000 0.33610  0.31220  0.09340  Biso   1.000  C
  N9       1.0000 0.06700  0.68940  0.48970  Biso   1.000  N
  N10      1.0000 0.56700  0.18940  0.48970  Biso   1.000  N
  N11      1.0000 0.06700  0.31060  0.98970  Biso   1.000  N
  N12      1.0000 0.56700  0.81060  0.98970  Biso   1.000  N
  N13      1.0000 0.93300  0.31060  0.51030  Biso   1.000  N
  N14      1.0000 0.43300  0.81060  0.51030  Biso   1.000  N
  N15      1.0000 0.93300  0.68940  0.01030  Biso   1.000  N
  N16      1.0000 0.43300  0.18940  0.01030  Biso   1.000  N
  O1       1.0000 0.02692  0.00400  0.38970  Biso   1.000  O
  O2       1.0000 0.52692  0.50400  0.38970  Biso   1.000  O
  O3       1.0000 0.02692  0.99600  0.88970  Biso   1.000  O
  O4       1.0000 0.52692  0.49600  0.88970  Biso   1.000  O
  O5       1.0000 0.97308  0.99600  0.61030  Biso   1.000  O
  O6       1.0000 0.47308  0.49600  0.61030  Biso   1.000  O
  O7       1.0000 0.97308  0.00400  0.11030  Biso   1.000  O
  O8       1.0000 0.47308  0.50400  0.11030  Biso   1.000  O
  C25      1.0000 0.05000  0.91810  0.45270  Biso   1.000  C
  C26      1.0000 0.55000  0.41810  0.45270  Biso   1.000  C
  C27      1.0000 0.05000  0.08190  0.95270  Biso   1.000  C
  C28      1.0000 0.55000  0.58190  0.95270  Biso   1.000  C
  C29      1.0000 0.95000  0.08190  0.54730  Biso   1.000  C
  C30      1.0000 0.45000  0.58190  0.54730  Biso   1.000  C
  C31      1.0000 0.95000  0.91810  0.04730  Biso   1.000  C
  C32      1.0000 0.45000  0.41810  0.04730  Biso   1.000  C
  N17      1.0000 0.11320  0.84920  0.35240  Biso   1.000  N
  N18      1.0000 0.61320  0.34920  0.35240  Biso   1.000  N
  N19      1.0000 0.11320  0.15080  0.85240  Biso   1.000  N
  N20      1.0000 0.61320  0.65080  0.85240  Biso   1.000  N
  N21      1.0000 0.88680  0.15080  0.64760  Biso   1.000  N
  N22      1.0000 0.38680  0.65080  0.64760  Biso   1.000  N
  N23      1.0000 0.88680  0.84920  0.14760  Biso   1.000  N
  N24      1.0000 0.38680  0.34920  0.14760  Biso   1.000  N
  N25      1.0000 0.20750  0.45950  0.47100  Biso   1.000  N
  N26      1.0000 0.70750  0.95950  0.47100  Biso   1.000  N
  N27      1.0000 0.20750  0.54050  0.97100  Biso   1.000  N
  N28      1.0000 0.70750  0.04050  0.97100  Biso   1.000  N
  N29      1.0000 0.79250  0.54050  0.52900  Biso   1.000  N
  N30      1.0000 0.29250  0.04050  0.52900  Biso   1.000  N
  N31      1.0000 0.79250  0.45950  0.02900  Biso   1.000  N
  N32      1.0000 0.29250  0.95950  0.02900  Biso   1.000  N
  C33      1.0000 0.26040  0.72430  0.40870  Biso   1.000  C
  C34      1.0000 0.76040  0.22430  0.40870  Biso   1.000  C
  C35      1.0000 0.26040  0.27570  0.90870  Biso   1.000  C
  C36      1.0000 0.76040  0.77570  0.90870  Biso   1.000  C
  C37      1.0000 0.73960  0.27570  0.59130  Biso   1.000  C
  C38      1.0000 0.23960  0.77570  0.59130  Biso   1.000  C
  C39      1.0000 0.73960  0.72430  0.09130  Biso   1.000  C
  C40      1.0000 0.23960  0.22430  0.09130  Biso   1.000  C
  O9       1.0000 0.00501  0.75140  0.33730  Biso   1.000  O
  O10      1.0000 0.50501  0.25140  0.33730  Biso   1.000  O
  O11      1.0000 0.00501  0.24860  0.83730  Biso   1.000  O
  O12      1.0000 0.50501  0.74860  0.83730  Biso   1.000  O
  O13      1.0000 0.99499  0.24860  0.66270  Biso   1.000  O
  O14      1.0000 0.49499  0.74860  0.66270  Biso   1.000  O
  O15      1.0000 0.99499  0.75140  0.16270  Biso   1.000  O
  O16      1.0000 0.49499  0.25140  0.16270  Biso   1.000  O
  N33      1.0000 0.16170  0.86040  0.73080  Biso   1.000  N
  N34      1.0000 0.66170  0.36040  0.73080  Biso   1.000  N
  N35      1.0000 0.16170  0.13960  0.23080  Biso   1.000  N
  N36      1.0000 0.66170  0.63960  0.23080  Biso   1.000  N
  N37      1.0000 0.83830  0.13960  0.26920  Biso   1.000  N
  N38      1.0000 0.33830  0.63960  0.26920  Biso   1.000  N
  N39      1.0000 0.83830  0.86040  0.76920  Biso   1.000  N
  N40      1.0000 0.33830  0.36040  0.76920  Biso   1.000  N
  H17      1.0000 0.13050  0.85980  0.73470  Biso   1.000  H
  H18      1.0000 0.63050  0.35980  0.73470  Biso   1.000  H
  H19      1.0000 0.13050  0.14020  0.23470  Biso   1.000  H
  H20      1.0000 0.63050  0.64020  0.23470  Biso   1.000  H
  H21      1.0000 0.86950  0.14020  0.26530  Biso   1.000  H
  H22      1.0000 0.36950  0.64020  0.26530  Biso   1.000  H
  H23      1.0000 0.86950  0.85980  0.76530  Biso   1.000  H
  H24      1.0000 0.36950  0.35980  0.76530  Biso   1.000  H
  C41      1.0000 0.03960  0.77360  0.42400  Biso   1.000  C
  C42      1.0000 0.53960  0.27360  0.42400  Biso   1.000  C
  C43      1.0000 0.03960  0.22640  0.92400  Biso   1.000  C
  C44      1.0000 0.53960  0.72640  0.92400  Biso   1.000  C
  C45      1.0000 0.96040  0.22640  0.57600  Biso   1.000  C
  C46      1.0000 0.46040  0.72640  0.57600  Biso   1.000  C
  C47      1.0000 0.96040  0.77360  0.07600  Biso   1.000  C
  C48      1.0000 0.46040  0.27360  0.07600  Biso   1.000  C
  N41      1.0000 0.26660  0.70780  0.35550  Biso   1.000  N
  N42      1.0000 0.76660  0.20780  0.35550  Biso   1.000  N
  N43      1.0000 0.26660  0.29220  0.85550  Biso   1.000  N
  N44      1.0000 0.76660  0.79220  0.85550  Biso   1.000  N
  N45      1.0000 0.73340  0.29220  0.64450  Biso   1.000  N
  N46      1.0000 0.23340  0.79220  0.64450  Biso   1.000  N
  N47      1.0000 0.73340  0.70780  0.14450  Biso   1.000  N
  N48      1.0000 0.23340  0.20780  0.14450  Biso   1.000  N
  C49      1.0000 0.18860  0.63200  0.77490  Biso   1.000  C
  C50      1.0000 0.68860  0.13200  0.77490  Biso   1.000  C
  C51      1.0000 0.18860  0.36800  0.27490  Biso   1.000  C
  C52      1.0000 0.68860  0.86800  0.27490  Biso   1.000  C
  C53      1.0000 0.81140  0.36800  0.22510  Biso   1.000  C
  C54      1.0000 0.31140  0.86800  0.22510  Biso   1.000  C
  C55      1.0000 0.81140  0.63200  0.72510  Biso   1.000  C
  C56      1.0000 0.31140  0.13200  0.72510  Biso   1.000  C
  H25      1.0000 0.22700  0.57980  0.81230  Biso   1.000  H
  H26      1.0000 0.72700  0.07980  0.81230  Biso   1.000  H
  H27      1.0000 0.22700  0.42020  0.31230  Biso   1.000  H
  H28      1.0000 0.72700  0.92020  0.31230  Biso   1.000  H
  H29      1.0000 0.77300  0.42020  0.18770  Biso   1.000  H
  H30      1.0000 0.27300  0.92020  0.18770  Biso   1.000  H
  H31      1.0000 0.77300  0.57980  0.68770  Biso   1.000  H
  H32      1.0000 0.27300  0.07980  0.68770  Biso   1.000  H
  H33      1.0000 0.16080  0.60110  0.78630  Biso   1.000  H
  H34      1.0000 0.66080  0.10110  0.78630  Biso   1.000  H
  H35      1.0000 0.16080  0.39890  0.28630  Biso   1.000  H
  H36      1.0000 0.66080  0.89890  0.28630  Biso   1.000  H
  H37      1.0000 0.83920  0.39890  0.21370  Biso   1.000  H
  H38      1.0000 0.33920  0.89890  0.21370  Biso   1.000  H
  H39      1.0000 0.83920  0.60110  0.71370  Biso   1.000  H
  H40      1.0000 0.33920  0.10110  0.71370  Biso   1.000  H
  C57      1.0000 0.17430  0.99600  0.74080  Biso   1.000  C
  C58      1.0000 0.67430  0.49600  0.74080  Biso   1.000  C
  C59      1.0000 0.17430  0.00400  0.24080  Biso   1.000  C
  C60      1.0000 0.67430  0.50400  0.24080  Biso   1.000  C
  C61      1.0000 0.82570  0.00400  0.25920  Biso   1.000  C
  C62      1.0000 0.32570  0.50400  0.25920  Biso   1.000  C
  C63      1.0000 0.82570  0.99600  0.75920  Biso   1.000  C
  C64      1.0000 0.32570  0.49600  0.75920  Biso   1.000  C
  H41      1.0000 0.21270  0.00830  0.74920  Biso   1.000  H
  H42      1.0000 0.71270  0.50830  0.74920  Biso   1.000  H
  H43      1.0000 0.21270  0.99170  0.24920  Biso   1.000  H
  H44      1.0000 0.71270  0.49170  0.24920  Biso   1.000  H
  H45      1.0000 0.78730  0.99170  0.25080  Biso   1.000  H
  H46      1.0000 0.28730  0.49170  0.25080  Biso   1.000  H
  H47      1.0000 0.78730  0.00830  0.75080  Biso   1.000  H
  H48      1.0000 0.28730  0.50830  0.75080  Biso   1.000  H
  H49      1.0000 0.18360  0.02320  0.79710  Biso   1.000  H
  H50      1.0000 0.68360  0.52320  0.79710  Biso   1.000  H
  H51      1.0000 0.18360  0.97680  0.29710  Biso   1.000  H
  H52      1.0000 0.68360  0.47680  0.29710  Biso   1.000  H
  H53      1.0000 0.81640  0.97680  0.20290  Biso   1.000  H
  H54      1.0000 0.31640  0.47680  0.20290  Biso   1.000  H
  H55      1.0000 0.81640  0.02320  0.70290  Biso   1.000  H
  H56      1.0000 0.31640  0.52320  0.70290  Biso   1.000  H
  N49      1.0000 0.15890  0.61040  0.68200  Biso   1.000  N
  N50      1.0000 0.65890  0.11040  0.68200  Biso   1.000  N
  N51      1.0000 0.15890  0.38960  0.18200  Biso   1.000  N
  N52      1.0000 0.65890  0.88960  0.18200  Biso   1.000  N
  N53      1.0000 0.84110  0.38960  0.31800  Biso   1.000  N
  N54      1.0000 0.34110  0.88960  0.31800  Biso   1.000  N
  N55      1.0000 0.84110  0.61040  0.81800  Biso   1.000  N
  N56      1.0000 0.34110  0.11040  0.81800  Biso   1.000  N
  H57      1.0000 0.19370  0.61510  0.68630  Biso   1.000  H
  H58      1.0000 0.69370  0.11510  0.68630  Biso   1.000  H
  H59      1.0000 0.19370  0.38490  0.18630  Biso   1.000  H
  H60      1.0000 0.69370  0.88490  0.18630  Biso   1.000  H
  H61      1.0000 0.80630  0.38490  0.31370  Biso   1.000  H
  H62      1.0000 0.30630  0.88490  0.31370  Biso   1.000  H
  H63      1.0000 0.80630  0.61510  0.81370  Biso   1.000  H
  H64      1.0000 0.30630  0.11510  0.81370  Biso   1.000  H
  C65      1.0000 0.06320  0.54790  0.46920  Biso   1.000  C
  C66      1.0000 0.56320  0.04790  0.46920  Biso   1.000  C
  C67      1.0000 0.06320  0.45210  0.96920  Biso   1.000  C
  C68      1.0000 0.56320  0.95210  0.96920  Biso   1.000  C
  C69      1.0000 0.93680  0.45210  0.53080  Biso   1.000  C
  C70      1.0000 0.43680  0.95210  0.53080  Biso   1.000  C
  C71      1.0000 0.93680  0.54790  0.03080  Biso   1.000  C
  C72      1.0000 0.43680  0.04790  0.03080  Biso   1.000  C
  H65      1.0000 0.06500  0.53740  0.42040  Biso   1.000  H
  H66      1.0000 0.56500  0.03740  0.42040  Biso   1.000  H
  H67      1.0000 0.06500  0.46260  0.92040  Biso   1.000  H
  H68      1.0000 0.56500  0.96260  0.92040  Biso   1.000  H
  H69      1.0000 0.93500  0.46260  0.57960  Biso   1.000  H
  H70      1.0000 0.43500  0.96260  0.57960  Biso   1.000  H
  H71      1.0000 0.93500  0.53740  0.07960  Biso   1.000  H
  H72      1.0000 0.43500  0.03740  0.07960  Biso   1.000  H
  H73      1.0000 0.02260  0.51440  0.44750  Biso   1.000  H
  H74      1.0000 0.52260  0.01440  0.44750  Biso   1.000  H
  H75      1.0000 0.02260  0.48560  0.94750  Biso   1.000  H
  H76      1.0000 0.52260  0.98560  0.94750  Biso   1.000  H
  H77      1.0000 0.97740  0.48560  0.55250  Biso   1.000  H
  H78      1.0000 0.47740  0.98560  0.55250  Biso   1.000  H
  H79      1.0000 0.97740  0.51440  0.05250  Biso   1.000  H
  H80      1.0000 0.47740  0.01440  0.05250  Biso   1.000  H
  C73      1.0000 0.20440  0.76950  0.80250  Biso   1.000  C
  C74      1.0000 0.70440  0.26950  0.80250  Biso   1.000  C
  C75      1.0000 0.20440  0.23050  0.30250  Biso   1.000  C
  C76      1.0000 0.70440  0.73050  0.30250  Biso   1.000  C
  C77      1.0000 0.79560  0.23050  0.19750  Biso   1.000  C
  C78      1.0000 0.29560  0.73050  0.19750  Biso   1.000  C
  C79      1.0000 0.79560  0.76950  0.69750  Biso   1.000  C
  C80      1.0000 0.29560  0.26950  0.69750  Biso   1.000  C
  H81      1.0000 0.20450  0.78480  0.85280  Biso   1.000  H
  H82      1.0000 0.70450  0.28480  0.85280  Biso   1.000  H
  H83      1.0000 0.20450  0.21520  0.35280  Biso   1.000  H
  H84      1.0000 0.70450  0.71520  0.35280  Biso   1.000  H
  H85      1.0000 0.79550  0.21520  0.14720  Biso   1.000  H
  H86      1.0000 0.29550  0.71520  0.14720  Biso   1.000  H
  H87      1.0000 0.79550  0.78480  0.64720  Biso   1.000  H
  H88      1.0000 0.29550  0.28480  0.64720  Biso   1.000  H
  H89      1.0000 0.24680  0.78640  0.82430  Biso   1.000  H
  H90      1.0000 0.74680  0.28640  0.82430  Biso   1.000  H
  H91      1.0000 0.24680  0.21360  0.32430  Biso   1.000  H
  H92      1.0000 0.74680  0.71360  0.32430  Biso   1.000  H
  H93      1.0000 0.75320  0.21360  0.17570  Biso   1.000  H
  H94      1.0000 0.25320  0.71360  0.17570  Biso   1.000  H
  H95      1.0000 0.75320  0.78640  0.67570  Biso   1.000  H
  H96      1.0000 0.25320  0.28640  0.67570  Biso   1.000  H
  C81      1.0000 0.11360  0.46850  0.54780  Biso   1.000  C
  C82      1.0000 0.61360  0.96850  0.54780  Biso   1.000  C
  C83      1.0000 0.11360  0.53150  0.04780  Biso   1.000  C
  C84      1.0000 0.61360  0.03150  0.04780  Biso   1.000  C
  C85      1.0000 0.88640  0.53150  0.45220  Biso   1.000  C
  C86      1.0000 0.38640  0.03150  0.45220  Biso   1.000  C
  C87      1.0000 0.88640  0.46850  0.95220  Biso   1.000  C
  C88      1.0000 0.38640  0.96850  0.95220  Biso   1.000  C
  H97      1.0000 0.10010  0.37720  0.53190  Biso   1.000  H
  H98      1.0000 0.60010  0.87720  0.53190  Biso   1.000  H
  H99      1.0000 0.10010  0.62280  0.03190  Biso   1.000  H
  H100     1.0000 0.60010  0.12280  0.03190  Biso   1.000  H
  H101     1.0000 0.89990  0.62280  0.46810  Biso   1.000  H
  H102     1.0000 0.39990  0.12280  0.46810  Biso   1.000  H
  H103     1.0000 0.89990  0.37720  0.96810  Biso   1.000  H
  H104     1.0000 0.39990  0.87720  0.96810  Biso   1.000  H
  H105     1.0000 0.15010  0.47730  0.55120  Biso   1.000  H
  H106     1.0000 0.65010  0.97730  0.55120  Biso   1.000  H
  H107     1.0000 0.15010  0.52270  0.05120  Biso   1.000  H
  H108     1.0000 0.65010  0.02270  0.05120  Biso   1.000  H
  H109     1.0000 0.84990  0.52270  0.44880  Biso   1.000  H
  H110     1.0000 0.34990  0.02270  0.44880  Biso   1.000  H
  H111     1.0000 0.84990  0.47730  0.94880  Biso   1.000  H
  H112     1.0000 0.34990  0.97730  0.94880  Biso   1.000  H
  O17      1.0000 0.06752  0.11760  0.29260  Biso   1.000  O
  O18      1.0000 0.56752  0.61760  0.29260  Biso   1.000  O
  O19      1.0000 0.06752  0.88240  0.79260  Biso   1.000  O
  O20      1.0000 0.56752  0.38240  0.79260  Biso   1.000  O
  O21      1.0000 0.93248  0.88240  0.70740  Biso   1.000  O
  O22      1.0000 0.43248  0.38240  0.70740  Biso   1.000  O
  O23      1.0000 0.93248  0.11760  0.20740  Biso   1.000  O
  O24      1.0000 0.43248  0.61760  0.20740  Biso   1.000  O
  O25      1.0000 0.16840  0.18720  0.46410  Biso   1.000  O
  O26      1.0000 0.66840  0.68720  0.46410  Biso   1.000  O
  O27      1.0000 0.16840  0.81280  0.96410  Biso   1.000  O
  O28      1.0000 0.66840  0.31280  0.96410  Biso   1.000  O
  O29      1.0000 0.83160  0.81280  0.53590  Biso   1.000  O
  O30      1.0000 0.33160  0.31280  0.53590  Biso   1.000  O
  O31      1.0000 0.83160  0.18720  0.03590  Biso   1.000  O
  O32      1.0000 0.33160  0.68720  0.03590  Biso   1.000  O
  C89      1.0000 0.09870  0.07500  0.57460  Biso   1.000  C
  C90      1.0000 0.59870  0.57500  0.57460  Biso   1.000  C
  C91      1.0000 0.09870  0.92500  0.07460  Biso   1.000  C
  C92      1.0000 0.59870  0.42500  0.07460  Biso   1.000  C
  C93      1.0000 0.90130  0.92500  0.42540  Biso   1.000  C
  C94      1.0000 0.40130  0.42500  0.42540  Biso   1.000  C
  C95      1.0000 0.90130  0.07500  0.92540  Biso   1.000  C
  C96      1.0000 0.40130  0.57500  0.92540  Biso   1.000  C
  H113     1.0000 0.12750  0.11100  0.56660  Biso   1.000  H
  H114     1.0000 0.62750  0.61100  0.56660  Biso   1.000  H
  H115     1.0000 0.12750  0.88900  0.06660  Biso   1.000  H
  H116     1.0000 0.62750  0.38900  0.06660  Biso   1.000  H
  H117     1.0000 0.87250  0.88900  0.43340  Biso   1.000  H
  H118     1.0000 0.37250  0.38900  0.43340  Biso   1.000  H
  H119     1.0000 0.87250  0.11100  0.93340  Biso   1.000  H
  H120     1.0000 0.37250  0.61100  0.93340  Biso   1.000  H
  H121     1.0000 0.06050  0.12790  0.53830  Biso   1.000  H
  H122     1.0000 0.56050  0.62790  0.53830  Biso   1.000  H
  H123     1.0000 0.06050  0.87210  0.03830  Biso   1.000  H
  H124     1.0000 0.56050  0.37210  0.03830  Biso   1.000  H
  H125     1.0000 0.93950  0.87210  0.46170  Biso   1.000  H
  H126     1.0000 0.43950  0.37210  0.46170  Biso   1.000  H
  H127     1.0000 0.93950  0.12790  0.96170  Biso   1.000  H
  H128     1.0000 0.43950  0.62790  0.96170  Biso   1.000  H
  O33      1.0000 0.02360  0.74230  0.62490  Biso   1.000  O
  O34      1.0000 0.52360  0.24230  0.62490  Biso   1.000  O
  O35      1.0000 0.02360  0.25770  0.12490  Biso   1.000  O
  O36      1.0000 0.52360  0.75770  0.12490  Biso   1.000  O
  O37      1.0000 0.97640  0.25770  0.37510  Biso   1.000  O
  O38      1.0000 0.47640  0.75770  0.37510  Biso   1.000  O
  O39      1.0000 0.97640  0.74230  0.87510  Biso   1.000  O
  O40      1.0000 0.47640  0.24230  0.87510  Biso   1.000  O
  O41      1.0000 0.92220  0.54150  0.23900  Biso   1.000  O
  O42      1.0000 0.42220  0.04150  0.23900  Biso   1.000  O
  O43      1.0000 0.92220  0.45850  0.73900  Biso   1.000  O
  O44      1.0000 0.42220  0.95850  0.73900  Biso   1.000  O
  O45      1.0000 0.07780  0.45850  0.76100  Biso   1.000  O
  O46      1.0000 0.57780  0.95850  0.76100  Biso   1.000  O
  O47      1.0000 0.07780  0.54150  0.26100  Biso   1.000  O
  O48      1.0000 0.57780  0.04150  0.26100  Biso   1.000  O
  C97      1.0000 0.12750  0.08700  0.67020  Biso   1.000  C
  C98      1.0000 0.62750  0.58700  0.67020  Biso   1.000  C
  C99      1.0000 0.12750  0.91300  0.17020  Biso   1.000  C
  C100     1.0000 0.62750  0.41300  0.17020  Biso   1.000  C
  C101     1.0000 0.87250  0.91300  0.32980  Biso   1.000  C
  C102     1.0000 0.37250  0.41300  0.32980  Biso   1.000  C
  C103     1.0000 0.87250  0.08700  0.82980  Biso   1.000  C
  C104     1.0000 0.37250  0.58700  0.82980  Biso   1.000  C
  H129     1.0000 0.09300  0.08790  0.67190  Biso   1.000  H
  H130     1.0000 0.59300  0.58790  0.67190  Biso   1.000  H
  H131     1.0000 0.09300  0.91210  0.17190  Biso   1.000  H
  H132     1.0000 0.59300  0.41210  0.17190  Biso   1.000  H
  H133     1.0000 0.90700  0.91210  0.32810  Biso   1.000  H
  H134     1.0000 0.40700  0.41210  0.32810  Biso   1.000  H
  H135     1.0000 0.90700  0.08790  0.82810  Biso   1.000  H
  H136     1.0000 0.40700  0.58790  0.82810  Biso   1.000  H
  H137     1.0000 0.14670  0.17390  0.68960  Biso   1.000  H
  H138     1.0000 0.64670  0.67390  0.68960  Biso   1.000  H
  H139     1.0000 0.14670  0.82610  0.18960  Biso   1.000  H
  H140     1.0000 0.64670  0.32610  0.18960  Biso   1.000  H
  H141     1.0000 0.85330  0.82610  0.31040  Biso   1.000  H
  H142     1.0000 0.35330  0.32610  0.31040  Biso   1.000  H
  H143     1.0000 0.85330  0.17390  0.81040  Biso   1.000  H
  H144     1.0000 0.35330  0.67390  0.81040  Biso   1.000  H
  O49      1.0000 0.00000  0.37090  0.25000  Biso   1.000  O
  O50      1.0000 0.50000  0.87090  0.25000  Biso   1.000  O
  O51      1.0000 0.00000  0.62910  0.75000  Biso   1.000  O
  O52      1.0000 0.50000  0.12910  0.75000  Biso   1.000  O
  H145     1.0000 0.17910  0.26920  0.47010  Biso   1.000  H
  H146     1.0000 0.67910  0.76920  0.47010  Biso   1.000  H
  H147     1.0000 0.17910  0.73080  0.97010  Biso   1.000  H
  H148     1.0000 0.67910  0.23080  0.97010  Biso   1.000  H
  H149     1.0000 0.82090  0.73080  0.52990  Biso   1.000  H
  H150     1.0000 0.32090  0.23080  0.52990  Biso   1.000  H
  H151     1.0000 0.82090  0.26920  0.02990  Biso   1.000  H
  H152     1.0000 0.32090  0.76920  0.02990  Biso   1.000  H
  H153     1.0000 0.20360  0.14730  0.48840  Biso   1.000  H
  H154     1.0000 0.70360  0.64730  0.48840  Biso   1.000  H
  H155     1.0000 0.20360  0.85270  0.98840  Biso   1.000  H
  H156     1.0000 0.70360  0.35270  0.98840  Biso   1.000  H
  H157     1.0000 0.79640  0.85270  0.51160  Biso   1.000  H
  H158     1.0000 0.29640  0.35270  0.51160  Biso   1.000  H
  H159     1.0000 0.79640  0.14730  0.01160  Biso   1.000  H
  H160     1.0000 0.29640  0.64730  0.01160  Biso   1.000  H
  H161     1.0000 0.03080  0.41970  0.26460  Biso   1.000  H
  H162     1.0000 0.53080  0.91970  0.26460  Biso   1.000  H
  H163     1.0000 0.03080  0.58030  0.76460  Biso   1.000  H
  H164     1.0000 0.53080  0.08030  0.76460  Biso   1.000  H
  H165     1.0000 0.96920  0.58030  0.73540  Biso   1.000  H
  H166     1.0000 0.46920  0.08030  0.73540  Biso   1.000  H
  H167     1.0000 0.96920  0.41970  0.23540  Biso   1.000  H
  H168     1.0000 0.46920  0.91970  0.23540  Biso   1.000  H
  H169     1.0000 0.09970  0.13680  0.34960  Biso   1.000  H
  H170     1.0000 0.59970  0.63680  0.34960  Biso   1.000  H
  H171     1.0000 0.09970  0.86320  0.84960  Biso   1.000  H
  H172     1.0000 0.59970  0.36320  0.84960  Biso   1.000  H
  H173     1.0000 0.90030  0.86320  0.65040  Biso   1.000  H
  H174     1.0000 0.40030  0.36320  0.65040  Biso   1.000  H
  H175     1.0000 0.90030  0.13680  0.15040  Biso   1.000  H
  H176     1.0000 0.40030  0.63680  0.15040  Biso   1.000  H
  H177     1.0000 0.04880  0.18800  0.26670  Biso   1.000  H
  H178     1.0000 0.54880  0.68800  0.26670  Biso   1.000  H
  H179     1.0000 0.04880  0.81200  0.76670  Biso   1.000  H
  H180     1.0000 0.54880  0.31200  0.76670  Biso   1.000  H
  H181     1.0000 0.95120  0.81200  0.73330  Biso   1.000  H
  H182     1.0000 0.45120  0.31200  0.73330  Biso   1.000  H
  H183     1.0000 0.95120  0.18800  0.23330  Biso   1.000  H
  H184     1.0000 0.45120  0.68800  0.23330  Biso   1.000  H
  H185     1.0000 0.94710  0.60870  0.26790  Biso   1.000  H
  H186     1.0000 0.44710  0.10870  0.26790  Biso   1.000  H
  H187     1.0000 0.94710  0.39130  0.76790  Biso   1.000  H
  H188     1.0000 0.44710  0.89130  0.76790  Biso   1.000  H
  H189     1.0000 0.05290  0.39130  0.73210  Biso   1.000  H
  H190     1.0000 0.55290  0.89130  0.73210  Biso   1.000  H
  H191     1.0000 0.05290  0.60870  0.23210  Biso   1.000  H
  H192     1.0000 0.55290  0.10870  0.23210  Biso   1.000  H
  H193     1.0000 0.89690  0.56350  0.18170  Biso   1.000  H
  H194     1.0000 0.39690  0.06350  0.18170  Biso   1.000  H
  H195     1.0000 0.89690  0.43650  0.68170  Biso   1.000  H
  H196     1.0000 0.39690  0.93650  0.68170  Biso   1.000  H
  H197     1.0000 0.10310  0.43650  0.81830  Biso   1.000  H
  H198     1.0000 0.60310  0.93650  0.81830  Biso   1.000  H
  H199     1.0000 0.10310  0.56350  0.31830  Biso   1.000  H
  H200     1.0000 0.60310  0.06350  0.31830  Biso   1.000  H
  H201     1.0000 0.00840  0.67980  0.63810  Biso   1.000  H
  H202     1.0000 0.50840  0.17980  0.63810  Biso   1.000  H
  H203     1.0000 0.00840  0.32020  0.13810  Biso   1.000  H
  H204     1.0000 0.50840  0.82020  0.13810  Biso   1.000  H
  H205     1.0000 0.99160  0.32020  0.36190  Biso   1.000  H
  H206     1.0000 0.49160  0.82020  0.36190  Biso   1.000  H
  H207     1.0000 0.99160  0.67980  0.86190  Biso   1.000  H
  H208     1.0000 0.49160  0.17980  0.86190  Biso   1.000  H
  H209     1.0000 0.00810  0.80710  0.63580  Biso   1.000  H
  H210     1.0000 0.50810  0.30710  0.63580  Biso   1.000  H
  H211     1.0000 0.00810  0.19290  0.13580  Biso   1.000  H
  H212     1.0000 0.50810  0.69290  0.13580  Biso   1.000  H
  H213     1.0000 0.99190  0.19290  0.36420  Biso   1.000  H
  H214     1.0000 0.49190  0.69290  0.36420  Biso   1.000  H
  H215     1.0000 0.99190  0.80710  0.86420  Biso   1.000  H
  H216     1.0000 0.49190  0.30710  0.86420  Biso   1.000  H
