data_image0
_cell_length_a       17.6597
_cell_length_b       17.6597
_cell_length_c       13.4462
_cell_angle_alpha    90
_cell_angle_beta     90
_cell_angle_gamma    120

_symmetry_space_group_name_H-M    "P 1"
_symmetry_int_tables_number       1

loop_
  _symmetry_equiv_pos_as_xyz
  'x, y, z'

loop_
  _atom_site_label
  _atom_site_occupancy
  _atom_site_fract_x
  _atom_site_fract_y
  _atom_site_fract_z
  _atom_site_thermal_displace_type
  _atom_site_B_iso_or_equiv
  _atom_site_type_symbol
  Cu1      1.0000 0.86783  0.44540  0.59162  Biso   1.000  Cu
  Cu2      1.0000 0.55460  0.42243  0.59162  Biso   1.000  Cu
  Cu3      1.0000 0.57757  0.13217  0.59162  Biso   1.000  Cu
  Cu4      1.0000 0.13217  0.55460  0.09162  Biso   1.000  Cu
  Cu5      1.0000 0.44540  0.57757  0.09162  Biso   1.000  Cu
  Cu6      1.0000 0.42243  0.86783  0.09162  Biso   1.000  Cu
  Cu7      1.0000 0.86827  0.44447  0.34303  Biso   1.000  Cu
  Cu8      1.0000 0.55553  0.42380  0.34303  Biso   1.000  Cu
  Cu9      1.0000 0.57620  0.13173  0.34303  Biso   1.000  Cu
  Cu10     1.0000 0.13173  0.55553  0.84303  Biso   1.000  Cu
  Cu11     1.0000 0.44447  0.57620  0.84303  Biso   1.000  Cu
  Cu12     1.0000 0.42380  0.86827  0.84303  Biso   1.000  Cu
  Ca1      1.0000 0.66670  0.33330  0.46710  Biso   1.000  Ca
  Ca2      1.0000 0.33330  0.66670  0.96710  Biso   1.000  Ca
  O1       1.0000 0.82930  0.46640  0.46840  Biso   1.000  O
  O2       1.0000 0.53360  0.36290  0.46840  Biso   1.000  O
  O3       1.0000 0.63710  0.17070  0.46840  Biso   1.000  O
  O4       1.0000 0.17070  0.53360  0.96840  Biso   1.000  O
  O5       1.0000 0.46640  0.63710  0.96840  Biso   1.000  O
  O6       1.0000 0.36290  0.82930  0.96840  Biso   1.000  O
  N1       1.0000 0.89960  0.40390  0.70610  Biso   1.000  N
  N2       1.0000 0.59610  0.49570  0.70610  Biso   1.000  N
  N3       1.0000 0.50430  0.10040  0.70610  Biso   1.000  N
  N4       1.0000 0.10040  0.59610  0.20610  Biso   1.000  N
  N5       1.0000 0.40390  0.50430  0.20610  Biso   1.000  N
  N6       1.0000 0.49570  0.89960  0.20610  Biso   1.000  N
  N7       1.0000 0.09510  0.59640  0.73220  Biso   1.000  N
  N8       1.0000 0.40360  0.49870  0.73220  Biso   1.000  N
  N9       1.0000 0.50130  0.90490  0.73220  Biso   1.000  N
  N10      1.0000 0.90490  0.40360  0.23220  Biso   1.000  N
  N11      1.0000 0.59640  0.50130  0.23220  Biso   1.000  N
  N12      1.0000 0.49870  0.09510  0.23220  Biso   1.000  N
  O7       1.0000 0.76540  0.32440  0.59290  Biso   1.000  O
  O8       1.0000 0.67560  0.44100  0.59290  Biso   1.000  O
  O9       1.0000 0.55900  0.23460  0.59290  Biso   1.000  O
  O10      1.0000 0.23460  0.67560  0.09290  Biso   1.000  O
  O11      1.0000 0.32440  0.55900  0.09290  Biso   1.000  O
  O12      1.0000 0.44100  0.76540  0.09290  Biso   1.000  O
  O13      1.0000 0.98720  0.55350  0.61540  Biso   1.000  O
  O14      1.0000 0.44650  0.43370  0.61540  Biso   1.000  O
  O15      1.0000 0.56630  0.01280  0.61540  Biso   1.000  O
  O16      1.0000 0.01280  0.44650  0.11540  Biso   1.000  O
  O17      1.0000 0.55350  0.56630  0.11540  Biso   1.000  O
  O18      1.0000 0.43370  0.98720  0.11540  Biso   1.000  O
  O19      1.0000 0.70660  0.19890  0.68250  Biso   1.000  O
  O20      1.0000 0.80110  0.50770  0.68250  Biso   1.000  O
  O21      1.0000 0.49230  0.29340  0.68250  Biso   1.000  O
  O22      1.0000 0.29340  0.80110  0.18250  Biso   1.000  O
  O23      1.0000 0.19890  0.49230  0.18250  Biso   1.000  O
  O24      1.0000 0.50770  0.70660  0.18250  Biso   1.000  O
  O25      1.0000 0.01330  0.44590  0.82520  Biso   1.000  O
  O26      1.0000 0.55410  0.56740  0.82520  Biso   1.000  O
  O27      1.0000 0.43260  0.98670  0.82520  Biso   1.000  O
  O28      1.0000 0.98670  0.55410  0.32520  Biso   1.000  O
  O29      1.0000 0.44590  0.43260  0.32520  Biso   1.000  O
  O30      1.0000 0.56740  0.01330  0.32520  Biso   1.000  O
  O31      1.0000 0.23650  0.67880  0.83840  Biso   1.000  O
  O32      1.0000 0.32120  0.55770  0.83840  Biso   1.000  O
  O33      1.0000 0.44230  0.76350  0.83840  Biso   1.000  O
  O34      1.0000 0.76350  0.32120  0.33840  Biso   1.000  O
  O35      1.0000 0.67880  0.44230  0.33840  Biso   1.000  O
  O36      1.0000 0.55770  0.23650  0.33840  Biso   1.000  O
  O37      1.0000 0.29600  0.79950  0.75250  Biso   1.000  O
  O38      1.0000 0.20050  0.49650  0.75250  Biso   1.000  O
  O39      1.0000 0.50350  0.70400  0.75250  Biso   1.000  O
  O40      1.0000 0.70400  0.20050  0.25250  Biso   1.000  O
  O41      1.0000 0.79950  0.50350  0.25250  Biso   1.000  O
  O42      1.0000 0.49650  0.29600  0.25250  Biso   1.000  O
  C1       1.0000 0.76720  0.27720  0.66820  Biso   1.000  C
  C2       1.0000 0.72280  0.49000  0.66820  Biso   1.000  C
  C3       1.0000 0.51000  0.23280  0.66820  Biso   1.000  C
  C4       1.0000 0.23280  0.72280  0.16820  Biso   1.000  C
  C5       1.0000 0.27720  0.51000  0.16820  Biso   1.000  C
  C6       1.0000 0.49000  0.76720  0.16820  Biso   1.000  C
  C7       1.0000 0.84180  0.31980  0.74330  Biso   1.000  C
  C8       1.0000 0.68020  0.52200  0.74330  Biso   1.000  C
  C9       1.0000 0.47800  0.15820  0.74330  Biso   1.000  C
  C10      1.0000 0.15820  0.68020  0.24330  Biso   1.000  C
  C11      1.0000 0.31980  0.47800  0.24330  Biso   1.000  C
  C12      1.0000 0.52200  0.84180  0.24330  Biso   1.000  C
  H1       1.0000 0.87090  0.28550  0.75280  Biso   1.000  H
  H2       1.0000 0.71450  0.58540  0.75280  Biso   1.000  H
  H3       1.0000 0.41460  0.12910  0.75280  Biso   1.000  H
  H4       1.0000 0.12910  0.71450  0.25280  Biso   1.000  H
  H5       1.0000 0.28550  0.41460  0.25280  Biso   1.000  H
  H6       1.0000 0.58540  0.87090  0.25280  Biso   1.000  H
  C13      1.0000 0.02240  0.54360  0.69020  Biso   1.000  C
  C14      1.0000 0.45640  0.47880  0.69020  Biso   1.000  C
  C15      1.0000 0.52120  0.97760  0.69020  Biso   1.000  C
  C16      1.0000 0.97760  0.45640  0.19020  Biso   1.000  C
  C17      1.0000 0.54360  0.52120  0.19020  Biso   1.000  C
  C18      1.0000 0.47880  0.02240  0.19020  Biso   1.000  C
  C19      1.0000 0.79870  0.32920  0.84570  Biso   1.000  C
  C20      1.0000 0.67080  0.46950  0.84570  Biso   1.000  C
  C21      1.0000 0.53050  0.20130  0.84570  Biso   1.000  C
  C22      1.0000 0.20130  0.67080  0.34570  Biso   1.000  C
  C23      1.0000 0.32920  0.53050  0.34570  Biso   1.000  C
  C24      1.0000 0.46950  0.79870  0.34570  Biso   1.000  C
  H7       1.0000 0.84310  0.35530  0.89590  Biso   1.000  H
  H8       1.0000 0.64470  0.48780  0.89590  Biso   1.000  H
  H9       1.0000 0.51220  0.15690  0.89590  Biso   1.000  H
  H10      1.0000 0.15690  0.64470  0.39590  Biso   1.000  H
  H11      1.0000 0.35530  0.51220  0.39590  Biso   1.000  H
  H12      1.0000 0.48780  0.84310  0.39590  Biso   1.000  H
  H13      1.0000 0.75420  0.27240  0.86740  Biso   1.000  H
  H14      1.0000 0.72760  0.48180  0.86740  Biso   1.000  H
  H15      1.0000 0.51820  0.24580  0.86740  Biso   1.000  H
  H16      1.0000 0.24580  0.72760  0.36740  Biso   1.000  H
  H17      1.0000 0.27240  0.51820  0.36740  Biso   1.000  H
  H18      1.0000 0.48180  0.75420  0.36740  Biso   1.000  H
  H19      1.0000 0.77330  0.36550  0.83430  Biso   1.000  H
  H20      1.0000 0.63450  0.40780  0.83430  Biso   1.000  H
  H21      1.0000 0.59220  0.22670  0.83430  Biso   1.000  H
  H22      1.0000 0.22670  0.63450  0.33430  Biso   1.000  H
  H23      1.0000 0.36550  0.59220  0.33430  Biso   1.000  H
  H24      1.0000 0.40780  0.77330  0.33430  Biso   1.000  H
  C25      1.0000 0.23700  0.72390  0.76790  Biso   1.000  C
  C26      1.0000 0.27610  0.51310  0.76790  Biso   1.000  C
  C27      1.0000 0.48690  0.76300  0.76790  Biso   1.000  C
  C28      1.0000 0.76300  0.27610  0.26790  Biso   1.000  C
  C29      1.0000 0.72390  0.48690  0.26790  Biso   1.000  C
  C30      1.0000 0.51310  0.23700  0.26790  Biso   1.000  C
  C31      1.0000 0.16080  0.69000  0.69920  Biso   1.000  C
  C32      1.0000 0.31000  0.47080  0.69920  Biso   1.000  C
  C33      1.0000 0.52920  0.83920  0.69920  Biso   1.000  C
  C34      1.0000 0.83920  0.31000  0.19920  Biso   1.000  C
  C35      1.0000 0.69000  0.52920  0.19920  Biso   1.000  C
  C36      1.0000 0.47080  0.16080  0.19920  Biso   1.000  C
  H25      1.0000 0.17830  0.69230  0.62970  Biso   1.000  H
  H26      1.0000 0.30770  0.48600  0.62970  Biso   1.000  H
  H27      1.0000 0.51400  0.82170  0.62970  Biso   1.000  H
  H28      1.0000 0.82170  0.30770  0.12970  Biso   1.000  H
  H29      1.0000 0.69230  0.51400  0.12970  Biso   1.000  H
  H30      1.0000 0.48600  0.17830  0.12970  Biso   1.000  H
  C37      1.0000 0.97480  0.45740  0.74640  Biso   1.000  C
  C38      1.0000 0.54260  0.51740  0.74640  Biso   1.000  C
  C39      1.0000 0.48260  0.02520  0.74640  Biso   1.000  C
  C40      1.0000 0.02520  0.54260  0.24640  Biso   1.000  C
  C41      1.0000 0.45740  0.48260  0.24640  Biso   1.000  C
  C42      1.0000 0.51740  0.97480  0.24640  Biso   1.000  C
  C43      1.0000 0.11100  0.74650  0.71770  Biso   1.000  C
  C44      1.0000 0.25350  0.36450  0.71770  Biso   1.000  C
  C45      1.0000 0.63550  0.88900  0.71770  Biso   1.000  C
  C46      1.0000 0.88900  0.25350  0.21770  Biso   1.000  C
  C47      1.0000 0.74650  0.63550  0.21770  Biso   1.000  C
  C48      1.0000 0.36450  0.11100  0.21770  Biso   1.000  C
  H31      1.0000 0.06240  0.72650  0.67290  Biso   1.000  H
  H32      1.0000 0.27350  0.33590  0.67290  Biso   1.000  H
  H33      1.0000 0.66410  0.93760  0.67290  Biso   1.000  H
  H34      1.0000 0.93760  0.27350  0.17290  Biso   1.000  H
  H35      1.0000 0.72650  0.66410  0.17290  Biso   1.000  H
  H36      1.0000 0.33590  0.06240  0.17290  Biso   1.000  H
  H37      1.0000 0.15120  0.80740  0.70610  Biso   1.000  H
  H38      1.0000 0.19260  0.34380  0.70610  Biso   1.000  H
  H39      1.0000 0.65620  0.84880  0.70610  Biso   1.000  H
  H40      1.0000 0.84880  0.19260  0.20610  Biso   1.000  H
  H41      1.0000 0.80740  0.65620  0.20610  Biso   1.000  H
  H42      1.0000 0.34380  0.15120  0.20610  Biso   1.000  H
  H43      1.0000 0.09020  0.73840  0.78500  Biso   1.000  H
  H44      1.0000 0.26160  0.35180  0.78500  Biso   1.000  H
  H45      1.0000 0.64820  0.90980  0.78500  Biso   1.000  H
  H46      1.0000 0.90980  0.26160  0.28500  Biso   1.000  H
  H47      1.0000 0.73840  0.64820  0.28500  Biso   1.000  H
  H48      1.0000 0.35180  0.09020  0.28500  Biso   1.000  H
  O43      1.0000 0.91710  0.60590  0.10670  Biso   1.000  O
  O44      1.0000 0.39410  0.31120  0.10670  Biso   1.000  O
  O45      1.0000 0.68880  0.08290  0.10670  Biso   1.000  O
  O46      1.0000 0.08290  0.39410  0.60670  Biso   1.000  O
  O47      1.0000 0.60590  0.68880  0.60670  Biso   1.000  O
  O48      1.0000 0.31120  0.91710  0.60670  Biso   1.000  O
  O49      1.0000 0.95370  0.37630  0.47530  Biso   1.000  O
  O50      1.0000 0.62370  0.57740  0.47530  Biso   1.000  O
  O51      1.0000 0.42260  0.04630  0.47530  Biso   1.000  O
  O52      1.0000 0.04630  0.62370  0.97530  Biso   1.000  O
  O53      1.0000 0.37630  0.42260  0.97530  Biso   1.000  O
  O54      1.0000 0.57740  0.95370  0.97530  Biso   1.000  O
  O55      1.0000 0.97260  0.31830  0.97310  Biso   1.000  O
  O56      1.0000 0.68170  0.65430  0.97310  Biso   1.000  O
  O57      1.0000 0.34570  0.02740  0.97310  Biso   1.000  O
  O58      1.0000 0.02740  0.68170  0.47310  Biso   1.000  O
  O59      1.0000 0.31830  0.34570  0.47310  Biso   1.000  O
  O60      1.0000 0.65430  0.97260  0.47310  Biso   1.000  O
  O61      1.0000 0.81700  0.18960  0.47400  Biso   1.000  O
  O62      1.0000 0.81040  0.62740  0.47400  Biso   1.000  O
  O63      1.0000 0.37260  0.18300  0.47400  Biso   1.000  O
  O64      1.0000 0.18300  0.81040  0.97400  Biso   1.000  O
  O65      1.0000 0.18960  0.37260  0.97400  Biso   1.000  O
  O66      1.0000 0.62740  0.81700  0.97400  Biso   1.000  O
  O67      1.0000 0.83220  0.15400  0.95470  Biso   1.000  O
  O68      1.0000 0.84600  0.67820  0.95470  Biso   1.000  O
  O69      1.0000 0.32180  0.16780  0.95470  Biso   1.000  O
  O70      1.0000 0.16780  0.84600  0.45470  Biso   1.000  O
  O71      1.0000 0.15400  0.32180  0.45470  Biso   1.000  O
  O72      1.0000 0.67820  0.83220  0.45470  Biso   1.000  O
  O73      1.0000 0.00000  0.00000  0.88100  Biso   1.000  O
  O74      1.0000 0.00000  0.00000  0.38100  Biso   1.000  O
  O75      1.0000 0.00000  0.00000  0.12800  Biso   1.000  O
  O76      1.0000 0.00000  0.00000  0.62800  Biso   1.000  O
  O77      1.0000 0.97100  0.08000  0.13100  Biso   1.000  O
  O78      1.0000 0.92000  0.89100  0.13100  Biso   1.000  O
  O79      1.0000 0.10900  0.02900  0.13100  Biso   1.000  O
  O80      1.0000 0.02900  0.92000  0.63100  Biso   1.000  O
  O81      1.0000 0.08000  0.10900  0.63100  Biso   1.000  O
  O82      1.0000 0.89100  0.97100  0.63100  Biso   1.000  O
  O83      1.0000 0.71200  0.08480  0.82630  Biso   1.000  O
  O84      1.0000 0.91520  0.62720  0.82630  Biso   1.000  O
  O85      1.0000 0.37280  0.28800  0.82630  Biso   1.000  O
  O86      1.0000 0.28800  0.91520  0.32630  Biso   1.000  O
  O87      1.0000 0.08480  0.37280  0.32630  Biso   1.000  O
  O88      1.0000 0.62720  0.71200  0.32630  Biso   1.000  O
  O89      1.0000 0.88400  0.15200  0.61900  Biso   1.000  O
  O90      1.0000 0.84800  0.73200  0.61900  Biso   1.000  O
  O91      1.0000 0.26800  0.11600  0.61900  Biso   1.000  O
  O92      1.0000 0.11600  0.84800  0.11900  Biso   1.000  O
  O93      1.0000 0.15200  0.26800  0.11900  Biso   1.000  O
  O94      1.0000 0.73200  0.88400  0.11900  Biso   1.000  O
  O95      1.0000 0.89900  0.16100  0.36900  Biso   1.000  O
  O96      1.0000 0.83900  0.73800  0.36900  Biso   1.000  O
  O97      1.0000 0.26200  0.10100  0.36900  Biso   1.000  O
  O98      1.0000 0.10100  0.83900  0.86900  Biso   1.000  O
  O99      1.0000 0.16100  0.26200  0.86900  Biso   1.000  O
  O100     1.0000 0.73800  0.89900  0.86900  Biso   1.000  O
  O101     1.0000 0.97800  0.87300  0.97100  Biso   1.000  O
  O102     1.0000 0.12700  0.10500  0.97100  Biso   1.000  O
  O103     1.0000 0.89500  0.02200  0.97100  Biso   1.000  O
  O104     1.0000 0.02200  0.12700  0.47100  Biso   1.000  O
  O105     1.0000 0.87300  0.89500  0.47100  Biso   1.000  O
  O106     1.0000 0.10500  0.97800  0.47100  Biso   1.000  O
