data_image0
_cell_length_a       9.552
_cell_length_b       10.888
_cell_length_c       7.719
_cell_angle_alpha    90
_cell_angle_beta     90
_cell_angle_gamma    90

_symmetry_space_group_name_H-M    "P 1"
_symmetry_int_tables_number       1

loop_
  _symmetry_equiv_pos_as_xyz
  'x, y, z'

loop_
  _atom_site_label
  _atom_site_occupancy
  _atom_site_fract_x
  _atom_site_fract_y
  _atom_site_fract_z
  _atom_site_thermal_displace_type
  _atom_site_B_iso_or_equiv
  _atom_site_type_symbol
  Cu1      1.0000 0.23750  0.22310  0.25000  Biso   1.000  Cu
  Cu2      1.0000 0.76250  0.77690  0.75000  Biso   1.000  Cu
  Cu3      1.0000 0.26250  0.72310  0.75000  Biso   1.000  Cu
  Cu4      1.0000 0.73750  0.27690  0.25000  Biso   1.000  Cu
  Cl1      1.0000 0.19750  0.33050  0.00950  Biso   1.000  Cl
  Cl2      1.0000 0.80250  0.66950  0.50950  Biso   1.000  Cl
  Cl3      1.0000 0.30250  0.83050  0.50950  Biso   1.000  Cl
  Cl4      1.0000 0.69750  0.16950  0.00950  Biso   1.000  Cl
  O1       1.0000 0.36650  0.17080  0.43800  Biso   1.000  O
  O2       1.0000 0.63350  0.82920  0.93800  Biso   1.000  O
  O3       1.0000 0.13350  0.67080  0.93800  Biso   1.000  O
  O4       1.0000 0.86650  0.32920  0.43800  Biso   1.000  O
  O5       1.0000 0.47910  0.22990  0.67160  Biso   1.000  O
  O6       1.0000 0.52090  0.77010  0.17160  Biso   1.000  O
  O7       1.0000 0.02090  0.72990  0.17160  Biso   1.000  O
  O8       1.0000 0.97910  0.27010  0.67160  Biso   1.000  O
  O9       1.0000 0.97530  0.92090  0.32190  Biso   1.000  O
  O10      1.0000 0.02470  0.07910  0.82190  Biso   1.000  O
  O11      1.0000 0.52470  0.42090  0.82190  Biso   1.000  O
  O12      1.0000 0.47530  0.57910  0.32190  Biso   1.000  O
  O13      1.0000 0.06420  0.10590  0.33620  Biso   1.000  O
  O14      1.0000 0.93580  0.89410  0.83620  Biso   1.000  O
  O15      1.0000 0.43580  0.60590  0.83620  Biso   1.000  O
  O16      1.0000 0.56420  0.39410  0.33620  Biso   1.000  O
  N1       1.0000 0.26560  0.06610  0.11770  Biso   1.000  N
  N2       1.0000 0.73440  0.93390  0.61770  Biso   1.000  N
  N3       1.0000 0.23440  0.56610  0.61770  Biso   1.000  N
  N4       1.0000 0.76560  0.43390  0.11770  Biso   1.000  N
  N5       1.0000 0.22180  0.36790  0.40850  Biso   1.000  N
  N6       1.0000 0.77820  0.63210  0.90850  Biso   1.000  N
  N7       1.0000 0.27820  0.86790  0.90850  Biso   1.000  N
  N8       1.0000 0.72180  0.13210  0.40850  Biso   1.000  N
  C1       1.0000 0.35480  0.06350  0.98980  Biso   1.000  C
  C2       1.0000 0.64520  0.93650  0.48980  Biso   1.000  C
  C3       1.0000 0.14520  0.56350  0.48980  Biso   1.000  C
  C4       1.0000 0.85480  0.43650  0.98980  Biso   1.000  C
  C5       1.0000 0.13660  0.46220  0.37750  Biso   1.000  C
  C6       1.0000 0.86340  0.53780  0.87750  Biso   1.000  C
  C7       1.0000 0.36340  0.96220  0.87750  Biso   1.000  C
  C8       1.0000 0.63660  0.03780  0.37750  Biso   1.000  C
  C9       1.0000 0.30950  0.36980  0.54140  Biso   1.000  C
  C10      1.0000 0.69050  0.63020  0.04140  Biso   1.000  C
  C11      1.0000 0.19050  0.86980  0.04140  Biso   1.000  C
  C12      1.0000 0.80950  0.13020  0.54140  Biso   1.000  C
  C13      1.0000 0.17620  0.97250  0.14350  Biso   1.000  C
  C14      1.0000 0.82380  0.02750  0.64350  Biso   1.000  C
  C15      1.0000 0.32380  0.47250  0.64350  Biso   1.000  C
  C16      1.0000 0.67620  0.52750  0.14350  Biso   1.000  C
  C17      1.0000 0.06620  0.00360  0.28020  Biso   1.000  C
  C18      1.0000 0.93380  0.99640  0.78020  Biso   1.000  C
  C19      1.0000 0.43380  0.50360  0.78020  Biso   1.000  C
  C20      1.0000 0.56620  0.49640  0.28020  Biso   1.000  C
  C21      1.0000 0.39420  0.24650  0.55260  Biso   1.000  C
  C22      1.0000 0.60580  0.75350  0.05260  Biso   1.000  C
  C23      1.0000 0.10580  0.74650  0.05260  Biso   1.000  C
  C24      1.0000 0.89420  0.25350  0.55260  Biso   1.000  C
  H1       1.0000 0.42110  0.13320  0.96590  Biso   1.000  H
  H2       1.0000 0.57890  0.86680  0.46590  Biso   1.000  H
  H3       1.0000 0.07890  0.63320  0.46590  Biso   1.000  H
  H4       1.0000 0.92110  0.36680  0.96590  Biso   1.000  H
  H5       1.0000 0.06970  0.46150  0.27450  Biso   1.000  H
  H6       1.0000 0.93030  0.53850  0.77450  Biso   1.000  H
  H7       1.0000 0.43030  0.96150  0.77450  Biso   1.000  H
  H8       1.0000 0.56970  0.03850  0.27450  Biso   1.000  H
  H9       1.0000 0.48500  0.32000  0.72000  Biso   1.000  H
  H10      1.0000 0.51500  0.68000  0.22000  Biso   1.000  H
  H11      1.0000 0.01500  0.82000  0.22000  Biso   1.000  H
  H12      1.0000 0.98500  0.18000  0.72000  Biso   1.000  H
