data_image0
_cell_length_a       24.1784
_cell_length_b       9.3562
_cell_length_c       15.6129
_cell_angle_alpha    90
_cell_angle_beta     97.021
_cell_angle_gamma    90

_symmetry_space_group_name_H-M    "P 1"
_symmetry_int_tables_number       1

loop_
  _symmetry_equiv_pos_as_xyz
  'x, y, z'

loop_
  _atom_site_label
  _atom_site_occupancy
  _atom_site_fract_x
  _atom_site_fract_y
  _atom_site_fract_z
  _atom_site_thermal_displace_type
  _atom_site_B_iso_or_equiv
  _atom_site_type_symbol
  Cu1      1.0000 0.11655  0.44138  0.99897  Biso   1.000  Cu
  Cu2      1.0000 0.88345  0.44138  0.50103  Biso   1.000  Cu
  Cu3      1.0000 0.61655  0.94138  0.99897  Biso   1.000  Cu
  Cu4      1.0000 0.38345  0.94138  0.50103  Biso   1.000  Cu
  Cu5      1.0000 0.88345  0.55862  0.00103  Biso   1.000  Cu
  Cu6      1.0000 0.11655  0.55862  0.49897  Biso   1.000  Cu
  Cu7      1.0000 0.38345  0.05862  0.00103  Biso   1.000  Cu
  Cu8      1.0000 0.61655  0.05862  0.49897  Biso   1.000  Cu
  O1       1.0000 0.05138  0.46840  0.89440  Biso   1.000  O
  O2       1.0000 0.94862  0.46840  0.60560  Biso   1.000  O
  O3       1.0000 0.55138  0.96840  0.89440  Biso   1.000  O
  O4       1.0000 0.44862  0.96840  0.60560  Biso   1.000  O
  O5       1.0000 0.94862  0.53160  0.10560  Biso   1.000  O
  O6       1.0000 0.05138  0.53160  0.39440  Biso   1.000  O
  O7       1.0000 0.44862  0.03160  0.10560  Biso   1.000  O
  O8       1.0000 0.55138  0.03160  0.39440  Biso   1.000  O
  H1       1.0000 0.02190  0.45800  0.89800  Biso   1.000  H
  H2       1.0000 0.97810  0.45800  0.60200  Biso   1.000  H
  H3       1.0000 0.52190  0.95800  0.89800  Biso   1.000  H
  H4       1.0000 0.47810  0.95800  0.60200  Biso   1.000  H
  H5       1.0000 0.97810  0.54200  0.10200  Biso   1.000  H
  H6       1.0000 0.02190  0.54200  0.39800  Biso   1.000  H
  H7       1.0000 0.47810  0.04200  0.10200  Biso   1.000  H
  H8       1.0000 0.52190  0.04200  0.39800  Biso   1.000  H
  H9       1.0000 0.05690  0.45600  0.84800  Biso   1.000  H
  H10      1.0000 0.94310  0.45600  0.65200  Biso   1.000  H
  H11      1.0000 0.55690  0.95600  0.84800  Biso   1.000  H
  H12      1.0000 0.44310  0.95600  0.65200  Biso   1.000  H
  H13      1.0000 0.94310  0.54400  0.15200  Biso   1.000  H
  H14      1.0000 0.05690  0.54400  0.34800  Biso   1.000  H
  H15      1.0000 0.44310  0.04400  0.15200  Biso   1.000  H
  H16      1.0000 0.55690  0.04400  0.34800  Biso   1.000  H
  N1       1.0000 0.14712  0.64505  0.99678  Biso   1.000  N
  N2       1.0000 0.85288  0.64505  0.50322  Biso   1.000  N
  N3       1.0000 0.64712  0.14505  0.99678  Biso   1.000  N
  N4       1.0000 0.35288  0.14505  0.50322  Biso   1.000  N
  N5       1.0000 0.85288  0.35495  0.00322  Biso   1.000  N
  N6       1.0000 0.14712  0.35495  0.49678  Biso   1.000  N
  N7       1.0000 0.35288  0.85495  0.00322  Biso   1.000  N
  N8       1.0000 0.64712  0.85495  0.49678  Biso   1.000  N
  N9       1.0000 0.15203  0.71759  0.06861  Biso   1.000  N
  N10      1.0000 0.84797  0.71759  0.43139  Biso   1.000  N
  N11      1.0000 0.65203  0.21759  0.06861  Biso   1.000  N
  N12      1.0000 0.34797  0.21759  0.43139  Biso   1.000  N
  N13      1.0000 0.84797  0.28241  0.93139  Biso   1.000  N
  N14      1.0000 0.15203  0.28241  0.56861  Biso   1.000  N
  N15      1.0000 0.34797  0.78241  0.93139  Biso   1.000  N
  N16      1.0000 0.65203  0.78241  0.56861  Biso   1.000  N
  N17      1.0000 0.17981  0.83847  0.05610  Biso   1.000  N
  N18      1.0000 0.82019  0.83847  0.44390  Biso   1.000  N
  N19      1.0000 0.67981  0.33847  0.05610  Biso   1.000  N
  N20      1.0000 0.32019  0.33847  0.44390  Biso   1.000  N
  N21      1.0000 0.82019  0.16153  0.94390  Biso   1.000  N
  N22      1.0000 0.17981  0.16153  0.55610  Biso   1.000  N
  N23      1.0000 0.32019  0.66153  0.94390  Biso   1.000  N
  N24      1.0000 0.67981  0.66153  0.55610  Biso   1.000  N
  N25      1.0000 0.14310  0.05288  0.10643  Biso   1.000  N
  N26      1.0000 0.85690  0.05288  0.39357  Biso   1.000  N
  N27      1.0000 0.64310  0.55288  0.10643  Biso   1.000  N
  N28      1.0000 0.35690  0.55288  0.39357  Biso   1.000  N
  N29      1.0000 0.85690  0.94712  0.89357  Biso   1.000  N
  N30      1.0000 0.14310  0.94712  0.60643  Biso   1.000  N
  N31      1.0000 0.35690  0.44712  0.89357  Biso   1.000  N
  N32      1.0000 0.64310  0.44712  0.60643  Biso   1.000  N
  N33      1.0000 0.15528  0.17195  0.06478  Biso   1.000  N
  N34      1.0000 0.84472  0.17195  0.43522  Biso   1.000  N
  N35      1.0000 0.65528  0.67195  0.06478  Biso   1.000  N
  N36      1.0000 0.34472  0.67195  0.43522  Biso   1.000  N
  N37      1.0000 0.84472  0.82805  0.93522  Biso   1.000  N
  N38      1.0000 0.15528  0.82805  0.56478  Biso   1.000  N
  N39      1.0000 0.34472  0.32805  0.93522  Biso   1.000  N
  N40      1.0000 0.65528  0.32805  0.56478  Biso   1.000  N
  N41      1.0000 0.10888  0.24244  0.04506  Biso   1.000  N
  N42      1.0000 0.89112  0.24244  0.45494  Biso   1.000  N
  N43      1.0000 0.60888  0.74244  0.04506  Biso   1.000  N
  N44      1.0000 0.39112  0.74244  0.45494  Biso   1.000  N
  N45      1.0000 0.89112  0.75756  0.95494  Biso   1.000  N
  N46      1.0000 0.10888  0.75756  0.54506  Biso   1.000  N
  N47      1.0000 0.39112  0.25756  0.95494  Biso   1.000  N
  N48      1.0000 0.60888  0.25756  0.54506  Biso   1.000  N
  C1       1.0000 0.18618  0.94520  0.12425  Biso   1.000  C
  C2       1.0000 0.81382  0.94520  0.37575  Biso   1.000  C
  C3       1.0000 0.68618  0.44520  0.12425  Biso   1.000  C
  C4       1.0000 0.31382  0.44520  0.37575  Biso   1.000  C
  C5       1.0000 0.81382  0.05480  0.87575  Biso   1.000  C
  C6       1.0000 0.18618  0.05480  0.62425  Biso   1.000  C
  C7       1.0000 0.31382  0.55480  0.87575  Biso   1.000  C
  C8       1.0000 0.68618  0.55480  0.62425  Biso   1.000  C
  H17      1.0000 0.18310  0.90030  0.17950  Biso   1.000  H
  H18      1.0000 0.81690  0.90030  0.32050  Biso   1.000  H
  H19      1.0000 0.68310  0.40030  0.17950  Biso   1.000  H
  H20      1.0000 0.31690  0.40030  0.32050  Biso   1.000  H
  H21      1.0000 0.81690  0.09970  0.82050  Biso   1.000  H
  H22      1.0000 0.18310  0.09970  0.67950  Biso   1.000  H
  H23      1.0000 0.31690  0.59970  0.82050  Biso   1.000  H
  H24      1.0000 0.68310  0.59970  0.67950  Biso   1.000  H
  H25      1.0000 0.22260  0.98940  0.12700  Biso   1.000  H
  H26      1.0000 0.77740  0.98940  0.37300  Biso   1.000  H
  H27      1.0000 0.72260  0.48940  0.12700  Biso   1.000  H
  H28      1.0000 0.27740  0.48940  0.37300  Biso   1.000  H
  H29      1.0000 0.77740  0.01060  0.87300  Biso   1.000  H
  H30      1.0000 0.22260  0.01060  0.62700  Biso   1.000  H
  H31      1.0000 0.27740  0.51060  0.87300  Biso   1.000  H
  H32      1.0000 0.72260  0.51060  0.62700  Biso   1.000  H
  C9       1.0000 0.17094  0.72130  0.93502  Biso   1.000  C
  C10      1.0000 0.82906  0.72130  0.56498  Biso   1.000  C
  C11      1.0000 0.67094  0.22130  0.93502  Biso   1.000  C
  C12      1.0000 0.32906  0.22130  0.56498  Biso   1.000  C
  C13      1.0000 0.82906  0.27870  0.06498  Biso   1.000  C
  C14      1.0000 0.17094  0.27870  0.43502  Biso   1.000  C
  C15      1.0000 0.32906  0.77870  0.06498  Biso   1.000  C
  C16      1.0000 0.67094  0.77870  0.43502  Biso   1.000  C
  C17      1.0000 0.17533  0.69200  0.84810  Biso   1.000  C
  C18      1.0000 0.82467  0.69200  0.65190  Biso   1.000  C
  C19      1.0000 0.67533  0.19200  0.84810  Biso   1.000  C
  C20      1.0000 0.32467  0.19200  0.65190  Biso   1.000  C
  C21      1.0000 0.82467  0.30800  0.15190  Biso   1.000  C
  C22      1.0000 0.17533  0.30800  0.34810  Biso   1.000  C
  C23      1.0000 0.32467  0.80800  0.15190  Biso   1.000  C
  C24      1.0000 0.67533  0.80800  0.34810  Biso   1.000  C
  H33      1.0000 0.16060  0.60920  0.82140  Biso   1.000  H
  H34      1.0000 0.83940  0.60920  0.67860  Biso   1.000  H
  H35      1.0000 0.66060  0.10920  0.82140  Biso   1.000  H
  H36      1.0000 0.33940  0.10920  0.67860  Biso   1.000  H
  H37      1.0000 0.83940  0.39080  0.17860  Biso   1.000  H
  H38      1.0000 0.16060  0.39080  0.32140  Biso   1.000  H
  H39      1.0000 0.33940  0.89080  0.17860  Biso   1.000  H
  H40      1.0000 0.66060  0.89080  0.32140  Biso   1.000  H
  C25      1.0000 0.20250  0.79190  0.80470  Biso   1.000  C
  C26      1.0000 0.79750  0.79190  0.69530  Biso   1.000  C
  C27      1.0000 0.70250  0.29190  0.80470  Biso   1.000  C
  C28      1.0000 0.29750  0.29190  0.69530  Biso   1.000  C
  C29      1.0000 0.79750  0.20810  0.19530  Biso   1.000  C
  C30      1.0000 0.20250  0.20810  0.30470  Biso   1.000  C
  C31      1.0000 0.29750  0.70810  0.19530  Biso   1.000  C
  C32      1.0000 0.70250  0.70810  0.30470  Biso   1.000  C
  H41      1.0000 0.20640  0.77620  0.74690  Biso   1.000  H
  H42      1.0000 0.79360  0.77620  0.75310  Biso   1.000  H
  H43      1.0000 0.70640  0.27620  0.74690  Biso   1.000  H
  H44      1.0000 0.29360  0.27620  0.75310  Biso   1.000  H
  H45      1.0000 0.79360  0.22380  0.25310  Biso   1.000  H
  H46      1.0000 0.20640  0.22380  0.24690  Biso   1.000  H
  H47      1.0000 0.29360  0.72380  0.25310  Biso   1.000  H
  H48      1.0000 0.70640  0.72380  0.24690  Biso   1.000  H
  C33      1.0000 0.22466  0.91750  0.84467  Biso   1.000  C
  C34      1.0000 0.77534  0.91750  0.65533  Biso   1.000  C
  C35      1.0000 0.72466  0.41750  0.84467  Biso   1.000  C
  C36      1.0000 0.27534  0.41750  0.65533  Biso   1.000  C
  C37      1.0000 0.77534  0.08250  0.15533  Biso   1.000  C
  C38      1.0000 0.22466  0.08250  0.34467  Biso   1.000  C
  C39      1.0000 0.27534  0.58250  0.15533  Biso   1.000  C
  C40      1.0000 0.72466  0.58250  0.34467  Biso   1.000  C
  H49      1.0000 0.24330  0.98120  0.81260  Biso   1.000  H
  H50      1.0000 0.75670  0.98120  0.68740  Biso   1.000  H
  H51      1.0000 0.74330  0.48120  0.81260  Biso   1.000  H
  H52      1.0000 0.25670  0.48120  0.68740  Biso   1.000  H
  H53      1.0000 0.75670  0.01880  0.18740  Biso   1.000  H
  H54      1.0000 0.24330  0.01880  0.31260  Biso   1.000  H
  H55      1.0000 0.25670  0.51880  0.18740  Biso   1.000  H
  H56      1.0000 0.74330  0.51880  0.31260  Biso   1.000  H
  C41      1.0000 0.21984  0.94980  0.92898  Biso   1.000  C
  C42      1.0000 0.78016  0.94980  0.57102  Biso   1.000  C
  C43      1.0000 0.71984  0.44980  0.92898  Biso   1.000  C
  C44      1.0000 0.28016  0.44980  0.57102  Biso   1.000  C
  C45      1.0000 0.78016  0.05020  0.07102  Biso   1.000  C
  C46      1.0000 0.21984  0.05020  0.42898  Biso   1.000  C
  C47      1.0000 0.28016  0.55020  0.07102  Biso   1.000  C
  C48      1.0000 0.71984  0.55020  0.42898  Biso   1.000  C
  H57      1.0000 0.23400  0.03370  0.95500  Biso   1.000  H
  H58      1.0000 0.76600  0.03370  0.54500  Biso   1.000  H
  H59      1.0000 0.73400  0.53370  0.95500  Biso   1.000  H
  H60      1.0000 0.26600  0.53370  0.54500  Biso   1.000  H
  H61      1.0000 0.76600  0.96630  0.04500  Biso   1.000  H
  H62      1.0000 0.23400  0.96630  0.45500  Biso   1.000  H
  H63      1.0000 0.26600  0.46630  0.04500  Biso   1.000  H
  H64      1.0000 0.73400  0.46630  0.45500  Biso   1.000  H
  C49      1.0000 0.19217  0.84744  0.97316  Biso   1.000  C
  C50      1.0000 0.80783  0.84744  0.52684  Biso   1.000  C
  C51      1.0000 0.69217  0.34744  0.97316  Biso   1.000  C
  C52      1.0000 0.30783  0.34744  0.52684  Biso   1.000  C
  C53      1.0000 0.80783  0.15256  0.02684  Biso   1.000  C
  C54      1.0000 0.19217  0.15256  0.47316  Biso   1.000  C
  C55      1.0000 0.30783  0.65256  0.02684  Biso   1.000  C
  C56      1.0000 0.69217  0.65256  0.47316  Biso   1.000  C
  C57      1.0000 0.08714  0.04330  0.11242  Biso   1.000  C
  C58      1.0000 0.91286  0.04330  0.38758  Biso   1.000  C
  C59      1.0000 0.58714  0.54330  0.11242  Biso   1.000  C
  C60      1.0000 0.41286  0.54330  0.38758  Biso   1.000  C
  C61      1.0000 0.91286  0.95670  0.88758  Biso   1.000  C
  C62      1.0000 0.08714  0.95670  0.61242  Biso   1.000  C
  C63      1.0000 0.41286  0.45670  0.88758  Biso   1.000  C
  C64      1.0000 0.58714  0.45670  0.61242  Biso   1.000  C
  C65      1.0000 0.05457  0.93980  0.14641  Biso   1.000  C
  C66      1.0000 0.94543  0.93980  0.35359  Biso   1.000  C
  C67      1.0000 0.55457  0.43980  0.14641  Biso   1.000  C
  C68      1.0000 0.44543  0.43980  0.35359  Biso   1.000  C
  C69      1.0000 0.94543  0.06020  0.85359  Biso   1.000  C
  C70      1.0000 0.05457  0.06020  0.64641  Biso   1.000  C
  C71      1.0000 0.44543  0.56020  0.85359  Biso   1.000  C
  C72      1.0000 0.55457  0.56020  0.64641  Biso   1.000  C
  H65      1.0000 0.06980  0.85720  0.17270  Biso   1.000  H
  H66      1.0000 0.93020  0.85720  0.32730  Biso   1.000  H
  H67      1.0000 0.56980  0.35720  0.17270  Biso   1.000  H
  H68      1.0000 0.43020  0.35720  0.32730  Biso   1.000  H
  H69      1.0000 0.93020  0.14280  0.82730  Biso   1.000  H
  H70      1.0000 0.06980  0.14280  0.67270  Biso   1.000  H
  H71      1.0000 0.43020  0.64280  0.82730  Biso   1.000  H
  H72      1.0000 0.56980  0.64280  0.67270  Biso   1.000  H
  C73      1.0000 0.99855  0.96800  0.13840  Biso   1.000  C
  C74      1.0000 0.00145  0.96800  0.36160  Biso   1.000  C
  C75      1.0000 0.49855  0.46800  0.13840  Biso   1.000  C
  C76      1.0000 0.50145  0.46800  0.36160  Biso   1.000  C
  C77      1.0000 0.00145  0.03200  0.86160  Biso   1.000  C
  C78      1.0000 0.99855  0.03200  0.63840  Biso   1.000  C
  C79      1.0000 0.50145  0.53200  0.86160  Biso   1.000  C
  C80      1.0000 0.49855  0.53200  0.63840  Biso   1.000  C
  H73      1.0000 0.97480  0.90210  0.15950  Biso   1.000  H
  H74      1.0000 0.02520  0.90210  0.34050  Biso   1.000  H
  H75      1.0000 0.47480  0.40210  0.15950  Biso   1.000  H
  H76      1.0000 0.52520  0.40210  0.34050  Biso   1.000  H
  H77      1.0000 0.02520  0.09790  0.84050  Biso   1.000  H
  H78      1.0000 0.97480  0.09790  0.65950  Biso   1.000  H
  H79      1.0000 0.52520  0.59790  0.84050  Biso   1.000  H
  H80      1.0000 0.47480  0.59790  0.65950  Biso   1.000  H
  C81      1.0000 0.97604  0.09390  0.09920  Biso   1.000  C
  C82      1.0000 0.02396  0.09390  0.40080  Biso   1.000  C
  C83      1.0000 0.47604  0.59390  0.09920  Biso   1.000  C
  C84      1.0000 0.52396  0.59390  0.40080  Biso   1.000  C
  C85      1.0000 0.02396  0.90610  0.90080  Biso   1.000  C
  C86      1.0000 0.97604  0.90610  0.59920  Biso   1.000  C
  C87      1.0000 0.52396  0.40610  0.90080  Biso   1.000  C
  C88      1.0000 0.47604  0.40610  0.59920  Biso   1.000  C
  H81      1.0000 0.93780  0.10860  0.09560  Biso   1.000  H
  H82      1.0000 0.06220  0.10860  0.40440  Biso   1.000  H
  H83      1.0000 0.43780  0.60860  0.09560  Biso   1.000  H
  H84      1.0000 0.56220  0.60860  0.40440  Biso   1.000  H
  H85      1.0000 0.06220  0.89140  0.90440  Biso   1.000  H
  H86      1.0000 0.93780  0.89140  0.59560  Biso   1.000  H
  H87      1.0000 0.56220  0.39140  0.90440  Biso   1.000  H
  H88      1.0000 0.43780  0.39140  0.59560  Biso   1.000  H
  C89      1.0000 0.00794  0.19540  0.06617  Biso   1.000  C
  C90      1.0000 0.99206  0.19540  0.43383  Biso   1.000  C
  C91      1.0000 0.50794  0.69540  0.06617  Biso   1.000  C
  C92      1.0000 0.49206  0.69540  0.43383  Biso   1.000  C
  C93      1.0000 0.99206  0.80460  0.93383  Biso   1.000  C
  C94      1.0000 0.00794  0.80460  0.56617  Biso   1.000  C
  C95      1.0000 0.49206  0.30460  0.93383  Biso   1.000  C
  C96      1.0000 0.50794  0.30460  0.56617  Biso   1.000  C
  H89      1.0000 0.99250  0.27830  0.04050  Biso   1.000  H
  H90      1.0000 0.00750  0.27830  0.45950  Biso   1.000  H
  H91      1.0000 0.49250  0.77830  0.04050  Biso   1.000  H
  H92      1.0000 0.50750  0.77830  0.45950  Biso   1.000  H
  H93      1.0000 0.00750  0.72170  0.95950  Biso   1.000  H
  H94      1.0000 0.99250  0.72170  0.54050  Biso   1.000  H
  H95      1.0000 0.50750  0.22170  0.95950  Biso   1.000  H
  H96      1.0000 0.49250  0.22170  0.54050  Biso   1.000  H
  C97      1.0000 0.06530  0.16780  0.07308  Biso   1.000  C
  C98      1.0000 0.93470  0.16780  0.42692  Biso   1.000  C
  C99      1.0000 0.56530  0.66780  0.07308  Biso   1.000  C
  C100     1.0000 0.43470  0.66780  0.42692  Biso   1.000  C
  C101     1.0000 0.93470  0.83220  0.92692  Biso   1.000  C
  C102     1.0000 0.06530  0.83220  0.57308  Biso   1.000  C
  C103     1.0000 0.43470  0.33220  0.92692  Biso   1.000  C
  C104     1.0000 0.56530  0.33220  0.57308  Biso   1.000  C
  N49      1.0000 0.16899  0.29457  0.86769  Biso   1.000  N
  N50      1.0000 0.83101  0.29457  0.63231  Biso   1.000  N
  N51      1.0000 0.66899  0.79457  0.86769  Biso   1.000  N
  N52      1.0000 0.33101  0.79457  0.63231  Biso   1.000  N
  N53      1.0000 0.83101  0.70543  0.13231  Biso   1.000  N
  N54      1.0000 0.16899  0.70543  0.36769  Biso   1.000  N
  N55      1.0000 0.33101  0.20543  0.13231  Biso   1.000  N
  N56      1.0000 0.66899  0.20543  0.36769  Biso   1.000  N
  N57      1.0000 0.08838  0.51470  0.15893  Biso   1.000  N
  N58      1.0000 0.91162  0.51470  0.34107  Biso   1.000  N
  N59      1.0000 0.58838  0.01470  0.15893  Biso   1.000  N
  N60      1.0000 0.41162  0.01470  0.34107  Biso   1.000  N
  N61      1.0000 0.91162  0.48530  0.84107  Biso   1.000  N
  N62      1.0000 0.08838  0.48530  0.65893  Biso   1.000  N
  N63      1.0000 0.41162  0.98530  0.84107  Biso   1.000  N
  N64      1.0000 0.58838  0.98530  0.65893  Biso   1.000  N
  O9       1.0000 0.12667  0.22402  0.85727  Biso   1.000  O
  O10      1.0000 0.87333  0.22402  0.64273  Biso   1.000  O
  O11      1.0000 0.62667  0.72402  0.85727  Biso   1.000  O
  O12      1.0000 0.37333  0.72402  0.64273  Biso   1.000  O
  O13      1.0000 0.87333  0.77598  0.14273  Biso   1.000  O
  O14      1.0000 0.12667  0.77598  0.35727  Biso   1.000  O
  O15      1.0000 0.37333  0.27598  0.14273  Biso   1.000  O
  O16      1.0000 0.62667  0.27598  0.35727  Biso   1.000  O
  O17      1.0000 0.20737  0.28070  0.82459  Biso   1.000  O
  O18      1.0000 0.79263  0.28070  0.67541  Biso   1.000  O
  O19      1.0000 0.70737  0.78070  0.82459  Biso   1.000  O
  O20      1.0000 0.29263  0.78070  0.67541  Biso   1.000  O
  O21      1.0000 0.79263  0.71930  0.17541  Biso   1.000  O
  O22      1.0000 0.20737  0.71930  0.32459  Biso   1.000  O
  O23      1.0000 0.29263  0.21930  0.17541  Biso   1.000  O
  O24      1.0000 0.70737  0.21930  0.32459  Biso   1.000  O
  O25      1.0000 0.17521  0.39186  0.92814  Biso   1.000  O
  O26      1.0000 0.82479  0.39186  0.57186  Biso   1.000  O
  O27      1.0000 0.67521  0.89186  0.92814  Biso   1.000  O
  O28      1.0000 0.32479  0.89186  0.57186  Biso   1.000  O
  O29      1.0000 0.82479  0.60814  0.07186  Biso   1.000  O
  O30      1.0000 0.17521  0.60814  0.42814  Biso   1.000  O
  O31      1.0000 0.32479  0.10814  0.07186  Biso   1.000  O
  O32      1.0000 0.67521  0.10814  0.42814  Biso   1.000  O
  O33      1.0000 0.06115  0.56740  0.21222  Biso   1.000  O
  O34      1.0000 0.93885  0.56740  0.28778  Biso   1.000  O
  O35      1.0000 0.56115  0.06740  0.21222  Biso   1.000  O
  O36      1.0000 0.43885  0.06740  0.28778  Biso   1.000  O
  O37      1.0000 0.93885  0.43260  0.78778  Biso   1.000  O
  O38      1.0000 0.06115  0.43260  0.71222  Biso   1.000  O
  O39      1.0000 0.43885  0.93260  0.78778  Biso   1.000  O
  O40      1.0000 0.56115  0.93260  0.71222  Biso   1.000  O
  O41      1.0000 0.13579  0.46840  0.17513  Biso   1.000  O
  O42      1.0000 0.86421  0.46840  0.32487  Biso   1.000  O
  O43      1.0000 0.63579  0.96840  0.17513  Biso   1.000  O
  O44      1.0000 0.36421  0.96840  0.32487  Biso   1.000  O
  O45      1.0000 0.86421  0.53160  0.82487  Biso   1.000  O
  O46      1.0000 0.13579  0.53160  0.67513  Biso   1.000  O
  O47      1.0000 0.36421  0.03160  0.82487  Biso   1.000  O
  O48      1.0000 0.63579  0.03160  0.67513  Biso   1.000  O
  O49      1.0000 0.06466  0.51069  0.07955  Biso   1.000  O
  O50      1.0000 0.93534  0.51069  0.42045  Biso   1.000  O
  O51      1.0000 0.56466  0.01069  0.07955  Biso   1.000  O
  O52      1.0000 0.43534  0.01069  0.42045  Biso   1.000  O
  O53      1.0000 0.93534  0.48931  0.92045  Biso   1.000  O
  O54      1.0000 0.06466  0.48931  0.57955  Biso   1.000  O
  O55      1.0000 0.43534  0.98931  0.92045  Biso   1.000  O
  O56      1.0000 0.56466  0.98931  0.57955  Biso   1.000  O
