data_image0
_cell_length_a       8.529
_cell_length_b       38.4315
_cell_length_c       11.035
_cell_angle_alpha    90
_cell_angle_beta     99.672
_cell_angle_gamma    90

_symmetry_space_group_name_H-M    "P 1"
_symmetry_int_tables_number       1

loop_
  _symmetry_equiv_pos_as_xyz
  'x, y, z'

loop_
  _atom_site_label
  _atom_site_occupancy
  _atom_site_fract_x
  _atom_site_fract_y
  _atom_site_fract_z
  _atom_site_thermal_displace_type
  _atom_site_B_iso_or_equiv
  _atom_site_type_symbol
  Cu1      1.0000 0.63299  0.16823  0.80746  Biso   1.000  Cu
  Cu2      1.0000 0.86701  0.66823  0.69254  Biso   1.000  Cu
  Cu3      1.0000 0.36701  0.83177  0.19254  Biso   1.000  Cu
  Cu4      1.0000 0.13299  0.33177  0.30746  Biso   1.000  Cu
  Cu5      1.0000 0.00000  0.00000  0.50000  Biso   1.000  Cu
  Cu6      1.0000 0.50000  0.50000  0.00000  Biso   1.000  Cu
  O1       1.0000 0.73830  0.21038  0.75030  Biso   1.000  O
  O2       1.0000 0.76170  0.71038  0.74970  Biso   1.000  O
  O3       1.0000 0.26170  0.78962  0.24970  Biso   1.000  O
  O4       1.0000 0.23830  0.28962  0.25030  Biso   1.000  O
  H1       1.0000 0.67900  0.22430  0.71300  Biso   1.000  H
  H2       1.0000 0.82100  0.72430  0.78700  Biso   1.000  H
  H3       1.0000 0.32100  0.77570  0.28700  Biso   1.000  H
  H4       1.0000 0.17900  0.27570  0.21300  Biso   1.000  H
  H5       1.0000 0.80600  0.21820  0.79600  Biso   1.000  H
  H6       1.0000 0.69400  0.71820  0.70400  Biso   1.000  H
  H7       1.0000 0.19400  0.78180  0.20400  Biso   1.000  H
  H8       1.0000 0.30600  0.28180  0.29600  Biso   1.000  H
  O5       1.0000 0.84990  0.14735  0.86120  Biso   1.000  O
  O6       1.0000 0.65010  0.64735  0.63880  Biso   1.000  O
  O7       1.0000 0.15010  0.85265  0.13880  Biso   1.000  O
  O8       1.0000 0.34990  0.35265  0.36120  Biso   1.000  O
  H9       1.0000 0.88300  0.13510  0.82100  Biso   1.000  H
  H10      1.0000 0.61700  0.63510  0.67900  Biso   1.000  H
  H11      1.0000 0.11700  0.86490  0.17900  Biso   1.000  H
  H12      1.0000 0.38300  0.36490  0.32100  Biso   1.000  H
  H13      1.0000 0.91900  0.15800  0.89500  Biso   1.000  H
  H14      1.0000 0.58100  0.65800  0.60500  Biso   1.000  H
  H15      1.0000 0.08100  0.84200  0.10500  Biso   1.000  H
  H16      1.0000 0.41900  0.34200  0.39500  Biso   1.000  H
  O9       1.0000 0.94800  0.04338  0.40570  Biso   1.000  O
  O10      1.0000 0.55200  0.54338  0.09430  Biso   1.000  O
  O11      1.0000 0.05200  0.95662  0.59430  Biso   1.000  O
  O12      1.0000 0.44800  0.45662  0.90570  Biso   1.000  O
  H17      1.0000 0.87900  0.04690  0.33900  Biso   1.000  H
  H18      1.0000 0.62100  0.54690  0.16100  Biso   1.000  H
  H19      1.0000 0.12100  0.95310  0.66100  Biso   1.000  H
  H20      1.0000 0.37900  0.45310  0.83900  Biso   1.000  H
  H21      1.0000 0.95200  0.06000  0.44000  Biso   1.000  H
  H22      1.0000 0.54800  0.56000  0.06000  Biso   1.000  H
  H23      1.0000 0.04800  0.94000  0.56000  Biso   1.000  H
  H24      1.0000 0.45200  0.44000  0.94000  Biso   1.000  H
  O13      1.0000 0.93720  0.02503  0.68970  Biso   1.000  O
  O14      1.0000 0.56280  0.52503  0.81030  Biso   1.000  O
  O15      1.0000 0.06280  0.97497  0.31030  Biso   1.000  O
  O16      1.0000 0.43720  0.47497  0.18970  Biso   1.000  O
  H25      1.0000 0.95400  0.04340  0.70400  Biso   1.000  H
  H26      1.0000 0.54600  0.54340  0.79600  Biso   1.000  H
  H27      1.0000 0.04600  0.95660  0.29600  Biso   1.000  H
  H28      1.0000 0.45400  0.45660  0.20400  Biso   1.000  H
  H29      1.0000 0.99000  0.01410  0.75400  Biso   1.000  H
  H30      1.0000 0.51000  0.51410  0.74600  Biso   1.000  H
  H31      1.0000 0.01000  0.98590  0.24600  Biso   1.000  H
  H32      1.0000 0.49000  0.48590  0.25400  Biso   1.000  H
  N1       1.0000 0.53680  0.12345  0.84150  Biso   1.000  N
  N2       1.0000 0.96320  0.62345  0.65850  Biso   1.000  N
  N3       1.0000 0.46320  0.87655  0.15850  Biso   1.000  N
  N4       1.0000 0.03680  0.37655  0.34150  Biso   1.000  N
  N5       1.0000 0.59010  0.09521  0.79460  Biso   1.000  N
  N6       1.0000 0.90990  0.59521  0.70540  Biso   1.000  N
  N7       1.0000 0.40990  0.90479  0.20540  Biso   1.000  N
  N8       1.0000 0.09010  0.40479  0.29460  Biso   1.000  N
  N9       1.0000 0.50760  0.06844  0.82870  Biso   1.000  N
  N10      1.0000 0.99240  0.56844  0.67130  Biso   1.000  N
  N11      1.0000 0.49240  0.93156  0.17130  Biso   1.000  N
  N12      1.0000 0.00760  0.43156  0.32870  Biso   1.000  N
  N13      1.0000 0.43760  0.02920  0.66250  Biso   1.000  N
  N14      1.0000 0.06240  0.52920  0.83750  Biso   1.000  N
  N15      1.0000 0.56240  0.97080  0.33750  Biso   1.000  N
  N16      1.0000 0.93760  0.47080  0.16250  Biso   1.000  N
  N17      1.0000 0.29350  0.01456  0.65490  Biso   1.000  N
  N18      1.0000 0.20650  0.51456  0.84510  Biso   1.000  N
  N19      1.0000 0.70650  0.98544  0.34510  Biso   1.000  N
  N20      1.0000 0.79350  0.48544  0.15490  Biso   1.000  N
  N21      1.0000 0.22210  0.01728  0.54000  Biso   1.000  N
  N22      1.0000 0.27790  0.51728  0.96000  Biso   1.000  N
  N23      1.0000 0.77790  0.98272  0.46000  Biso   1.000  N
  N24      1.0000 0.72210  0.48272  0.04000  Biso   1.000  N
  C1       1.0000 0.41640  0.11492  0.90570  Biso   1.000  C
  C2       1.0000 0.08360  0.61492  0.59430  Biso   1.000  C
  C3       1.0000 0.58360  0.88508  0.09430  Biso   1.000  C
  C4       1.0000 0.91640  0.38508  0.40570  Biso   1.000  C
  C5       1.0000 0.32030  0.13535  0.96920  Biso   1.000  C
  C6       1.0000 0.17970  0.63535  0.53080  Biso   1.000  C
  C7       1.0000 0.67970  0.86465  0.03080  Biso   1.000  C
  C8       1.0000 0.82030  0.36465  0.46920  Biso   1.000  C
  H33      1.0000 0.33150  0.15990  0.97510  Biso   1.000  H
  H34      1.0000 0.16850  0.65990  0.52490  Biso   1.000  H
  H35      1.0000 0.66850  0.84010  0.02490  Biso   1.000  H
  H36      1.0000 0.83150  0.34010  0.47510  Biso   1.000  H
  C9       1.0000 0.20880  0.11776  0.02240  Biso   1.000  C
  C10      1.0000 0.29120  0.61776  0.47760  Biso   1.000  C
  C11      1.0000 0.79120  0.88224  0.97760  Biso   1.000  C
  C12      1.0000 0.70880  0.38224  0.52240  Biso   1.000  C
  H37      1.0000 0.14260  0.13060  0.06740  Biso   1.000  H
  H38      1.0000 0.35740  0.63060  0.43260  Biso   1.000  H
  H39      1.0000 0.85740  0.86940  0.93260  Biso   1.000  H
  H40      1.0000 0.64260  0.36940  0.56740  Biso   1.000  H
  C13      1.0000 0.18940  0.08126  0.01270  Biso   1.000  C
  C14      1.0000 0.31060  0.58126  0.48730  Biso   1.000  C
  C15      1.0000 0.81060  0.91874  0.98730  Biso   1.000  C
  C16      1.0000 0.68940  0.41874  0.51270  Biso   1.000  C
  H41      1.0000 0.10940  0.07040  0.05000  Biso   1.000  H
  H42      1.0000 0.39060  0.57040  0.45000  Biso   1.000  H
  H43      1.0000 0.89060  0.92960  0.95000  Biso   1.000  H
  H44      1.0000 0.60940  0.42960  0.55000  Biso   1.000  H
  C17      1.0000 0.28250  0.06101  0.95110  Biso   1.000  C
  C18      1.0000 0.21750  0.56101  0.54890  Biso   1.000  C
  C19      1.0000 0.71750  0.93899  0.04890  Biso   1.000  C
  C20      1.0000 0.78250  0.43899  0.45110  Biso   1.000  C
  H45      1.0000 0.27040  0.03650  0.94500  Biso   1.000  H
  H46      1.0000 0.22960  0.53650  0.55500  Biso   1.000  H
  H47      1.0000 0.72960  0.96350  0.05500  Biso   1.000  H
  H48      1.0000 0.77040  0.46350  0.44500  Biso   1.000  H
  C21      1.0000 0.39640  0.07892  0.89770  Biso   1.000  C
  C22      1.0000 0.10360  0.57892  0.60230  Biso   1.000  C
  C23      1.0000 0.60360  0.92108  0.10230  Biso   1.000  C
  C24      1.0000 0.89640  0.42108  0.39770  Biso   1.000  C
  C25      1.0000 0.45930  0.04280  0.55170  Biso   1.000  C
  C26      1.0000 0.04070  0.54280  0.94830  Biso   1.000  C
  C27      1.0000 0.54070  0.95720  0.44830  Biso   1.000  C
  C28      1.0000 0.95930  0.45720  0.05170  Biso   1.000  C
  C29      1.0000 0.58400  0.06119  0.51510  Biso   1.000  C
  C30      1.0000 0.91600  0.56119  0.98490  Biso   1.000  C
  C31      1.0000 0.41600  0.93881  0.48490  Biso   1.000  C
  C32      1.0000 0.08400  0.43881  0.01510  Biso   1.000  C
  H49      1.0000 0.67810  0.06690  0.57070  Biso   1.000  H
  H50      1.0000 0.82190  0.56690  0.92930  Biso   1.000  H
  H51      1.0000 0.32190  0.93310  0.42930  Biso   1.000  H
  H52      1.0000 0.17810  0.43310  0.07070  Biso   1.000  H
  C33      1.0000 0.53520  0.03393  0.78250  Biso   1.000  C
  C34      1.0000 0.96480  0.53393  0.71750  Biso   1.000  C
  C35      1.0000 0.46480  0.96607  0.21750  Biso   1.000  C
  C36      1.0000 0.03520  0.46607  0.28250  Biso   1.000  C
  H53      1.0000 0.64890  0.03120  0.77590  Biso   1.000  H
  H54      1.0000 0.85110  0.53120  0.72410  Biso   1.000  H
  H55      1.0000 0.35110  0.96880  0.22410  Biso   1.000  H
  H56      1.0000 0.14890  0.46880  0.27590  Biso   1.000  H
  H57      1.0000 0.50790  0.01600  0.84010  Biso   1.000  H
  H58      1.0000 0.99210  0.51600  0.65990  Biso   1.000  H
  H59      1.0000 0.49210  0.98400  0.15990  Biso   1.000  H
  H60      1.0000 0.00790  0.48400  0.34010  Biso   1.000  H
  C37      1.0000 0.56180  0.07057  0.39310  Biso   1.000  C
  C38      1.0000 0.93820  0.57057  0.10690  Biso   1.000  C
  C39      1.0000 0.43820  0.92943  0.60690  Biso   1.000  C
  C40      1.0000 0.06180  0.42943  0.89310  Biso   1.000  C
  H61      1.0000 0.64270  0.08340  0.36340  Biso   1.000  H
  H62      1.0000 0.85730  0.58340  0.13660  Biso   1.000  H
  H63      1.0000 0.35730  0.91660  0.63660  Biso   1.000  H
  H64      1.0000 0.14270  0.41660  0.86340  Biso   1.000  H
  C41      1.0000 0.42270  0.06171  0.31100  Biso   1.000  C
  C42      1.0000 0.07730  0.56171  0.18900  Biso   1.000  C
  C43      1.0000 0.57730  0.93829  0.68900  Biso   1.000  C
  C44      1.0000 0.92270  0.43829  0.81100  Biso   1.000  C
  H65      1.0000 0.41400  0.06840  0.22730  Biso   1.000  H
  H66      1.0000 0.08600  0.56840  0.27270  Biso   1.000  H
  H67      1.0000 0.58600  0.93160  0.77270  Biso   1.000  H
  H68      1.0000 0.91400  0.43160  0.72730  Biso   1.000  H
  C45      1.0000 0.29950  0.04389  0.34710  Biso   1.000  C
  C46      1.0000 0.20050  0.54389  0.15290  Biso   1.000  C
  C47      1.0000 0.70050  0.95611  0.65290  Biso   1.000  C
  C48      1.0000 0.79950  0.45611  0.84710  Biso   1.000  C
  H69      1.0000 0.20580  0.03820  0.29110  Biso   1.000  H
  H70      1.0000 0.29420  0.53820  0.20890  Biso   1.000  H
  H71      1.0000 0.79420  0.96180  0.70890  Biso   1.000  H
  H72      1.0000 0.70580  0.46180  0.79110  Biso   1.000  H
  C49      1.0000 0.31970  0.03448  0.47270  Biso   1.000  C
  C50      1.0000 0.18030  0.53448  0.02730  Biso   1.000  C
  C51      1.0000 0.68030  0.96552  0.52730  Biso   1.000  C
  C52      1.0000 0.81970  0.46552  0.97270  Biso   1.000  C
  N25      1.0000 0.44170  0.18146  0.68830  Biso   1.000  N
  N26      1.0000 0.05830  0.68146  0.81170  Biso   1.000  N
  N27      1.0000 0.55830  0.81854  0.31170  Biso   1.000  N
  N28      1.0000 0.94170  0.31854  0.18830  Biso   1.000  N
  N29      1.0000 0.33310  0.20077  0.72510  Biso   1.000  N
  N30      1.0000 0.16690  0.70077  0.77490  Biso   1.000  N
  N31      1.0000 0.66690  0.79923  0.27490  Biso   1.000  N
  N32      1.0000 0.83310  0.29923  0.22510  Biso   1.000  N
  N33      1.0000 0.22770  0.20965  0.62580  Biso   1.000  N
  N34      1.0000 0.27230  0.70965  0.87420  Biso   1.000  N
  N35      1.0000 0.77230  0.79035  0.37420  Biso   1.000  N
  N36      1.0000 0.72770  0.29035  0.12580  Biso   1.000  N
  N37      1.0000 0.12040  0.26700  0.61010  Biso   1.000  N
  N38      1.0000 0.37960  0.76700  0.88990  Biso   1.000  N
  N39      1.0000 0.87960  0.73300  0.38990  Biso   1.000  N
  N40      1.0000 0.62040  0.23300  0.11010  Biso   1.000  N
  N41      1.0000 0.08800  0.27692  0.49130  Biso   1.000  N
  N42      1.0000 0.41200  0.77692  0.00870  Biso   1.000  N
  N43      1.0000 0.91200  0.72308  0.50870  Biso   1.000  N
  N44      1.0000 0.58800  0.22308  0.99130  Biso   1.000  N
  N45      1.0000 0.13230  0.30914  0.48490  Biso   1.000  N
  N46      1.0000 0.36770  0.80914  0.01510  Biso   1.000  N
  N47      1.0000 0.86770  0.69086  0.51510  Biso   1.000  N
  N48      1.0000 0.63230  0.19086  0.98490  Biso   1.000  N
  C53      1.0000 0.40590  0.17707  0.56150  Biso   1.000  C
  C54      1.0000 0.09410  0.67707  0.93850  Biso   1.000  C
  C55      1.0000 0.59410  0.82293  0.43850  Biso   1.000  C
  C56      1.0000 0.90590  0.32293  0.06150  Biso   1.000  C
  C57      1.0000 0.48330  0.15819  0.48090  Biso   1.000  C
  C58      1.0000 0.01670  0.65819  0.01910  Biso   1.000  C
  C59      1.0000 0.51670  0.84181  0.51910  Biso   1.000  C
  C60      1.0000 0.98330  0.34181  0.98090  Biso   1.000  C
  H73      1.0000 0.57720  0.14520  0.50870  Biso   1.000  H
  H74      1.0000 0.92280  0.64520  0.99130  Biso   1.000  H
  H75      1.0000 0.42280  0.85480  0.49130  Biso   1.000  H
  H76      1.0000 0.07720  0.35480  0.00870  Biso   1.000  H
  C61      1.0000 0.41520  0.15962  0.35870  Biso   1.000  C
  C62      1.0000 0.08480  0.65962  0.14130  Biso   1.000  C
  C63      1.0000 0.58480  0.84038  0.64130  Biso   1.000  C
  C64      1.0000 0.91520  0.34038  0.85870  Biso   1.000  C
  H77      1.0000 0.46280  0.14700  0.30050  Biso   1.000  H
  H78      1.0000 0.03720  0.64700  0.19950  Biso   1.000  H
  H79      1.0000 0.53720  0.85300  0.69950  Biso   1.000  H
  H80      1.0000 0.96280  0.35300  0.80050  Biso   1.000  H
  C65      1.0000 0.27720  0.17925  0.31730  Biso   1.000  C
  C66      1.0000 0.22280  0.67925  0.18270  Biso   1.000  C
  C67      1.0000 0.72280  0.82075  0.68270  Biso   1.000  C
  C68      1.0000 0.77720  0.32075  0.81730  Biso   1.000  C
  H81      1.0000 0.23580  0.17970  0.23180  Biso   1.000  H
  H82      1.0000 0.26420  0.67970  0.26820  Biso   1.000  H
  H83      1.0000 0.76420  0.82030  0.76820  Biso   1.000  H
  H84      1.0000 0.73580  0.32030  0.73180  Biso   1.000  H
  C69      1.0000 0.20030  0.19777  0.39640  Biso   1.000  C
  C70      1.0000 0.29970  0.69777  0.10360  Biso   1.000  C
  C71      1.0000 0.79970  0.80223  0.60360  Biso   1.000  C
  C72      1.0000 0.70030  0.30223  0.89640  Biso   1.000  C
  H85      1.0000 0.10730  0.21100  0.36840  Biso   1.000  H
  H86      1.0000 0.39270  0.71100  0.13160  Biso   1.000  H
  H87      1.0000 0.89270  0.78900  0.63160  Biso   1.000  H
  H88      1.0000 0.60730  0.28900  0.86840  Biso   1.000  H
  C73      1.0000 0.26820  0.19580  0.52080  Biso   1.000  C
  C74      1.0000 0.23180  0.69580  0.97920  Biso   1.000  C
  C75      1.0000 0.73180  0.80420  0.47920  Biso   1.000  C
  C76      1.0000 0.76820  0.30420  0.02080  Biso   1.000  C
  C77      1.0000 0.19190  0.29345  0.68280  Biso   1.000  C
  C78      1.0000 0.30810  0.79345  0.81720  Biso   1.000  C
  C79      1.0000 0.80810  0.70655  0.31720  Biso   1.000  C
  C80      1.0000 0.69190  0.20655  0.18280  Biso   1.000  C
  C81      1.0000 0.25380  0.29621  0.80830  Biso   1.000  C
  C82      1.0000 0.24620  0.79621  0.69170  Biso   1.000  C
  C83      1.0000 0.74620  0.70379  0.19170  Biso   1.000  C
  C84      1.0000 0.75380  0.20379  0.30830  Biso   1.000  C
  H89      1.0000 0.25050  0.27740  0.86360  Biso   1.000  H
  H90      1.0000 0.24950  0.77740  0.63640  Biso   1.000  H
  H91      1.0000 0.74950  0.72260  0.13640  Biso   1.000  H
  H92      1.0000 0.75050  0.22260  0.36360  Biso   1.000  H
  C85      1.0000 0.09350  0.23123  0.64140  Biso   1.000  C
  C86      1.0000 0.40650  0.73123  0.85860  Biso   1.000  C
  C87      1.0000 0.90650  0.76877  0.35860  Biso   1.000  C
  C88      1.0000 0.59350  0.26877  0.14140  Biso   1.000  C
  H93      1.0000 0.99650  0.22240  0.58830  Biso   1.000  H
  H94      1.0000 0.50350  0.72240  0.91170  Biso   1.000  H
  H95      1.0000 0.00350  0.77760  0.41170  Biso   1.000  H
  H96      1.0000 0.49650  0.27760  0.08830  Biso   1.000  H
  H97      1.0000 0.07640  0.22990  0.72790  Biso   1.000  H
  H98      1.0000 0.42360  0.72990  0.77210  Biso   1.000  H
  H99      1.0000 0.92360  0.77010  0.27210  Biso   1.000  H
  H100     1.0000 0.57640  0.27010  0.22790  Biso   1.000  H
  C89      1.0000 0.31880  0.32754  0.84650  Biso   1.000  C
  C90      1.0000 0.18120  0.82754  0.65350  Biso   1.000  C
  C91      1.0000 0.68120  0.67246  0.15350  Biso   1.000  C
  C92      1.0000 0.81880  0.17246  0.34650  Biso   1.000  C
  H101     1.0000 0.36190  0.33060  0.93090  Biso   1.000  H
  H102     1.0000 0.13810  0.83060  0.56910  Biso   1.000  H
  H103     1.0000 0.63810  0.66940  0.06910  Biso   1.000  H
  H104     1.0000 0.86190  0.16940  0.43090  Biso   1.000  H
  C93      1.0000 0.32450  0.35575  0.76440  Biso   1.000  C
  C94      1.0000 0.17550  0.85575  0.73560  Biso   1.000  C
  C95      1.0000 0.67550  0.64425  0.23560  Biso   1.000  C
  C96      1.0000 0.82450  0.14425  0.26440  Biso   1.000  C
  H105     1.0000 0.37180  0.37700  0.79530  Biso   1.000  H
  H106     1.0000 0.12820  0.87700  0.70470  Biso   1.000  H
  H107     1.0000 0.62820  0.62300  0.20470  Biso   1.000  H
  H108     1.0000 0.87180  0.12300  0.29530  Biso   1.000  H
  C97      1.0000 0.26310  0.35309  0.64130  Biso   1.000  C
  C98      1.0000 0.23690  0.85309  0.85870  Biso   1.000  C
  C99      1.0000 0.73690  0.64691  0.35870  Biso   1.000  C
  C100     1.0000 0.76310  0.14691  0.14130  Biso   1.000  C
  H109     1.0000 0.26550  0.37210  0.58640  Biso   1.000  H
  H110     1.0000 0.23450  0.87210  0.91360  Biso   1.000  H
  H111     1.0000 0.73450  0.62790  0.41360  Biso   1.000  H
  H112     1.0000 0.76550  0.12790  0.08640  Biso   1.000  H
  C101     1.0000 0.19720  0.32094  0.60120  Biso   1.000  C
  C102     1.0000 0.30280  0.82094  0.89880  Biso   1.000  C
  C103     1.0000 0.80280  0.67906  0.39880  Biso   1.000  C
  C104     1.0000 0.69720  0.17906  0.10120  Biso   1.000  C
  B1       1.0000 0.04930  0.11407  0.63090  Biso   1.000  B
  B2       1.0000 0.45070  0.61407  0.86910  Biso   1.000  B
  B3       1.0000 0.95070  0.88593  0.36910  Biso   1.000  B
  B4       1.0000 0.54930  0.38593  0.13090  Biso   1.000  B
  F1       1.0000 0.20090  0.10191  0.63640  Biso   1.000  F
  F2       1.0000 0.29910  0.60191  0.86360  Biso   1.000  F
  F3       1.0000 0.79910  0.89809  0.36360  Biso   1.000  F
  F4       1.0000 0.70090  0.39809  0.13640  Biso   1.000  F
  F5       1.0000 0.95720  0.10458  0.51810  Biso   1.000  F
  F6       1.0000 0.54280  0.60458  0.98190  Biso   1.000  F
  F7       1.0000 0.04280  0.89542  0.48190  Biso   1.000  F
  F8       1.0000 0.45720  0.39542  0.01810  Biso   1.000  F
  F9       1.0000 0.04310  0.14958  0.64528  Biso   1.000  F
  F10      1.0000 0.45690  0.64958  0.85472  Biso   1.000  F
  F11      1.0000 0.95690  0.85042  0.35472  Biso   1.000  F
  F12      1.0000 0.54310  0.35042  0.14528  Biso   1.000  F
  F13      1.0000 0.97900  0.09826  0.72471  Biso   1.000  F
  F14      1.0000 0.52100  0.59826  0.77529  Biso   1.000  F
  F15      1.0000 0.02100  0.90174  0.27529  Biso   1.000  F
  F16      1.0000 0.47900  0.40174  0.22471  Biso   1.000  F
  B5       1.0000 0.78660  0.04156  0.08780  Biso   1.000  B
  B6       1.0000 0.71340  0.54156  0.41220  Biso   1.000  B
  B7       1.0000 0.21340  0.95844  0.91220  Biso   1.000  B
  B8       1.0000 0.28660  0.45844  0.58780  Biso   1.000  B
  F17      1.0000 0.77160  0.06167  0.19159  Biso   1.000  F
  F18      1.0000 0.72840  0.56167  0.30841  Biso   1.000  F
  F19      1.0000 0.22840  0.93833  0.80841  Biso   1.000  F
  F20      1.0000 0.27160  0.43833  0.69159  Biso   1.000  F
  F21      1.0000 0.91610  0.01911  0.12162  Biso   1.000  F
  F22      1.0000 0.58390  0.51911  0.37838  Biso   1.000  F
  F23      1.0000 0.08390  0.98089  0.87838  Biso   1.000  F
  F24      1.0000 0.41610  0.48089  0.62162  Biso   1.000  F
  F25      1.0000 0.81310  0.06325  0.99449  Biso   1.000  F
  F26      1.0000 0.68690  0.56325  0.50551  Biso   1.000  F
  F27      1.0000 0.18690  0.93675  0.00551  Biso   1.000  F
  F28      1.0000 0.31310  0.43675  0.49449  Biso   1.000  F
  F29      1.0000 0.64870  0.02280  0.05405  Biso   1.000  F
  F30      1.0000 0.85130  0.52280  0.44595  Biso   1.000  F
  F31      1.0000 0.35130  0.97720  0.94595  Biso   1.000  F
  F32      1.0000 0.14870  0.47720  0.55405  Biso   1.000  F
  B9       1.0000 0.07220  0.22736  0.02030  Biso   1.000  B
  B10      1.0000 0.42780  0.72736  0.47970  Biso   1.000  B
  B11      1.0000 0.92780  0.77264  0.97970  Biso   1.000  B
  B12      1.0000 0.57220  0.27264  0.52030  Biso   1.000  B
  F33      1.0000 0.04530  0.19153  0.02101  Biso   1.000  F
  F34      1.0000 0.45470  0.69153  0.47899  Biso   1.000  F
  F35      1.0000 0.95470  0.80847  0.97899  Biso   1.000  F
  F36      1.0000 0.54530  0.30847  0.52101  Biso   1.000  F
  F37      1.0000 0.97990  0.24091  0.91258  Biso   1.000  F
  F38      1.0000 0.52010  0.74091  0.58742  Biso   1.000  F
  F39      1.0000 0.02010  0.75909  0.08742  Biso   1.000  F
  F40      1.0000 0.47990  0.25909  0.41258  Biso   1.000  F
  F41      1.0000 0.02390  0.24234  0.12304  Biso   1.000  F
  F42      1.0000 0.47610  0.74234  0.37696  Biso   1.000  F
  F43      1.0000 0.97610  0.75766  0.87696  Biso   1.000  F
  F44      1.0000 0.52390  0.25766  0.62304  Biso   1.000  F
  F45      1.0000 0.23060  0.23422  0.02193  Biso   1.000  F
  F46      1.0000 0.26940  0.73422  0.47807  Biso   1.000  F
  F47      1.0000 0.76940  0.76578  0.97807  Biso   1.000  F
  F48      1.0000 0.73060  0.26578  0.52193  Biso   1.000  F
