data_image0
_cell_length_a       9.2086
_cell_length_b       15.2089
_cell_length_c       11.3472
_cell_angle_alpha    90
_cell_angle_beta     90
_cell_angle_gamma    90

_symmetry_space_group_name_H-M    "P 1"
_symmetry_int_tables_number       1

loop_
  _symmetry_equiv_pos_as_xyz
  'x, y, z'

loop_
  _atom_site_label
  _atom_site_occupancy
  _atom_site_fract_x
  _atom_site_fract_y
  _atom_site_fract_z
  _atom_site_thermal_displace_type
  _atom_site_B_iso_or_equiv
  _atom_site_type_symbol
  Cu1      1.0000 0.27581  0.25365  0.24999  Biso   1.000  Cu
  Cu2      1.0000 0.72419  0.74635  0.74999  Biso   1.000  Cu
  Cu3      1.0000 0.22419  0.75365  0.74999  Biso   1.000  Cu
  Cu4      1.0000 0.77581  0.24635  0.24999  Biso   1.000  Cu
  N1       1.0000 0.20900  0.13470  0.19930  Biso   1.000  N
  N2       1.0000 0.79100  0.86530  0.69930  Biso   1.000  N
  N3       1.0000 0.29100  0.63470  0.69930  Biso   1.000  N
  N4       1.0000 0.70900  0.36530  0.19930  Biso   1.000  N
  N5       1.0000 0.11730  0.12860  0.11180  Biso   1.000  N
  N6       1.0000 0.88270  0.87140  0.61180  Biso   1.000  N
  N7       1.0000 0.38270  0.62860  0.61180  Biso   1.000  N
  N8       1.0000 0.61730  0.37140  0.11180  Biso   1.000  N
  N9       1.0000 0.09460  0.04280  0.09180  Biso   1.000  N
  N10      1.0000 0.90540  0.95720  0.59180  Biso   1.000  N
  N11      1.0000 0.40540  0.54280  0.59180  Biso   1.000  N
  N12      1.0000 0.59460  0.45720  0.09180  Biso   1.000  N
  N13      1.0000 0.08080  0.98160  0.89820  Biso   1.000  N
  N14      1.0000 0.91920  0.01840  0.39820  Biso   1.000  N
  N15      1.0000 0.41920  0.48160  0.39820  Biso   1.000  N
  N16      1.0000 0.58080  0.51840  0.89820  Biso   1.000  N
  N17      1.0000 0.08930  0.89410  0.88500  Biso   1.000  N
  N18      1.0000 0.91070  0.10590  0.38500  Biso   1.000  N
  N19      1.0000 0.41070  0.39410  0.38500  Biso   1.000  N
  N20      1.0000 0.58930  0.60590  0.88500  Biso   1.000  N
  N21      1.0000 0.17740  0.87820  0.79720  Biso   1.000  N
  N22      1.0000 0.82260  0.12180  0.29720  Biso   1.000  N
  N23      1.0000 0.32260  0.37820  0.29720  Biso   1.000  N
  N24      1.0000 0.67740  0.62180  0.79720  Biso   1.000  N
  C1       1.0000 0.99920  0.01670  0.99640  Biso   1.000  C
  C2       1.0000 0.00080  0.98330  0.49640  Biso   1.000  C
  C3       1.0000 0.50080  0.51670  0.49640  Biso   1.000  C
  C4       1.0000 0.49920  0.48330  0.99640  Biso   1.000  C
  H1       1.0000 0.94340  0.06720  0.97030  Biso   1.000  H
  H2       1.0000 0.05660  0.93280  0.47030  Biso   1.000  H
  H3       1.0000 0.55660  0.56720  0.47030  Biso   1.000  H
  H4       1.0000 0.44340  0.43280  0.97030  Biso   1.000  H
  H5       1.0000 0.93160  0.97250  0.02460  Biso   1.000  H
  H6       1.0000 0.06840  0.02750  0.52460  Biso   1.000  H
  H7       1.0000 0.56840  0.47250  0.52460  Biso   1.000  H
  H8       1.0000 0.43160  0.52750  0.02460  Biso   1.000  H
  C5       1.0000 0.24730  0.05230  0.23650  Biso   1.000  C
  C6       1.0000 0.75270  0.94770  0.73650  Biso   1.000  C
  C7       1.0000 0.25270  0.55230  0.73650  Biso   1.000  C
  C8       1.0000 0.74730  0.44770  0.23650  Biso   1.000  C
  C9       1.0000 0.34230  0.02550  0.32630  Biso   1.000  C
  C10      1.0000 0.65770  0.97450  0.82630  Biso   1.000  C
  C11      1.0000 0.15770  0.52550  0.82630  Biso   1.000  C
  C12      1.0000 0.84230  0.47450  0.32630  Biso   1.000  C
  H9       1.0000 0.39020  0.06560  0.37440  Biso   1.000  H
  H10      1.0000 0.60980  0.93440  0.87440  Biso   1.000  H
  H11      1.0000 0.10980  0.56560  0.87440  Biso   1.000  H
  H12      1.0000 0.89020  0.43440  0.37440  Biso   1.000  H
  C13      1.0000 0.36030  0.93600  0.33870  Biso   1.000  C
  C14      1.0000 0.63970  0.06400  0.83870  Biso   1.000  C
  C15      1.0000 0.13970  0.43600  0.83870  Biso   1.000  C
  C16      1.0000 0.86030  0.56400  0.33870  Biso   1.000  C
  H13      1.0000 0.42230  0.91480  0.39680  Biso   1.000  H
  H14      1.0000 0.57770  0.08520  0.89680  Biso   1.000  H
  H15      1.0000 0.07770  0.41480  0.89680  Biso   1.000  H
  H16      1.0000 0.92230  0.58520  0.39680  Biso   1.000  H
  C17      1.0000 0.28680  0.87570  0.26530  Biso   1.000  C
  C18      1.0000 0.71320  0.12430  0.76530  Biso   1.000  C
  C19      1.0000 0.21320  0.37570  0.76530  Biso   1.000  C
  C20      1.0000 0.78680  0.62430  0.26530  Biso   1.000  C
  H17      1.0000 0.30280  0.81600  0.27660  Biso   1.000  H
  H18      1.0000 0.69720  0.18400  0.77660  Biso   1.000  H
  H19      1.0000 0.19720  0.31600  0.77660  Biso   1.000  H
  H20      1.0000 0.80280  0.68400  0.27660  Biso   1.000  H
  C21      1.0000 0.19280  0.90150  0.17800  Biso   1.000  C
  C22      1.0000 0.80720  0.09850  0.67800  Biso   1.000  C
  C23      1.0000 0.30720  0.40150  0.67800  Biso   1.000  C
  C24      1.0000 0.69280  0.59850  0.17800  Biso   1.000  C
  H21      1.0000 0.14430  0.86130  0.13040  Biso   1.000  H
  H22      1.0000 0.85570  0.13870  0.63040  Biso   1.000  H
  H23      1.0000 0.35570  0.36130  0.63040  Biso   1.000  H
  H24      1.0000 0.64430  0.63870  0.13040  Biso   1.000  H
  C25      1.0000 0.17530  0.99150  0.16600  Biso   1.000  C
  C26      1.0000 0.82470  0.00850  0.66600  Biso   1.000  C
  C27      1.0000 0.32470  0.49150  0.66600  Biso   1.000  C
  C28      1.0000 0.67530  0.50850  0.16600  Biso   1.000  C
  C29      1.0000 0.22890  0.95650  0.75370  Biso   1.000  C
  C30      1.0000 0.77110  0.04350  0.25370  Biso   1.000  C
  C31      1.0000 0.27110  0.45650  0.25370  Biso   1.000  C
  C32      1.0000 0.72890  0.54350  0.75370  Biso   1.000  C
  C33      1.0000 0.32680  0.97380  0.66220  Biso   1.000  C
  C34      1.0000 0.67320  0.02620  0.16220  Biso   1.000  C
  C35      1.0000 0.17320  0.47380  0.16220  Biso   1.000  C
  C36      1.0000 0.82680  0.52620  0.66220  Biso   1.000  C
  H25      1.0000 0.36920  0.92900  0.61840  Biso   1.000  H
  H26      1.0000 0.63080  0.07100  0.11840  Biso   1.000  H
  H27      1.0000 0.13080  0.42900  0.11840  Biso   1.000  H
  H28      1.0000 0.86920  0.57100  0.61840  Biso   1.000  H
  C37      1.0000 0.35650  0.06070  0.64110  Biso   1.000  C
  C38      1.0000 0.64350  0.93930  0.14110  Biso   1.000  C
  C39      1.0000 0.14350  0.56070  0.14110  Biso   1.000  C
  C40      1.0000 0.85650  0.43930  0.64110  Biso   1.000  C
  H29      1.0000 0.42190  0.07520  0.58170  Biso   1.000  H
  H30      1.0000 0.57810  0.92480  0.08170  Biso   1.000  H
  H31      1.0000 0.07810  0.57520  0.08170  Biso   1.000  H
  H32      1.0000 0.92190  0.42480  0.58170  Biso   1.000  H
  C41      1.0000 0.29140  0.12820  0.70580  Biso   1.000  C
  C42      1.0000 0.70860  0.87180  0.20580  Biso   1.000  C
  C43      1.0000 0.20860  0.62820  0.20580  Biso   1.000  C
  C44      1.0000 0.79140  0.37180  0.70580  Biso   1.000  C
  H33      1.0000 0.31380  0.18620  0.68730  Biso   1.000  H
  H34      1.0000 0.68620  0.81380  0.18730  Biso   1.000  H
  H35      1.0000 0.18620  0.68620  0.18730  Biso   1.000  H
  H36      1.0000 0.81380  0.31380  0.68730  Biso   1.000  H
  C45      1.0000 0.19640  0.11180  0.79520  Biso   1.000  C
  C46      1.0000 0.80360  0.88820  0.29520  Biso   1.000  C
  C47      1.0000 0.30360  0.61180  0.29520  Biso   1.000  C
  C48      1.0000 0.69640  0.38820  0.79520  Biso   1.000  C
  H37      1.0000 0.15360  0.15680  0.83840  Biso   1.000  H
  H38      1.0000 0.84640  0.84320  0.33840  Biso   1.000  H
  H39      1.0000 0.34640  0.65680  0.33840  Biso   1.000  H
  H40      1.0000 0.65360  0.34320  0.83840  Biso   1.000  H
  C49      1.0000 0.16770  0.02460  0.81750  Biso   1.000  C
  C50      1.0000 0.83230  0.97540  0.31750  Biso   1.000  C
  C51      1.0000 0.33230  0.52460  0.31750  Biso   1.000  C
  C52      1.0000 0.66770  0.47540  0.81750  Biso   1.000  C
  N25      1.0000 0.40610  0.24190  0.02600  Biso   1.000  N
  N26      1.0000 0.59390  0.75810  0.52600  Biso   1.000  N
  N27      1.0000 0.09390  0.74190  0.52600  Biso   1.000  N
  N28      1.0000 0.90610  0.25810  0.02600  Biso   1.000  N
  N29      1.0000 0.08840  0.26240  0.42760  Biso   1.000  N
  N30      1.0000 0.91160  0.73760  0.92760  Biso   1.000  N
  N31      1.0000 0.41160  0.76240  0.92760  Biso   1.000  N
  N32      1.0000 0.58840  0.23760  0.42760  Biso   1.000  N
  O1       1.0000 0.45910  0.17760  0.07170  Biso   1.000  O
  O2       1.0000 0.54090  0.82240  0.57170  Biso   1.000  O
  O3       1.0000 0.04090  0.67760  0.57170  Biso   1.000  O
  O4       1.0000 0.95910  0.32240  0.07170  Biso   1.000  O
  O5       1.0000 0.42980  0.26520  0.92470  Biso   1.000  O
  O6       1.0000 0.57020  0.73480  0.42470  Biso   1.000  O
  O7       1.0000 0.07020  0.76520  0.42470  Biso   1.000  O
  O8       1.0000 0.92980  0.23480  0.92470  Biso   1.000  O
  O9       1.0000 0.31740  0.29046  0.08870  Biso   1.000  O
  O10      1.0000 0.68260  0.70954  0.58870  Biso   1.000  O
  O11      1.0000 0.18260  0.79046  0.58870  Biso   1.000  O
  O12      1.0000 0.81740  0.20954  0.08870  Biso   1.000  O
  O13      1.0000 0.03450  0.26580  0.52450  Biso   1.000  O
  O14      1.0000 0.96550  0.73420  0.02450  Biso   1.000  O
  O15      1.0000 0.46550  0.76580  0.02450  Biso   1.000  O
  O16      1.0000 0.53450  0.23420  0.52450  Biso   1.000  O
  O17      1.0000 0.02770  0.29020  0.33490  Biso   1.000  O
  O18      1.0000 0.97230  0.70980  0.83490  Biso   1.000  O
  O19      1.0000 0.47230  0.79020  0.83490  Biso   1.000  O
  O20      1.0000 0.52770  0.20980  0.33490  Biso   1.000  O
  O21      1.0000 0.21460  0.22739  0.41480  Biso   1.000  O
  O22      1.0000 0.78540  0.77261  0.91480  Biso   1.000  O
  O23      1.0000 0.28540  0.72739  0.91480  Biso   1.000  O
  O24      1.0000 0.71460  0.27261  0.41480  Biso   1.000  O
