data_image0
_cell_length_a       8.493
_cell_length_b       38.8893
_cell_length_c       11.2222
_cell_angle_alpha    90
_cell_angle_beta     99.762
_cell_angle_gamma    90

_symmetry_space_group_name_H-M    "P 1"
_symmetry_int_tables_number       1

loop_
  _symmetry_equiv_pos_as_xyz
  'x, y, z'

loop_
  _atom_site_label
  _atom_site_occupancy
  _atom_site_fract_x
  _atom_site_fract_y
  _atom_site_fract_z
  _atom_site_thermal_displace_type
  _atom_site_B_iso_or_equiv
  _atom_site_type_symbol
  Cu1      1.0000 0.64069  0.16778  0.80945  Biso   1.000  Cu
  Cu2      1.0000 0.85931  0.66778  0.69055  Biso   1.000  Cu
  Cu3      1.0000 0.35931  0.83222  0.19055  Biso   1.000  Cu
  Cu4      1.0000 0.14069  0.33222  0.30945  Biso   1.000  Cu
  Cu5      1.0000 0.00000  0.00000  0.50000  Biso   1.000  Cu
  Cu6      1.0000 0.50000  0.50000  0.00000  Biso   1.000  Cu
  O1       1.0000 0.75160  0.20893  0.75410  Biso   1.000  O
  O2       1.0000 0.74840  0.70893  0.74590  Biso   1.000  O
  O3       1.0000 0.24840  0.79107  0.24590  Biso   1.000  O
  O4       1.0000 0.25160  0.29107  0.25410  Biso   1.000  O
  H1       1.0000 0.69800  0.22540  0.71500  Biso   1.000  H
  H2       1.0000 0.80200  0.72540  0.78500  Biso   1.000  H
  H3       1.0000 0.30200  0.77460  0.28500  Biso   1.000  H
  H4       1.0000 0.19800  0.27460  0.21500  Biso   1.000  H
  H5       1.0000 0.80200  0.22000  0.81000  Biso   1.000  H
  H6       1.0000 0.69800  0.72000  0.69000  Biso   1.000  H
  H7       1.0000 0.19800  0.78000  0.19000  Biso   1.000  H
  H8       1.0000 0.30200  0.28000  0.31000  Biso   1.000  H
  O5       1.0000 0.85630  0.14640  0.86700  Biso   1.000  O
  O6       1.0000 0.64370  0.64640  0.63300  Biso   1.000  O
  O7       1.0000 0.14370  0.85360  0.13300  Biso   1.000  O
  O8       1.0000 0.35630  0.35360  0.36700  Biso   1.000  O
  H9       1.0000 0.89000  0.13150  0.82800  Biso   1.000  H
  H10      1.0000 0.61000  0.63150  0.67200  Biso   1.000  H
  H11      1.0000 0.11000  0.86850  0.17200  Biso   1.000  H
  H12      1.0000 0.39000  0.36850  0.32800  Biso   1.000  H
  H13      1.0000 0.92400  0.15800  0.89300  Biso   1.000  H
  H14      1.0000 0.57600  0.65800  0.60700  Biso   1.000  H
  H15      1.0000 0.07600  0.84200  0.10700  Biso   1.000  H
  H16      1.0000 0.42400  0.34200  0.39300  Biso   1.000  H
  O9       1.0000 0.94830  0.04296  0.40840  Biso   1.000  O
  O10      1.0000 0.55170  0.54296  0.09160  Biso   1.000  O
  O11      1.0000 0.05170  0.95704  0.59160  Biso   1.000  O
  O12      1.0000 0.44830  0.45704  0.90840  Biso   1.000  O
  H17      1.0000 0.87600  0.04210  0.34700  Biso   1.000  H
  H18      1.0000 0.62400  0.54210  0.15300  Biso   1.000  H
  H19      1.0000 0.12400  0.95790  0.65300  Biso   1.000  H
  H20      1.0000 0.37600  0.45790  0.84700  Biso   1.000  H
  H21      1.0000 0.94900  0.06500  0.43500  Biso   1.000  H
  H22      1.0000 0.55100  0.56500  0.06500  Biso   1.000  H
  H23      1.0000 0.05100  0.93500  0.56500  Biso   1.000  H
  H24      1.0000 0.44900  0.43500  0.93500  Biso   1.000  H
  O13      1.0000 0.93570  0.02484  0.68660  Biso   1.000  O
  O14      1.0000 0.56430  0.52484  0.81340  Biso   1.000  O
  O15      1.0000 0.06430  0.97516  0.31340  Biso   1.000  O
  O16      1.0000 0.43570  0.47516  0.18660  Biso   1.000  O
  H25      1.0000 0.96100  0.04640  0.70800  Biso   1.000  H
  H26      1.0000 0.53900  0.54640  0.79200  Biso   1.000  H
  H27      1.0000 0.03900  0.95360  0.29200  Biso   1.000  H
  H28      1.0000 0.46100  0.45360  0.20800  Biso   1.000  H
  H29      1.0000 0.97800  0.01400  0.74200  Biso   1.000  H
  H30      1.0000 0.52200  0.51400  0.75800  Biso   1.000  H
  H31      1.0000 0.02200  0.98600  0.25800  Biso   1.000  H
  H32      1.0000 0.47800  0.48600  0.24200  Biso   1.000  H
  N1       1.0000 0.54080  0.12359  0.83910  Biso   1.000  N
  N2       1.0000 0.95920  0.62359  0.66090  Biso   1.000  N
  N3       1.0000 0.45920  0.87641  0.16090  Biso   1.000  N
  N4       1.0000 0.04080  0.37641  0.33910  Biso   1.000  N
  N5       1.0000 0.59030  0.09584  0.79030  Biso   1.000  N
  N6       1.0000 0.90970  0.59584  0.70970  Biso   1.000  N
  N7       1.0000 0.40970  0.90416  0.20970  Biso   1.000  N
  N8       1.0000 0.09030  0.40416  0.29030  Biso   1.000  N
  N9       1.0000 0.50730  0.06911  0.82390  Biso   1.000  N
  N10      1.0000 0.99270  0.56911  0.67610  Biso   1.000  N
  N11      1.0000 0.49270  0.93089  0.17610  Biso   1.000  N
  N12      1.0000 0.00730  0.43089  0.32390  Biso   1.000  N
  N13      1.0000 0.43780  0.03021  0.66050  Biso   1.000  N
  N14      1.0000 0.06220  0.53021  0.83950  Biso   1.000  N
  N15      1.0000 0.56220  0.96979  0.33950  Biso   1.000  N
  N16      1.0000 0.93780  0.46979  0.16050  Biso   1.000  N
  N17      1.0000 0.29380  0.01511  0.65290  Biso   1.000  N
  N18      1.0000 0.20620  0.51511  0.84710  Biso   1.000  N
  N19      1.0000 0.70620  0.98489  0.34710  Biso   1.000  N
  N20      1.0000 0.79380  0.48489  0.15290  Biso   1.000  N
  N21      1.0000 0.22330  0.01724  0.54010  Biso   1.000  N
  N22      1.0000 0.27670  0.51724  0.95990  Biso   1.000  N
  N23      1.0000 0.77670  0.98276  0.45990  Biso   1.000  N
  N24      1.0000 0.72330  0.48276  0.04010  Biso   1.000  N
  C1       1.0000 0.42150  0.11487  0.90440  Biso   1.000  C
  C2       1.0000 0.07850  0.61487  0.59560  Biso   1.000  C
  C3       1.0000 0.57850  0.88513  0.09560  Biso   1.000  C
  C4       1.0000 0.92150  0.38513  0.40440  Biso   1.000  C
  C5       1.0000 0.32820  0.13515  0.97120  Biso   1.000  C
  C6       1.0000 0.17180  0.63515  0.52880  Biso   1.000  C
  C7       1.0000 0.67180  0.86485  0.02880  Biso   1.000  C
  C8       1.0000 0.82820  0.36485  0.47120  Biso   1.000  C
  H33      1.0000 0.34020  0.15940  0.97740  Biso   1.000  H
  H34      1.0000 0.15980  0.65940  0.52260  Biso   1.000  H
  H35      1.0000 0.65980  0.84060  0.02260  Biso   1.000  H
  H36      1.0000 0.84020  0.34060  0.47740  Biso   1.000  H
  C9       1.0000 0.21960  0.11774  0.02630  Biso   1.000  C
  C10      1.0000 0.28040  0.61774  0.47370  Biso   1.000  C
  C11      1.0000 0.78040  0.88226  0.97370  Biso   1.000  C
  C12      1.0000 0.71960  0.38226  0.52630  Biso   1.000  C
  H37      1.0000 0.15530  0.13020  0.07260  Biso   1.000  H
  H38      1.0000 0.34470  0.63020  0.42740  Biso   1.000  H
  H39      1.0000 0.84470  0.86980  0.92740  Biso   1.000  H
  H40      1.0000 0.65530  0.36980  0.57260  Biso   1.000  H
  C13      1.0000 0.20120  0.08158  0.01580  Biso   1.000  C
  C14      1.0000 0.29880  0.58158  0.48420  Biso   1.000  C
  C15      1.0000 0.79880  0.91842  0.98420  Biso   1.000  C
  C16      1.0000 0.70120  0.41842  0.51580  Biso   1.000  C
  H41      1.0000 0.12440  0.07070  0.05560  Biso   1.000  H
  H42      1.0000 0.37560  0.57070  0.44440  Biso   1.000  H
  H43      1.0000 0.87560  0.92930  0.94440  Biso   1.000  H
  H44      1.0000 0.62440  0.42930  0.55560  Biso   1.000  H
  C17      1.0000 0.28870  0.06174  0.95100  Biso   1.000  C
  C18      1.0000 0.21130  0.56174  0.54900  Biso   1.000  C
  C19      1.0000 0.71130  0.93826  0.04900  Biso   1.000  C
  C20      1.0000 0.78870  0.43826  0.45100  Biso   1.000  C
  H45      1.0000 0.27530  0.03750  0.94410  Biso   1.000  H
  H46      1.0000 0.22470  0.53750  0.55590  Biso   1.000  H
  H47      1.0000 0.72470  0.96250  0.05590  Biso   1.000  H
  H48      1.0000 0.77530  0.46250  0.44410  Biso   1.000  H
  C21      1.0000 0.40030  0.07963  0.89530  Biso   1.000  C
  C22      1.0000 0.09970  0.57963  0.60470  Biso   1.000  C
  C23      1.0000 0.59970  0.92037  0.10470  Biso   1.000  C
  C24      1.0000 0.90030  0.42037  0.39530  Biso   1.000  C
  C25      1.0000 0.45900  0.04320  0.55240  Biso   1.000  C
  C26      1.0000 0.04100  0.54320  0.94760  Biso   1.000  C
  C27      1.0000 0.54100  0.95680  0.44760  Biso   1.000  C
  C28      1.0000 0.95900  0.45680  0.05240  Biso   1.000  C
  C29      1.0000 0.58300  0.06185  0.51550  Biso   1.000  C
  C30      1.0000 0.91700  0.56185  0.98450  Biso   1.000  C
  C31      1.0000 0.41700  0.93815  0.48450  Biso   1.000  C
  C32      1.0000 0.08300  0.43815  0.01550  Biso   1.000  C
  H49      1.0000 0.67670  0.06790  0.57050  Biso   1.000  H
  H50      1.0000 0.82330  0.56790  0.92950  Biso   1.000  H
  H51      1.0000 0.32330  0.93210  0.42950  Biso   1.000  H
  H52      1.0000 0.17670  0.43210  0.07050  Biso   1.000  H
  C33      1.0000 0.53570  0.03518  0.77820  Biso   1.000  C
  C34      1.0000 0.96430  0.53518  0.72180  Biso   1.000  C
  C35      1.0000 0.46430  0.96482  0.22180  Biso   1.000  C
  C36      1.0000 0.03570  0.46482  0.27820  Biso   1.000  C
  H53      1.0000 0.64990  0.03270  0.77160  Biso   1.000  H
  H54      1.0000 0.85010  0.53270  0.72840  Biso   1.000  H
  H55      1.0000 0.35010  0.96730  0.22840  Biso   1.000  H
  H56      1.0000 0.14990  0.46730  0.27160  Biso   1.000  H
  H57      1.0000 0.50950  0.01740  0.83500  Biso   1.000  H
  H58      1.0000 0.99050  0.51740  0.66500  Biso   1.000  H
  H59      1.0000 0.49050  0.98260  0.16500  Biso   1.000  H
  H60      1.0000 0.00950  0.48260  0.33500  Biso   1.000  H
  C37      1.0000 0.56250  0.07096  0.39630  Biso   1.000  C
  C38      1.0000 0.93750  0.57096  0.10370  Biso   1.000  C
  C39      1.0000 0.43750  0.92904  0.60370  Biso   1.000  C
  C40      1.0000 0.06250  0.42904  0.89630  Biso   1.000  C
  H61      1.0000 0.64300  0.08410  0.36810  Biso   1.000  H
  H62      1.0000 0.85700  0.58410  0.13190  Biso   1.000  H
  H63      1.0000 0.35700  0.91590  0.63190  Biso   1.000  H
  H64      1.0000 0.14300  0.41590  0.86810  Biso   1.000  H
  C41      1.0000 0.42550  0.06142  0.31400  Biso   1.000  C
  C42      1.0000 0.07450  0.56142  0.18600  Biso   1.000  C
  C43      1.0000 0.57450  0.93858  0.68600  Biso   1.000  C
  C44      1.0000 0.92550  0.43858  0.81400  Biso   1.000  C
  H65      1.0000 0.41790  0.06770  0.23140  Biso   1.000  H
  H66      1.0000 0.08210  0.56770  0.26860  Biso   1.000  H
  H67      1.0000 0.58210  0.93230  0.76860  Biso   1.000  H
  H68      1.0000 0.91790  0.43230  0.73140  Biso   1.000  H
  C45      1.0000 0.30230  0.04328  0.34960  Biso   1.000  C
  C46      1.0000 0.19770  0.54328  0.15040  Biso   1.000  C
  C47      1.0000 0.69770  0.95672  0.65040  Biso   1.000  C
  C48      1.0000 0.80230  0.45672  0.84960  Biso   1.000  C
  H69      1.0000 0.20940  0.03700  0.29400  Biso   1.000  H
  H70      1.0000 0.29060  0.53700  0.20600  Biso   1.000  H
  H71      1.0000 0.79060  0.96300  0.70600  Biso   1.000  H
  H72      1.0000 0.70940  0.46300  0.79400  Biso   1.000  H
  C49      1.0000 0.32170  0.03447  0.47330  Biso   1.000  C
  C50      1.0000 0.17830  0.53447  0.02670  Biso   1.000  C
  C51      1.0000 0.67830  0.96553  0.52670  Biso   1.000  C
  C52      1.0000 0.82170  0.46553  0.97330  Biso   1.000  C
  N25      1.0000 0.45100  0.18160  0.69020  Biso   1.000  N
  N26      1.0000 0.04900  0.68160  0.80980  Biso   1.000  N
  N27      1.0000 0.54900  0.81840  0.30980  Biso   1.000  N
  N28      1.0000 0.95100  0.31840  0.19020  Biso   1.000  N
  N29      1.0000 0.34210  0.20151  0.72440  Biso   1.000  N
  N30      1.0000 0.15790  0.70151  0.77560  Biso   1.000  N
  N31      1.0000 0.65790  0.79849  0.27560  Biso   1.000  N
  N32      1.0000 0.84210  0.29849  0.22440  Biso   1.000  N
  N33      1.0000 0.23820  0.21007  0.62440  Biso   1.000  N
  N34      1.0000 0.26180  0.71007  0.87560  Biso   1.000  N
  N35      1.0000 0.76180  0.78993  0.37560  Biso   1.000  N
  N36      1.0000 0.73820  0.28993  0.12440  Biso   1.000  N
  N37      1.0000 0.13200  0.26711  0.60640  Biso   1.000  N
  N38      1.0000 0.36800  0.76711  0.89360  Biso   1.000  N
  N39      1.0000 0.86800  0.73289  0.39360  Biso   1.000  N
  N40      1.0000 0.63200  0.23289  0.10640  Biso   1.000  N
  N41      1.0000 0.09790  0.27703  0.48980  Biso   1.000  N
  N42      1.0000 0.40210  0.77703  0.01020  Biso   1.000  N
  N43      1.0000 0.90210  0.72297  0.51020  Biso   1.000  N
  N44      1.0000 0.59790  0.22297  0.98980  Biso   1.000  N
  N45      1.0000 0.13950  0.30932  0.48370  Biso   1.000  N
  N46      1.0000 0.36050  0.80932  0.01630  Biso   1.000  N
  N47      1.0000 0.86050  0.69068  0.51630  Biso   1.000  N
  N48      1.0000 0.63950  0.19068  0.98370  Biso   1.000  N
  C53      1.0000 0.41820  0.17720  0.56640  Biso   1.000  C
  C54      1.0000 0.08180  0.67720  0.93360  Biso   1.000  C
  C55      1.0000 0.58180  0.82280  0.43360  Biso   1.000  C
  C56      1.0000 0.91820  0.32280  0.06640  Biso   1.000  C
  C57      1.0000 0.49550  0.15788  0.48820  Biso   1.000  C
  C58      1.0000 0.00450  0.65788  0.01180  Biso   1.000  C
  C59      1.0000 0.50450  0.84212  0.51180  Biso   1.000  C
  C60      1.0000 0.99550  0.34212  0.98820  Biso   1.000  C
  H73      1.0000 0.58830  0.14470  0.51720  Biso   1.000  H
  H74      1.0000 0.91170  0.64470  0.98280  Biso   1.000  H
  H75      1.0000 0.41170  0.85530  0.48280  Biso   1.000  H
  H76      1.0000 0.08830  0.35530  0.01720  Biso   1.000  H
  C61      1.0000 0.43080  0.15890  0.36770  Biso   1.000  C
  C62      1.0000 0.06920  0.65890  0.13230  Biso   1.000  C
  C63      1.0000 0.56920  0.84110  0.63230  Biso   1.000  C
  C64      1.0000 0.93080  0.34110  0.86770  Biso   1.000  C
  H77      1.0000 0.48000  0.14610  0.31190  Biso   1.000  H
  H78      1.0000 0.02000  0.64610  0.18810  Biso   1.000  H
  H79      1.0000 0.52000  0.85390  0.68810  Biso   1.000  H
  H80      1.0000 0.98000  0.35390  0.81190  Biso   1.000  H
  C65      1.0000 0.29160  0.17866  0.32410  Biso   1.000  C
  C66      1.0000 0.20840  0.67866  0.17590  Biso   1.000  C
  C67      1.0000 0.70840  0.82134  0.67590  Biso   1.000  C
  C68      1.0000 0.79160  0.32134  0.82410  Biso   1.000  C
  H81      1.0000 0.25160  0.17880  0.23970  Biso   1.000  H
  H82      1.0000 0.24840  0.67880  0.26030  Biso   1.000  H
  H83      1.0000 0.74840  0.82120  0.76030  Biso   1.000  H
  H84      1.0000 0.75160  0.32120  0.73970  Biso   1.000  H
  C69      1.0000 0.21280  0.19763  0.39980  Biso   1.000  C
  C70      1.0000 0.28720  0.69763  0.10020  Biso   1.000  C
  C71      1.0000 0.78720  0.80237  0.60020  Biso   1.000  C
  C72      1.0000 0.71280  0.30237  0.89980  Biso   1.000  C
  H85      1.0000 0.11990  0.21080  0.37110  Biso   1.000  H
  H86      1.0000 0.38010  0.71080  0.12890  Biso   1.000  H
  H87      1.0000 0.88010  0.78920  0.62890  Biso   1.000  H
  H88      1.0000 0.61990  0.28920  0.87110  Biso   1.000  H
  C73      1.0000 0.28120  0.19586  0.52270  Biso   1.000  C
  C74      1.0000 0.21880  0.69586  0.97730  Biso   1.000  C
  C75      1.0000 0.71880  0.80414  0.47730  Biso   1.000  C
  C76      1.0000 0.78120  0.30414  0.02270  Biso   1.000  C
  C77      1.0000 0.20110  0.29342  0.67830  Biso   1.000  C
  C78      1.0000 0.29890  0.79342  0.82170  Biso   1.000  C
  C79      1.0000 0.79890  0.70658  0.32170  Biso   1.000  C
  C80      1.0000 0.70110  0.20658  0.17830  Biso   1.000  C
  C81      1.0000 0.26250  0.29577  0.80260  Biso   1.000  C
  C82      1.0000 0.23750  0.79577  0.69740  Biso   1.000  C
  C83      1.0000 0.73750  0.70423  0.19740  Biso   1.000  C
  C84      1.0000 0.76250  0.20423  0.30260  Biso   1.000  C
  H89      1.0000 0.25980  0.27700  0.85640  Biso   1.000  H
  H90      1.0000 0.24020  0.77700  0.64360  Biso   1.000  H
  H91      1.0000 0.74020  0.72300  0.14360  Biso   1.000  H
  H92      1.0000 0.75980  0.22300  0.35640  Biso   1.000  H
  C85      1.0000 0.10410  0.23185  0.63720  Biso   1.000  C
  C86      1.0000 0.39590  0.73185  0.86280  Biso   1.000  C
  C87      1.0000 0.89590  0.76815  0.36280  Biso   1.000  C
  C88      1.0000 0.60410  0.26815  0.13720  Biso   1.000  C
  H93      1.0000 0.00720  0.22320  0.58400  Biso   1.000  H
  H94      1.0000 0.49280  0.72320  0.91600  Biso   1.000  H
  H95      1.0000 0.99280  0.77680  0.41600  Biso   1.000  H
  H96      1.0000 0.50720  0.27680  0.08400  Biso   1.000  H
  H97      1.0000 0.08500  0.23080  0.72170  Biso   1.000  H
  H98      1.0000 0.41500  0.73080  0.77830  Biso   1.000  H
  H99      1.0000 0.91500  0.76920  0.27830  Biso   1.000  H
  H100     1.0000 0.58500  0.26920  0.22170  Biso   1.000  H
  C89      1.0000 0.32670  0.32719  0.84090  Biso   1.000  C
  C90      1.0000 0.17330  0.82719  0.65910  Biso   1.000  C
  C91      1.0000 0.67330  0.67281  0.15910  Biso   1.000  C
  C92      1.0000 0.82670  0.17281  0.34090  Biso   1.000  C
  H101     1.0000 0.37180  0.33010  0.92370  Biso   1.000  H
  H102     1.0000 0.12820  0.83010  0.57630  Biso   1.000  H
  H103     1.0000 0.62820  0.66990  0.07630  Biso   1.000  H
  H104     1.0000 0.87180  0.16990  0.42370  Biso   1.000  H
  C93      1.0000 0.32780  0.35542  0.76060  Biso   1.000  C
  C94      1.0000 0.17220  0.85542  0.73940  Biso   1.000  C
  C95      1.0000 0.67220  0.64458  0.23940  Biso   1.000  C
  C96      1.0000 0.82780  0.14458  0.26060  Biso   1.000  C
  H105     1.0000 0.37150  0.37670  0.79180  Biso   1.000  H
  H106     1.0000 0.12850  0.87670  0.70820  Biso   1.000  H
  H107     1.0000 0.62850  0.62330  0.20820  Biso   1.000  H
  H108     1.0000 0.87150  0.12330  0.29180  Biso   1.000  H
  C97      1.0000 0.26780  0.35291  0.63960  Biso   1.000  C
  C98      1.0000 0.23220  0.85291  0.86040  Biso   1.000  C
  C99      1.0000 0.73220  0.64709  0.36040  Biso   1.000  C
  C100     1.0000 0.76780  0.14709  0.13960  Biso   1.000  C
  H109     1.0000 0.26930  0.37180  0.58600  Biso   1.000  H
  H110     1.0000 0.23070  0.87180  0.91400  Biso   1.000  H
  H111     1.0000 0.73070  0.62820  0.41400  Biso   1.000  H
  H112     1.0000 0.76930  0.12820  0.08600  Biso   1.000  H
  C101     1.0000 0.20400  0.32088  0.59970  Biso   1.000  C
  C102     1.0000 0.29600  0.82088  0.90030  Biso   1.000  C
  C103     1.0000 0.79600  0.67912  0.40030  Biso   1.000  C
  C104     1.0000 0.70400  0.17912  0.09970  Biso   1.000  C
  Cl1      1.0000 0.08705  0.22743  0.02327  Biso   1.000  Cl
  Cl2      1.0000 0.41295  0.72743  0.47673  Biso   1.000  Cl
  Cl3      1.0000 0.91295  0.77257  0.97673  Biso   1.000  Cl
  Cl4      1.0000 0.58705  0.27257  0.52327  Biso   1.000  Cl
  Cl5      1.0000 0.78802  0.04229  0.08881  Biso   1.000  Cl
  Cl6      1.0000 0.71198  0.54229  0.41119  Biso   1.000  Cl
  Cl7      1.0000 0.21198  0.95771  0.91119  Biso   1.000  Cl
  Cl8      1.0000 0.28802  0.45771  0.58881  Biso   1.000  Cl
  Cl9      1.0000 0.05188  0.11436  0.63001  Biso   1.000  Cl
  Cl10     1.0000 0.44812  0.61436  0.86999  Biso   1.000  Cl
  Cl11     1.0000 0.94812  0.88564  0.36999  Biso   1.000  Cl
  Cl12     1.0000 0.55188  0.38564  0.13001  Biso   1.000  Cl
  O17      1.0000 0.25330  0.23410  0.02680  Biso   1.000  O
  O18      1.0000 0.24670  0.73410  0.47320  Biso   1.000  O
  O19      1.0000 0.74670  0.76590  0.97320  Biso   1.000  O
  O20      1.0000 0.75330  0.26590  0.52680  Biso   1.000  O
  O21      1.0000 0.03520  0.24305  0.12760  Biso   1.000  O
  O22      1.0000 0.46480  0.74305  0.37240  Biso   1.000  O
  O23      1.0000 0.96480  0.75695  0.87240  Biso   1.000  O
  O24      1.0000 0.53520  0.25695  0.62760  Biso   1.000  O
  O25      1.0000 0.05720  0.19113  0.02490  Biso   1.000  O
  O26      1.0000 0.44280  0.69113  0.47510  Biso   1.000  O
  O27      1.0000 0.94280  0.80887  0.97510  Biso   1.000  O
  O28      1.0000 0.55720  0.30887  0.52490  Biso   1.000  O
  O29      1.0000 0.99530  0.24223  0.91450  Biso   1.000  O
  O30      1.0000 0.50470  0.74223  0.58550  Biso   1.000  O
  O31      1.0000 0.00470  0.75777  0.08550  Biso   1.000  O
  O32      1.0000 0.49530  0.25777  0.41450  Biso   1.000  O
  O33      1.0000 0.64720  0.02214  0.05100  Biso   1.000  O
  O34      1.0000 0.85280  0.52214  0.44900  Biso   1.000  O
  O35      1.0000 0.35280  0.97786  0.94900  Biso   1.000  O
  O36      1.0000 0.14720  0.47786  0.55100  Biso   1.000  O
  O37      1.0000 0.81260  0.06537  0.99450  Biso   1.000  O
  O38      1.0000 0.68740  0.56537  0.50550  Biso   1.000  O
  O39      1.0000 0.18740  0.93463  0.00550  Biso   1.000  O
  O40      1.0000 0.31260  0.43463  0.49450  Biso   1.000  O
  O41      1.0000 0.76610  0.06203  0.19340  Biso   1.000  O
  O42      1.0000 0.73390  0.56203  0.30660  Biso   1.000  O
  O43      1.0000 0.23390  0.93797  0.80660  Biso   1.000  O
  O44      1.0000 0.26610  0.43797  0.69340  Biso   1.000  O
  O45      1.0000 0.92440  0.01988  0.11960  Biso   1.000  O
  O46      1.0000 0.57560  0.51988  0.38040  Biso   1.000  O
  O47      1.0000 0.07560  0.98012  0.88040  Biso   1.000  O
  O48      1.0000 0.42440  0.48012  0.61960  Biso   1.000  O
  O49      1.0000 0.20920  0.10192  0.62880  Biso   1.000  O
  O50      1.0000 0.29080  0.60192  0.87120  Biso   1.000  O
  O51      1.0000 0.79080  0.89808  0.37120  Biso   1.000  O
  O52      1.0000 0.70920  0.39808  0.12880  Biso   1.000  O
  O53      1.0000 0.98770  0.09767  0.72770  Biso   1.000  O
  O54      1.0000 0.51230  0.59767  0.77230  Biso   1.000  O
  O55      1.0000 0.01230  0.90233  0.27230  Biso   1.000  O
  O56      1.0000 0.48770  0.40233  0.22770  Biso   1.000  O
  O57      1.0000 0.94970  0.10549  0.51760  Biso   1.000  O
  O58      1.0000 0.55030  0.60549  0.98240  Biso   1.000  O
  O59      1.0000 0.05030  0.89451  0.48240  Biso   1.000  O
  O60      1.0000 0.44970  0.39451  0.01760  Biso   1.000  O
  O61      1.0000 0.04910  0.15059  0.64670  Biso   1.000  O
  O62      1.0000 0.45090  0.65059  0.85330  Biso   1.000  O
  O63      1.0000 0.95090  0.84941  0.35330  Biso   1.000  O
  O64      1.0000 0.54910  0.34941  0.14670  Biso   1.000  O
