data_image0
_cell_length_a       7.0044
_cell_length_b       11.8269
_cell_length_c       18.495
_cell_angle_alpha    88.306
_cell_angle_beta     85.763
_cell_angle_gamma    84.972

_symmetry_space_group_name_H-M    "P 1"
_symmetry_int_tables_number       1

loop_
  _symmetry_equiv_pos_as_xyz
  'x, y, z'

loop_
  _atom_site_label
  _atom_site_occupancy
  _atom_site_fract_x
  _atom_site_fract_y
  _atom_site_fract_z
  _atom_site_thermal_displace_type
  _atom_site_B_iso_or_equiv
  _atom_site_type_symbol
  Cu1      1.0000 0.08566  0.67042  0.84655  Biso   1.000  Cu
  Cu2      1.0000 0.91434  0.32958  0.15345  Biso   1.000  Cu
  Cu3      1.0000 0.61083  0.80208  0.64162  Biso   1.000  Cu
  Cu4      1.0000 0.38917  0.19792  0.35838  Biso   1.000  Cu
  O1       1.0000 0.94940  0.73200  0.76316  Biso   1.000  O
  O2       1.0000 0.05060  0.26800  0.23684  Biso   1.000  O
  O3       1.0000 0.89310  0.69690  0.64996  Biso   1.000  O
  O4       1.0000 0.10690  0.30310  0.35004  Biso   1.000  O
  O5       1.0000 0.97490  0.79530  0.90966  Biso   1.000  O
  O6       1.0000 0.02510  0.20470  0.09034  Biso   1.000  O
  O7       1.0000 0.45850  0.74190  0.72407  Biso   1.000  O
  O8       1.0000 0.54150  0.25810  0.27593  Biso   1.000  O
  O9       1.0000 0.33780  0.78090  0.83511  Biso   1.000  O
  O10      1.0000 0.66220  0.21910  0.16489  Biso   1.000  O
  O11      1.0000 0.54220  0.68810  0.57455  Biso   1.000  O
  O12      1.0000 0.45780  0.31190  0.42545  Biso   1.000  O
  N1       1.0000 0.19690  0.55100  0.77659  Biso   1.000  N
  N2       1.0000 0.80310  0.44900  0.22341  Biso   1.000  N
  N3       1.0000 0.18210  0.55940  0.91904  Biso   1.000  N
  N4       1.0000 0.81790  0.44060  0.08096  Biso   1.000  N
  N5       1.0000 0.29330  0.38220  0.94080  Biso   1.000  N
  N6       1.0000 0.70670  0.61780  0.05920  Biso   1.000  N
  N7       1.0000 0.66230  0.92290  0.71062  Biso   1.000  N
  N8       1.0000 0.33770  0.07710  0.28938  Biso   1.000  N
  N9       1.0000 0.69350  0.91360  0.56850  Biso   1.000  N
  N10      1.0000 0.30650  0.08640  0.43150  Biso   1.000  N
  N11      1.0000 0.75500  0.09020  0.54238  Biso   1.000  N
  N12      1.0000 0.24500  0.90980  0.45762  Biso   1.000  N
  C1       1.0000 0.96730  0.67130  0.70779  Biso   1.000  C
  C2       1.0000 0.03270  0.32870  0.29221  Biso   1.000  C
  C3       1.0000 0.08340  0.55720  0.71243  Biso   1.000  C
  C4       1.0000 0.91660  0.44280  0.28757  Biso   1.000  C
  H1       1.0000 0.99740  0.49700  0.71550  Biso   1.000  H
  H2       1.0000 0.00260  0.50300  0.28450  Biso   1.000  H
  H3       1.0000 0.16880  0.54670  0.66900  Biso   1.000  H
  H4       1.0000 0.83120  0.45330  0.33100  Biso   1.000  H
  C5       1.0000 0.22250  0.43840  0.81226  Biso   1.000  C
  C6       1.0000 0.77750  0.56160  0.18774  Biso   1.000  C
  H5       1.0000 0.34030  0.39720  0.79300  Biso   1.000  H
  H6       1.0000 0.65970  0.60280  0.20700  Biso   1.000  H
  H7       1.0000 0.11560  0.39450  0.80440  Biso   1.000  H
  H8       1.0000 0.88440  0.60550  0.19560  Biso   1.000  H
  C7       1.0000 0.23170  0.45850  0.89143  Biso   1.000  C
  C8       1.0000 0.76830  0.54150  0.10857  Biso   1.000  C
  C9       1.0000 0.21420  0.54880  0.99202  Biso   1.000  C
  C10      1.0000 0.78580  0.45120  0.00798  Biso   1.000  C
  C11      1.0000 0.28460  0.43600  0.00647  Biso   1.000  C
  C12      1.0000 0.71540  0.56400  0.99353  Biso   1.000  C
  C13      1.0000 0.33450  0.39920  0.07510  Biso   1.000  C
  C14      1.0000 0.66550  0.60080  0.92490  Biso   1.000  C
  H9       1.0000 0.38150  0.32450  0.08410  Biso   1.000  H
  H10      1.0000 0.61850  0.67550  0.91590  Biso   1.000  H
  C15      1.0000 0.31170  0.47700  0.12870  Biso   1.000  C
  C16      1.0000 0.68830  0.52300  0.87130  Biso   1.000  C
  H11      1.0000 0.34170  0.45440  0.17540  Biso   1.000  H
  H12      1.0000 0.65830  0.54560  0.82460  Biso   1.000  H
  C17      1.0000 0.24390  0.59040  0.11500  Biso   1.000  C
  C18      1.0000 0.75610  0.40960  0.88500  Biso   1.000  C
  H13      1.0000 0.23350  0.64170  0.15260  Biso   1.000  H
  H14      1.0000 0.76650  0.35830  0.84740  Biso   1.000  H
  C19      1.0000 0.19250  0.62750  0.04723  Biso   1.000  C
  C20      1.0000 0.80750  0.37250  0.95277  Biso   1.000  C
  H15      1.0000 0.14520  0.70220  0.03870  Biso   1.000  H
  H16      1.0000 0.85480  0.29780  0.96130  Biso   1.000  H
  C21      1.0000 0.43480  0.80450  0.77882  Biso   1.000  C
  C22      1.0000 0.56520  0.19550  0.22118  Biso   1.000  C
  C23      1.0000 0.52720  0.91640  0.77537  Biso   1.000  C
  C24      1.0000 0.47280  0.08360  0.22463  Biso   1.000  C
  H17      1.0000 0.42820  0.97900  0.77390  Biso   1.000  H
  H18      1.0000 0.57180  0.02100  0.22610  Biso   1.000  H
  H19      1.0000 0.59540  0.92330  0.81860  Biso   1.000  H
  H20      1.0000 0.40460  0.07670  0.18140  Biso   1.000  H
  C25      1.0000 0.66800  0.03530  0.67399  Biso   1.000  C
  C26      1.0000 0.33200  0.96470  0.32601  Biso   1.000  C
  H21      1.0000 0.76910  0.07590  0.69160  Biso   1.000  H
  H22      1.0000 0.23090  0.92410  0.30840  Biso   1.000  H
  H23      1.0000 0.54640  0.08020  0.68320  Biso   1.000  H
  H24      1.0000 0.45360  0.91980  0.31680  Biso   1.000  H
  C27      1.0000 0.70590  0.01460  0.59454  Biso   1.000  C
  C28      1.0000 0.29410  0.98540  0.40546  Biso   1.000  C
  C29      1.0000 0.73840  0.92210  0.49410  Biso   1.000  C
  C30      1.0000 0.26160  0.07790  0.50590  Biso   1.000  C
  C31      1.0000 0.77630  0.03460  0.47715  Biso   1.000  C
  C32      1.0000 0.22370  0.96540  0.52285  Biso   1.000  C
  C33      1.0000 0.82540  0.07020  0.40650  Biso   1.000  C
  C34      1.0000 0.17460  0.92980  0.59350  Biso   1.000  C
  H25      1.0000 0.84830  0.14520  0.39530  Biso   1.000  H
  H26      1.0000 0.15170  0.85480  0.60470  Biso   1.000  H
  C35      1.0000 0.83870  0.98950  0.35400  Biso   1.000  C
  C36      1.0000 0.16130  0.01050  0.64600  Biso   1.000  C
  H27      1.0000 0.87110  0.01060  0.30620  Biso   1.000  H
  H28      1.0000 0.12890  0.98940  0.69380  Biso   1.000  H
  C37      1.0000 0.80470  0.87630  0.37070  Biso   1.000  C
  C38      1.0000 0.19530  0.12370  0.62930  Biso   1.000  C
  H29      1.0000 0.81780  0.82360  0.33390  Biso   1.000  H
  H30      1.0000 0.18220  0.17640  0.66610  Biso   1.000  H
  C39      1.0000 0.75220  0.84180  0.44065  Biso   1.000  C
  C40      1.0000 0.24780  0.15820  0.55935  Biso   1.000  C
  H31      1.0000 0.72700  0.76710  0.45150  Biso   1.000  H
  H32      1.0000 0.27300  0.23290  0.54850  Biso   1.000  H
  H33      1.0000 0.88500  0.80300  0.94160  Biso   1.000  H
  H34      1.0000 0.11500  0.19700  0.05840  Biso   1.000  H
  H35      1.0000 0.99000  0.85800  0.88900  Biso   1.000  H
  H36      1.0000 0.01000  0.14200  0.11100  Biso   1.000  H
  H37      1.0000 0.59200  0.62200  0.58300  Biso   1.000  H
  H38      1.0000 0.40800  0.37800  0.41700  Biso   1.000  H
  H39      1.0000 0.42600  0.68300  0.56700  Biso   1.000  H
  H40      1.0000 0.57400  0.31700  0.43300  Biso   1.000  H
  H41      1.0000 0.76200  0.15910  0.54900  Biso   1.000  H
  H42      1.0000 0.23800  0.84090  0.45100  Biso   1.000  H
  H43      1.0000 0.30600  0.31240  0.94100  Biso   1.000  H
  H44      1.0000 0.69400  0.68760  0.05900  Biso   1.000  H
  H45      1.0000 0.30600  0.57500  0.76520  Biso   1.000  H
  H46      1.0000 0.69400  0.42500  0.23480  Biso   1.000  H
  H47      1.0000 0.77200  0.90100  0.72400  Biso   1.000  H
  H48      1.0000 0.22800  0.09900  0.27600  Biso   1.000  H
  Cl1      1.0000 0.04786  0.90621  0.15032  Biso   1.000  Cl
  Cl2      1.0000 0.95214  0.09379  0.84968  Biso   1.000  Cl
  O13      1.0000 0.01970  0.01650  0.18207  Biso   1.000  O
  O14      1.0000 0.98030  0.98350  0.81793  Biso   1.000  O
  O15      1.0000 0.03890  0.91830  0.07396  Biso   1.000  O
  O16      1.0000 0.96110  0.08170  0.92604  Biso   1.000  O
  O17      1.0000 0.91380  0.83700  0.17820  Biso   1.000  O
  O18      1.0000 0.08620  0.16300  0.82180  Biso   1.000  O
  O19      1.0000 0.23600  0.85990  0.16440  Biso   1.000  O
  O20      1.0000 0.76400  0.14010  0.83560  Biso   1.000  O
  Cl3      1.0000 0.63870  0.39331  0.64467  Biso   1.000  Cl
  Cl4      1.0000 0.36130  0.60669  0.35533  Biso   1.000  Cl
  O21      1.0000 0.72240  0.46330  0.58810  Biso   1.000  O
  O22      1.0000 0.27760  0.53670  0.41190  Biso   1.000  O
  O23      1.0000 0.45340  0.37450  0.63350  Biso   1.000  O
  O24      1.0000 0.54660  0.62550  0.36650  Biso   1.000  O
  O25      1.0000 0.62430  0.45180  0.70560  Biso   1.000  O
  O26      1.0000 0.37570  0.54820  0.29440  Biso   1.000  O
  O27      1.0000 0.71990  0.29590  0.63600  Biso   1.000  O
  O28      1.0000 0.28010  0.70410  0.36400  Biso   1.000  O
  O29      1.0000 0.68110  0.84270  0.01311  Biso   1.000  O
  O30      1.0000 0.31890  0.15730  0.98689  Biso   1.000  O
  H49      1.0000 0.57600  0.86700  0.99500  Biso   1.000  H
  H50      1.0000 0.42400  0.13300  0.00500  Biso   1.000  H
  H51      1.0000 0.71200  0.89700  0.03800  Biso   1.000  H
  H52      1.0000 0.28800  0.10300  0.96200  Biso   1.000  H
  O31      1.0000 0.17690  0.67560  0.53212  Biso   1.000  O
  O32      1.0000 0.82310  0.32440  0.46788  Biso   1.000  O
  H53      1.0000 0.19700  0.60700  0.51800  Biso   1.000  H
  H54      1.0000 0.80300  0.39300  0.48200  Biso   1.000  H
  H55      1.0000 0.07400  0.67500  0.56100  Biso   1.000  H
  H56      1.0000 0.92600  0.32500  0.43900  Biso   1.000  H
  O33      1.0000 0.34310  0.91270  0.95813  Biso   1.000  O
  O34      1.0000 0.65690  0.08730  0.04187  Biso   1.000  O
  H57      1.0000 0.31400  0.87400  0.92190  Biso   1.000  H
  H58      1.0000 0.68600  0.12600  0.07810  Biso   1.000  H
  H59      1.0000 0.23900  0.91700  0.98600  Biso   1.000  H
  H60      1.0000 0.76100  0.08300  0.01400  Biso   1.000  H
