data_image0
_cell_length_a       12.455
_cell_length_b       6.202
_cell_length_c       16.555
_cell_angle_alpha    90
_cell_angle_beta     106.776
_cell_angle_gamma    90

_symmetry_space_group_name_H-M    "P 1"
_symmetry_int_tables_number       1

loop_
  _symmetry_equiv_pos_as_xyz
  'x, y, z'

loop_
  _atom_site_label
  _atom_site_occupancy
  _atom_site_fract_x
  _atom_site_fract_y
  _atom_site_fract_z
  _atom_site_thermal_displace_type
  _atom_site_B_iso_or_equiv
  _atom_site_type_symbol
  Cu1      1.0000 0.50000  0.28060  0.75000  Biso   1.000  Cu
  Cu2      1.0000 0.00000  0.78060  0.75000  Biso   1.000  Cu
  Cu3      1.0000 0.50000  0.71940  0.25000  Biso   1.000  Cu
  Cu4      1.0000 0.00000  0.21940  0.25000  Biso   1.000  Cu
  O1       1.0000 0.33590  0.25310  0.74180  Biso   1.000  O
  O2       1.0000 0.66410  0.25310  0.75820  Biso   1.000  O
  O3       1.0000 0.83590  0.75310  0.74180  Biso   1.000  O
  O4       1.0000 0.16410  0.75310  0.75820  Biso   1.000  O
  O5       1.0000 0.66410  0.74690  0.25820  Biso   1.000  O
  O6       1.0000 0.33590  0.74690  0.24180  Biso   1.000  O
  O7       1.0000 0.16410  0.24690  0.25820  Biso   1.000  O
  O8       1.0000 0.83590  0.24690  0.24180  Biso   1.000  O
  O9       1.0000 0.02830  0.22280  0.37180  Biso   1.000  O
  O10      1.0000 0.97170  0.22280  0.12820  Biso   1.000  O
  O11      1.0000 0.52830  0.72280  0.37180  Biso   1.000  O
  O12      1.0000 0.47170  0.72280  0.12820  Biso   1.000  O
  O13      1.0000 0.97170  0.77720  0.62820  Biso   1.000  O
  O14      1.0000 0.02830  0.77720  0.87180  Biso   1.000  O
  O15      1.0000 0.47170  0.27720  0.62820  Biso   1.000  O
  O16      1.0000 0.52830  0.27720  0.87180  Biso   1.000  O
  O17      1.0000 0.06340  0.57710  0.38480  Biso   1.000  O
  O18      1.0000 0.93660  0.57710  0.11520  Biso   1.000  O
  O19      1.0000 0.56340  0.07710  0.38480  Biso   1.000  O
  O20      1.0000 0.43660  0.07710  0.11520  Biso   1.000  O
  O21      1.0000 0.93660  0.42290  0.61520  Biso   1.000  O
  O22      1.0000 0.06340  0.42290  0.88480  Biso   1.000  O
  O23      1.0000 0.43660  0.92290  0.61520  Biso   1.000  O
  O24      1.0000 0.56340  0.92290  0.88480  Biso   1.000  O
  O25      1.0000 0.50000  0.65010  0.75000  Biso   1.000  O
  O26      1.0000 0.00000  0.15010  0.75000  Biso   1.000  O
  O27      1.0000 0.50000  0.34990  0.25000  Biso   1.000  O
  O28      1.0000 0.00000  0.84990  0.25000  Biso   1.000  O
  N1       1.0000 0.26150  0.29240  0.66600  Biso   1.000  N
  N2       1.0000 0.73850  0.29240  0.83400  Biso   1.000  N
  N3       1.0000 0.76150  0.79240  0.66600  Biso   1.000  N
  N4       1.0000 0.23850  0.79240  0.83400  Biso   1.000  N
  N5       1.0000 0.73850  0.70760  0.33400  Biso   1.000  N
  N6       1.0000 0.26150  0.70760  0.16600  Biso   1.000  N
  N7       1.0000 0.23850  0.20760  0.33400  Biso   1.000  N
  N8       1.0000 0.76150  0.20760  0.16600  Biso   1.000  N
  C1       1.0000 0.19760  0.12970  0.62500  Biso   1.000  C
  C2       1.0000 0.80240  0.12970  0.87500  Biso   1.000  C
  C3       1.0000 0.69760  0.62970  0.62500  Biso   1.000  C
  C4       1.0000 0.30240  0.62970  0.87500  Biso   1.000  C
  C5       1.0000 0.80240  0.87030  0.37500  Biso   1.000  C
  C6       1.0000 0.19760  0.87030  0.12500  Biso   1.000  C
  C7       1.0000 0.30240  0.37030  0.37500  Biso   1.000  C
  C8       1.0000 0.69760  0.37030  0.12500  Biso   1.000  C
  C9       1.0000 0.13170  0.15930  0.54400  Biso   1.000  C
  C10      1.0000 0.86830  0.15930  0.95600  Biso   1.000  C
  C11      1.0000 0.63170  0.65930  0.54400  Biso   1.000  C
  C12      1.0000 0.36830  0.65930  0.95600  Biso   1.000  C
  C13      1.0000 0.86830  0.84070  0.45600  Biso   1.000  C
  C14      1.0000 0.13170  0.84070  0.04400  Biso   1.000  C
  C15      1.0000 0.36830  0.34070  0.45600  Biso   1.000  C
  C16      1.0000 0.63170  0.34070  0.04400  Biso   1.000  C
  C17      1.0000 0.12410  0.35900  0.50590  Biso   1.000  C
  C18      1.0000 0.87590  0.35900  0.99410  Biso   1.000  C
  C19      1.0000 0.62410  0.85900  0.50590  Biso   1.000  C
  C20      1.0000 0.37590  0.85900  0.99410  Biso   1.000  C
  C21      1.0000 0.87590  0.64100  0.49410  Biso   1.000  C
  C22      1.0000 0.12410  0.64100  0.00590  Biso   1.000  C
  C23      1.0000 0.37590  0.14100  0.49410  Biso   1.000  C
  C24      1.0000 0.62410  0.14100  0.00590  Biso   1.000  C
  C25      1.0000 0.18470  0.52650  0.55320  Biso   1.000  C
  C26      1.0000 0.81530  0.52650  0.94680  Biso   1.000  C
  C27      1.0000 0.68470  0.02650  0.55320  Biso   1.000  C
  C28      1.0000 0.31530  0.02650  0.94680  Biso   1.000  C
  C29      1.0000 0.81530  0.47350  0.44680  Biso   1.000  C
  C30      1.0000 0.18470  0.47350  0.05320  Biso   1.000  C
  C31      1.0000 0.31530  0.97350  0.44680  Biso   1.000  C
  C32      1.0000 0.68470  0.97350  0.05320  Biso   1.000  C
  C33      1.0000 0.25260  0.49350  0.63310  Biso   1.000  C
  C34      1.0000 0.74740  0.49350  0.86690  Biso   1.000  C
  C35      1.0000 0.75260  0.99350  0.63310  Biso   1.000  C
  C36      1.0000 0.24740  0.99350  0.86690  Biso   1.000  C
  C37      1.0000 0.74740  0.50650  0.36690  Biso   1.000  C
  C38      1.0000 0.25260  0.50650  0.13310  Biso   1.000  C
  C39      1.0000 0.24740  0.00650  0.36690  Biso   1.000  C
  C40      1.0000 0.75260  0.00650  0.13310  Biso   1.000  C
  C41      1.0000 0.06430  0.39500  0.41260  Biso   1.000  C
  C42      1.0000 0.93570  0.39500  0.08740  Biso   1.000  C
  C43      1.0000 0.56430  0.89500  0.41260  Biso   1.000  C
  C44      1.0000 0.43570  0.89500  0.08740  Biso   1.000  C
  C45      1.0000 0.93570  0.60500  0.58740  Biso   1.000  C
  C46      1.0000 0.06430  0.60500  0.91260  Biso   1.000  C
  C47      1.0000 0.43570  0.10500  0.58740  Biso   1.000  C
  C48      1.0000 0.56430  0.10500  0.91260  Biso   1.000  C
