data_image0
_cell_length_a       7.248
_cell_length_b       17.862
_cell_length_c       8.534
_cell_angle_alpha    90
_cell_angle_beta     110.91
_cell_angle_gamma    90

_symmetry_space_group_name_H-M    "P 1"
_symmetry_int_tables_number       1

loop_
  _symmetry_equiv_pos_as_xyz
  'x, y, z'

loop_
  _atom_site_label
  _atom_site_occupancy
  _atom_site_fract_x
  _atom_site_fract_y
  _atom_site_fract_z
  _atom_site_thermal_displace_type
  _atom_site_B_iso_or_equiv
  _atom_site_type_symbol
  Cu1      1.0000 0.83991  0.04808  0.67408  Biso   1.000  Cu
  Cu2      1.0000 0.33991  0.95192  0.67408  Biso   1.000  Cu
  Cu3      1.0000 0.33991  0.54808  0.17408  Biso   1.000  Cu
  Cu4      1.0000 0.83991  0.45192  0.17408  Biso   1.000  Cu
  Cl1      1.0000 0.60420  0.96436  0.52280  Biso   1.000  Cl
  Cl2      1.0000 0.10420  0.03564  0.52280  Biso   1.000  Cl
  Cl3      1.0000 0.10420  0.46436  0.02280  Biso   1.000  Cl
  Cl4      1.0000 0.60420  0.53564  0.02280  Biso   1.000  Cl
  Cl5      1.0000 0.67760  0.14538  0.51540  Biso   1.000  Cl
  Cl6      1.0000 0.17760  0.85462  0.51540  Biso   1.000  Cl
  Cl7      1.0000 0.17760  0.64538  0.01540  Biso   1.000  Cl
  Cl8      1.0000 0.67760  0.35462  0.01540  Biso   1.000  Cl
  N1       1.0000 0.99760  0.11460  0.87000  Biso   1.000  N
  N2       1.0000 0.49760  0.88540  0.87000  Biso   1.000  N
  N3       1.0000 0.49760  0.61460  0.37000  Biso   1.000  N
  N4       1.0000 0.99760  0.38540  0.37000  Biso   1.000  N
  N5       1.0000 0.98320  0.96930  0.84590  Biso   1.000  N
  N6       1.0000 0.48320  0.03070  0.84590  Biso   1.000  N
  N7       1.0000 0.48320  0.46930  0.34590  Biso   1.000  N
  N8       1.0000 0.98320  0.53070  0.34590  Biso   1.000  N
  C1       1.0000 0.99960  0.18960  0.87400  Biso   1.000  C
  C2       1.0000 0.49960  0.81040  0.87400  Biso   1.000  C
  C3       1.0000 0.49960  0.68960  0.37400  Biso   1.000  C
  C4       1.0000 0.99960  0.31040  0.37400  Biso   1.000  C
  H1       1.0000 0.92500  0.21530  0.77730  Biso   1.000  H
  H2       1.0000 0.42500  0.78470  0.77730  Biso   1.000  H
  H3       1.0000 0.42500  0.71530  0.27730  Biso   1.000  H
  H4       1.0000 0.92500  0.28470  0.27730  Biso   1.000  H
  C5       1.0000 0.10450  0.23010  0.01130  Biso   1.000  C
  C6       1.0000 0.60450  0.76990  0.01130  Biso   1.000  C
  C7       1.0000 0.60450  0.73010  0.51130  Biso   1.000  C
  C8       1.0000 0.10450  0.26990  0.51130  Biso   1.000  C
  H5       1.0000 0.10080  0.28210  0.00890  Biso   1.000  H
  H6       1.0000 0.60080  0.71790  0.00890  Biso   1.000  H
  H7       1.0000 0.60080  0.78210  0.50890  Biso   1.000  H
  H8       1.0000 0.10080  0.21790  0.50890  Biso   1.000  H
  C9       1.0000 0.21870  0.19170  0.15690  Biso   1.000  C
  C10      1.0000 0.71870  0.80830  0.15690  Biso   1.000  C
  C11      1.0000 0.71870  0.69170  0.65690  Biso   1.000  C
  C12      1.0000 0.21870  0.30830  0.65690  Biso   1.000  C
  H9       1.0000 0.29380  0.21780  0.25260  Biso   1.000  H
  H10      1.0000 0.79380  0.78220  0.25260  Biso   1.000  H
  H11      1.0000 0.79380  0.71780  0.75260  Biso   1.000  H
  H12      1.0000 0.29380  0.28220  0.75260  Biso   1.000  H
  C13      1.0000 0.21800  0.11540  0.15590  Biso   1.000  C
  C14      1.0000 0.71800  0.88460  0.15590  Biso   1.000  C
  C15      1.0000 0.71800  0.61540  0.65590  Biso   1.000  C
  C16      1.0000 0.21800  0.38460  0.65590  Biso   1.000  C
  H13      1.0000 0.29410  0.08900  0.25100  Biso   1.000  H
  H14      1.0000 0.79410  0.91100  0.25100  Biso   1.000  H
  H15      1.0000 0.79410  0.58900  0.75100  Biso   1.000  H
  H16      1.0000 0.29410  0.41100  0.75100  Biso   1.000  H
  C17      1.0000 0.10390  0.07720  0.01330  Biso   1.000  C
  C18      1.0000 0.60390  0.92280  0.01330  Biso   1.000  C
  C19      1.0000 0.60390  0.57720  0.51330  Biso   1.000  C
  C20      1.0000 0.10390  0.42280  0.51330  Biso   1.000  C
  C21      1.0000 0.09160  0.99560  0.99830  Biso   1.000  C
  C22      1.0000 0.59160  0.00440  0.99830  Biso   1.000  C
  C23      1.0000 0.59160  0.49560  0.49830  Biso   1.000  C
  C24      1.0000 0.09160  0.50440  0.49830  Biso   1.000  C
  C25      1.0000 0.19340  0.94800  0.12970  Biso   1.000  C
  C26      1.0000 0.69340  0.05200  0.12970  Biso   1.000  C
  C27      1.0000 0.69340  0.44800  0.62970  Biso   1.000  C
  C28      1.0000 0.19340  0.55200  0.62970  Biso   1.000  C
  H17      1.0000 0.26950  0.96730  0.23400  Biso   1.000  H
  H18      1.0000 0.76950  0.03270  0.23400  Biso   1.000  H
  H19      1.0000 0.76950  0.46730  0.73400  Biso   1.000  H
  H20      1.0000 0.26950  0.53270  0.73400  Biso   1.000  H
  C29      1.0000 0.18020  0.87250  0.10330  Biso   1.000  C
  C30      1.0000 0.68020  0.12750  0.10330  Biso   1.000  C
  C31      1.0000 0.68020  0.37250  0.60330  Biso   1.000  C
  C32      1.0000 0.18020  0.62750  0.60330  Biso   1.000  C
  H21      1.0000 0.24320  0.83960  0.19060  Biso   1.000  H
  H22      1.0000 0.74320  0.16040  0.19060  Biso   1.000  H
  H23      1.0000 0.74320  0.33960  0.69060  Biso   1.000  H
  H24      1.0000 0.24320  0.66040  0.69060  Biso   1.000  H
  C33      1.0000 0.07030  0.84510  0.94310  Biso   1.000  C
  C34      1.0000 0.57030  0.15490  0.94310  Biso   1.000  C
  C35      1.0000 0.57030  0.34510  0.44310  Biso   1.000  C
  C36      1.0000 0.07030  0.65490  0.44310  Biso   1.000  C
  H25      1.0000 0.06230  0.79400  0.92090  Biso   1.000  H
  H26      1.0000 0.56230  0.20600  0.92090  Biso   1.000  H
  H27      1.0000 0.56230  0.29400  0.42090  Biso   1.000  H
  H28      1.0000 0.06230  0.70600  0.42090  Biso   1.000  H
  C37      1.0000 0.97530  0.89540  0.82080  Biso   1.000  C
  C38      1.0000 0.47530  0.10460  0.82080  Biso   1.000  C
  C39      1.0000 0.47530  0.39540  0.32080  Biso   1.000  C
  C40      1.0000 0.97530  0.60460  0.32080  Biso   1.000  C
  H29      1.0000 0.90150  0.87740  0.71460  Biso   1.000  H
  H30      1.0000 0.40150  0.12260  0.71460  Biso   1.000  H
  H31      1.0000 0.40150  0.37740  0.21460  Biso   1.000  H
  H32      1.0000 0.90150  0.62260  0.21460  Biso   1.000  H
