data_image0
_cell_length_a       10.551
_cell_length_b       21.23
_cell_length_c       8.633
_cell_angle_alpha    90
_cell_angle_beta     112
_cell_angle_gamma    90

_symmetry_space_group_name_H-M    "P 1"
_symmetry_int_tables_number       1

loop_
  _symmetry_equiv_pos_as_xyz
  'x, y, z'

loop_
  _atom_site_label
  _atom_site_occupancy
  _atom_site_fract_x
  _atom_site_fract_y
  _atom_site_fract_z
  _atom_site_thermal_displace_type
  _atom_site_B_iso_or_equiv
  _atom_site_type_symbol
  S1       1.0000 0.50000  0.09250  0.25000  Biso   1.000  S
  S2       1.0000 0.00000  0.59250  0.25000  Biso   1.000  S
  S3       1.0000 0.50000  0.90750  0.75000  Biso   1.000  S
  S4       1.0000 0.00000  0.40750  0.75000  Biso   1.000  S
  Cu1      1.0000 0.00000  0.11760  0.25000  Biso   1.000  Cu
  Cu2      1.0000 0.50000  0.61760  0.25000  Biso   1.000  Cu
  Cu3      1.0000 0.00000  0.88240  0.75000  Biso   1.000  Cu
  Cu4      1.0000 0.50000  0.38240  0.75000  Biso   1.000  Cu
  O1       1.0000 0.14370  0.04900  0.25320  Biso   1.000  O
  O2       1.0000 0.64370  0.54900  0.25320  Biso   1.000  O
  O3       1.0000 0.85630  0.04900  0.24680  Biso   1.000  O
  O4       1.0000 0.35630  0.54900  0.24680  Biso   1.000  O
  O5       1.0000 0.85630  0.95100  0.74680  Biso   1.000  O
  O6       1.0000 0.35630  0.45100  0.74680  Biso   1.000  O
  O7       1.0000 0.14370  0.95100  0.75320  Biso   1.000  O
  O8       1.0000 0.64370  0.45100  0.75320  Biso   1.000  O
  O9       1.0000 0.24870  0.13630  0.23040  Biso   1.000  O
  O10      1.0000 0.74870  0.63630  0.23040  Biso   1.000  O
  O11      1.0000 0.75130  0.13630  0.26960  Biso   1.000  O
  O12      1.0000 0.25130  0.63630  0.26960  Biso   1.000  O
  O13      1.0000 0.75130  0.86370  0.76960  Biso   1.000  O
  O14      1.0000 0.25130  0.36370  0.76960  Biso   1.000  O
  O15      1.0000 0.24870  0.86370  0.73040  Biso   1.000  O
  O16      1.0000 0.74870  0.36370  0.73040  Biso   1.000  O
  N1       1.0000 0.91970  0.13560  0.00040  Biso   1.000  N
  N2       1.0000 0.41970  0.63560  0.00040  Biso   1.000  N
  N3       1.0000 0.08030  0.13560  0.49960  Biso   1.000  N
  N4       1.0000 0.58030  0.63560  0.49960  Biso   1.000  N
  N5       1.0000 0.08030  0.86440  0.99960  Biso   1.000  N
  N6       1.0000 0.58030  0.36440  0.99960  Biso   1.000  N
  N7       1.0000 0.91970  0.86440  0.50040  Biso   1.000  N
  N8       1.0000 0.41970  0.36440  0.50040  Biso   1.000  N
  N9       1.0000 0.00000  0.21000  0.25000  Biso   1.000  N
  N10      1.0000 0.50000  0.71000  0.25000  Biso   1.000  N
  N11      1.0000 0.00000  0.79000  0.75000  Biso   1.000  N
  N12      1.0000 0.50000  0.29000  0.75000  Biso   1.000  N
  C1       1.0000 0.88270  0.09190  0.87850  Biso   1.000  C
  C2       1.0000 0.38270  0.59190  0.87850  Biso   1.000  C
  C3       1.0000 0.11730  0.09190  0.62150  Biso   1.000  C
  C4       1.0000 0.61730  0.59190  0.62150  Biso   1.000  C
  C5       1.0000 0.11730  0.90810  0.12150  Biso   1.000  C
  C6       1.0000 0.61730  0.40810  0.12150  Biso   1.000  C
  C7       1.0000 0.88270  0.90810  0.37850  Biso   1.000  C
  C8       1.0000 0.38270  0.40810  0.37850  Biso   1.000  C
  C9       1.0000 0.82650  0.10840  0.71030  Biso   1.000  C
  C10      1.0000 0.32650  0.60840  0.71030  Biso   1.000  C
  C11      1.0000 0.17350  0.10840  0.78970  Biso   1.000  C
  C12      1.0000 0.67350  0.60840  0.78970  Biso   1.000  C
  C13      1.0000 0.17350  0.89160  0.28970  Biso   1.000  C
  C14      1.0000 0.67350  0.39160  0.28970  Biso   1.000  C
  C15      1.0000 0.82650  0.89160  0.21030  Biso   1.000  C
  C16      1.0000 0.32650  0.39160  0.21030  Biso   1.000  C
  C17      1.0000 0.80870  0.17120  0.66750  Biso   1.000  C
  C18      1.0000 0.30870  0.67120  0.66750  Biso   1.000  C
  C19      1.0000 0.19130  0.17120  0.83250  Biso   1.000  C
  C20      1.0000 0.69130  0.67120  0.83250  Biso   1.000  C
  C21      1.0000 0.19130  0.82880  0.33250  Biso   1.000  C
  C22      1.0000 0.69130  0.32880  0.33250  Biso   1.000  C
  C23      1.0000 0.80870  0.82880  0.16750  Biso   1.000  C
  C24      1.0000 0.30870  0.32880  0.16750  Biso   1.000  C
  C25      1.0000 0.84760  0.21640  0.79160  Biso   1.000  C
  C26      1.0000 0.34760  0.71640  0.79160  Biso   1.000  C
  C27      1.0000 0.15240  0.21640  0.70840  Biso   1.000  C
  C28      1.0000 0.65240  0.71640  0.70840  Biso   1.000  C
  C29      1.0000 0.15240  0.78360  0.20840  Biso   1.000  C
  C30      1.0000 0.65240  0.28360  0.20840  Biso   1.000  C
  C31      1.0000 0.84760  0.78360  0.29160  Biso   1.000  C
  C32      1.0000 0.34760  0.28360  0.29160  Biso   1.000  C
  C33      1.0000 0.90370  0.19720  0.95780  Biso   1.000  C
  C34      1.0000 0.40370  0.69720  0.95780  Biso   1.000  C
  C35      1.0000 0.09630  0.19720  0.54220  Biso   1.000  C
  C36      1.0000 0.59630  0.69720  0.54220  Biso   1.000  C
  C37      1.0000 0.09630  0.80280  0.04220  Biso   1.000  C
  C38      1.0000 0.59630  0.30280  0.04220  Biso   1.000  C
  C39      1.0000 0.90370  0.80280  0.45780  Biso   1.000  C
  C40      1.0000 0.40370  0.30280  0.45780  Biso   1.000  C
  C41      1.0000 0.95140  0.24050  0.10310  Biso   1.000  C
  C42      1.0000 0.45140  0.74050  0.10310  Biso   1.000  C
  C43      1.0000 0.04860  0.24050  0.39690  Biso   1.000  C
  C44      1.0000 0.54860  0.74050  0.39690  Biso   1.000  C
  C45      1.0000 0.04860  0.75950  0.89690  Biso   1.000  C
  C46      1.0000 0.54860  0.25950  0.89690  Biso   1.000  C
  C47      1.0000 0.95140  0.75950  0.60310  Biso   1.000  C
  C48      1.0000 0.45140  0.25950  0.60310  Biso   1.000  C
  C49      1.0000 0.94990  0.30630  0.09820  Biso   1.000  C
  C50      1.0000 0.44990  0.80630  0.09820  Biso   1.000  C
  C51      1.0000 0.05010  0.30630  0.40180  Biso   1.000  C
  C52      1.0000 0.55010  0.80630  0.40180  Biso   1.000  C
  C53      1.0000 0.05010  0.69370  0.90180  Biso   1.000  C
  C54      1.0000 0.55010  0.19370  0.90180  Biso   1.000  C
  C55      1.0000 0.94990  0.69370  0.59820  Biso   1.000  C
  C56      1.0000 0.44990  0.19370  0.59820  Biso   1.000  C
  C57      1.0000 0.00000  0.33830  0.25000  Biso   1.000  C
  C58      1.0000 0.50000  0.83830  0.25000  Biso   1.000  C
  C59      1.0000 0.00000  0.66170  0.75000  Biso   1.000  C
  C60      1.0000 0.50000  0.16170  0.75000  Biso   1.000  C
  C61      1.0000 0.24380  0.07840  0.24320  Biso   1.000  C
  C62      1.0000 0.74380  0.57840  0.24320  Biso   1.000  C
  C63      1.0000 0.75620  0.07840  0.25680  Biso   1.000  C
  C64      1.0000 0.25620  0.57840  0.25680  Biso   1.000  C
  C65      1.0000 0.75620  0.92160  0.75680  Biso   1.000  C
  C66      1.0000 0.25620  0.42160  0.75680  Biso   1.000  C
  C67      1.0000 0.24380  0.92160  0.74320  Biso   1.000  C
  C68      1.0000 0.74380  0.42160  0.74320  Biso   1.000  C
  C69      1.0000 0.36630  0.03900  0.24600  Biso   1.000  C
  C70      1.0000 0.86630  0.53900  0.24600  Biso   1.000  C
  C71      1.0000 0.63370  0.03900  0.25400  Biso   1.000  C
  C72      1.0000 0.13370  0.53900  0.25400  Biso   1.000  C
  C73      1.0000 0.63370  0.96100  0.75400  Biso   1.000  C
  C74      1.0000 0.13370  0.46100  0.75400  Biso   1.000  C
  C75      1.0000 0.36630  0.96100  0.74600  Biso   1.000  C
  C76      1.0000 0.86630  0.46100  0.74600  Biso   1.000  C
  H1       1.0000 0.89600  0.04700  0.91000  Biso   1.000  H
  H2       1.0000 0.39600  0.54700  0.91000  Biso   1.000  H
  H3       1.0000 0.10400  0.04700  0.59000  Biso   1.000  H
  H4       1.0000 0.60400  0.54700  0.59000  Biso   1.000  H
  H5       1.0000 0.10400  0.95300  0.09000  Biso   1.000  H
  H6       1.0000 0.60400  0.45300  0.09000  Biso   1.000  H
  H7       1.0000 0.89600  0.95300  0.41000  Biso   1.000  H
  H8       1.0000 0.39600  0.45300  0.41000  Biso   1.000  H
  H9       1.0000 0.79900  0.07500  0.62300  Biso   1.000  H
  H10      1.0000 0.29900  0.57500  0.62300  Biso   1.000  H
  H11      1.0000 0.20100  0.07500  0.87700  Biso   1.000  H
  H12      1.0000 0.70100  0.57500  0.87700  Biso   1.000  H
  H13      1.0000 0.20100  0.92500  0.37700  Biso   1.000  H
  H14      1.0000 0.70100  0.42500  0.37700  Biso   1.000  H
  H15      1.0000 0.79900  0.92500  0.12300  Biso   1.000  H
  H16      1.0000 0.29900  0.42500  0.12300  Biso   1.000  H
  H17      1.0000 0.76800  0.18400  0.54900  Biso   1.000  H
  H18      1.0000 0.26800  0.68400  0.54900  Biso   1.000  H
  H19      1.0000 0.23200  0.18400  0.95100  Biso   1.000  H
  H20      1.0000 0.73200  0.68400  0.95100  Biso   1.000  H
  H21      1.0000 0.23200  0.81600  0.45100  Biso   1.000  H
  H22      1.0000 0.73200  0.31600  0.45100  Biso   1.000  H
  H23      1.0000 0.76800  0.81600  0.04900  Biso   1.000  H
  H24      1.0000 0.26800  0.31600  0.04900  Biso   1.000  H
  H25      1.0000 0.83600  0.26200  0.76300  Biso   1.000  H
  H26      1.0000 0.33600  0.76200  0.76300  Biso   1.000  H
  H27      1.0000 0.16400  0.26200  0.73700  Biso   1.000  H
  H28      1.0000 0.66400  0.76200  0.73700  Biso   1.000  H
  H29      1.0000 0.16400  0.73800  0.23700  Biso   1.000  H
  H30      1.0000 0.66400  0.23800  0.23700  Biso   1.000  H
  H31      1.0000 0.83600  0.73800  0.26300  Biso   1.000  H
  H32      1.0000 0.33600  0.23800  0.26300  Biso   1.000  H
  H33      1.0000 0.91400  0.32900  0.99100  Biso   1.000  H
  H34      1.0000 0.41400  0.82900  0.99100  Biso   1.000  H
  H35      1.0000 0.08600  0.32900  0.50900  Biso   1.000  H
  H36      1.0000 0.58600  0.82900  0.50900  Biso   1.000  H
  H37      1.0000 0.08600  0.67100  0.00900  Biso   1.000  H
  H38      1.0000 0.58600  0.17100  0.00900  Biso   1.000  H
  H39      1.0000 0.91400  0.67100  0.49100  Biso   1.000  H
  H40      1.0000 0.41400  0.17100  0.49100  Biso   1.000  H
  H41      1.0000 0.00000  0.38500  0.25000  Biso   1.000  H
  H42      1.0000 0.50000  0.88500  0.25000  Biso   1.000  H
  H43      1.0000 0.00000  0.61500  0.75000  Biso   1.000  H
  H44      1.0000 0.50000  0.11500  0.75000  Biso   1.000  H
  H45      1.0000 0.39900  0.01100  0.34800  Biso   1.000  H
  H46      1.0000 0.89900  0.51100  0.34800  Biso   1.000  H
  H47      1.0000 0.60100  0.01100  0.15200  Biso   1.000  H
  H48      1.0000 0.10100  0.51100  0.15200  Biso   1.000  H
  H49      1.0000 0.60100  0.98900  0.65200  Biso   1.000  H
  H50      1.0000 0.10100  0.48900  0.65200  Biso   1.000  H
  H51      1.0000 0.39900  0.98900  0.84800  Biso   1.000  H
  H52      1.0000 0.89900  0.48900  0.84800  Biso   1.000  H
  H53      1.0000 0.33900  0.01200  0.14400  Biso   1.000  H
  H54      1.0000 0.83900  0.51200  0.14400  Biso   1.000  H
  H55      1.0000 0.66100  0.01200  0.35600  Biso   1.000  H
  H56      1.0000 0.16100  0.51200  0.35600  Biso   1.000  H
  H57      1.0000 0.66100  0.98800  0.85600  Biso   1.000  H
  H58      1.0000 0.16100  0.48800  0.85600  Biso   1.000  H
  H59      1.0000 0.33900  0.98800  0.64400  Biso   1.000  H
  H60      1.0000 0.83900  0.48800  0.64400  Biso   1.000  H
