data_image0
_cell_length_a       9.612
_cell_length_b       10.241
_cell_length_c       10.911
_cell_angle_alpha    70.565
_cell_angle_beta     65.966
_cell_angle_gamma    62.992

_symmetry_space_group_name_H-M    "P 1"
_symmetry_int_tables_number       1

loop_
  _symmetry_equiv_pos_as_xyz
  'x, y, z'

loop_
  _atom_site_label
  _atom_site_occupancy
  _atom_site_fract_x
  _atom_site_fract_y
  _atom_site_fract_z
  _atom_site_thermal_displace_type
  _atom_site_B_iso_or_equiv
  _atom_site_type_symbol
  Cu1      1.0000 0.37150  0.48870  0.00255  Biso   1.000  Cu
  Cu2      1.0000 0.62850  0.51130  0.99745  Biso   1.000  Cu
  O1       1.0000 0.26190  0.68020  0.06350  Biso   1.000  O
  O2       1.0000 0.73810  0.31980  0.93650  Biso   1.000  O
  O3       1.0000 0.48670  0.70190  0.06000  Biso   1.000  O
  O4       1.0000 0.51330  0.29810  0.94000  Biso   1.000  O
  O5       1.0000 0.36160  0.38290  0.19150  Biso   1.000  O
  O6       1.0000 0.63840  0.61710  0.80850  Biso   1.000  O
  O7       1.0000 0.58110  0.40870  0.18940  Biso   1.000  O
  O8       1.0000 0.41890  0.59130  0.81060  Biso   1.000  O
  N1       1.0000 0.14560  0.49610  0.00330  Biso   1.000  N
  N2       1.0000 0.85440  0.50390  0.99670  Biso   1.000  N
  C1       1.0000 0.33470  0.74590  0.07630  Biso   1.000  C
  C2       1.0000 0.66530  0.25410  0.92370  Biso   1.000  C
  C3       1.0000 0.23020  0.89720  0.11940  Biso   1.000  C
  C4       1.0000 0.76980  0.10280  0.88060  Biso   1.000  C
  C5       1.0000 0.06140  0.95420  0.13920  Biso   1.000  C
  C6       1.0000 0.93860  0.04580  0.86080  Biso   1.000  C
  C7       1.0000 0.96880  0.09540  0.17690  Biso   1.000  C
  C8       1.0000 0.03120  0.90460  0.82310  Biso   1.000  C
  C9       1.0000 0.04210  0.17150  0.19100  Biso   1.000  C
  C10      1.0000 0.95790  0.82850  0.80900  Biso   1.000  C
  C11      1.0000 0.20390  0.11910  0.17120  Biso   1.000  C
  C12      1.0000 0.79610  0.88090  0.82880  Biso   1.000  C
  C13      1.0000 0.29920  0.98100  0.13410  Biso   1.000  C
  C14      1.0000 0.70080  0.01900  0.86590  Biso   1.000  C
  C15      1.0000 0.46280  0.36550  0.24250  Biso   1.000  C
  C16      1.0000 0.53720  0.63450  0.75750  Biso   1.000  C
  C17      1.0000 0.44190  0.28650  0.39030  Biso   1.000  C
  C18      1.0000 0.55810  0.71350  0.60970  Biso   1.000  C
  C19      1.0000 0.32820  0.21820  0.45520  Biso   1.000  C
  C20      1.0000 0.67180  0.78180  0.54480  Biso   1.000  C
  C21      1.0000 0.30810  0.14820  0.58990  Biso   1.000  C
  C22      1.0000 0.69190  0.85180  0.41010  Biso   1.000  C
  C23      1.0000 0.40240  0.14280  0.65780  Biso   1.000  C
  C24      1.0000 0.59760  0.85720  0.34220  Biso   1.000  C
  C25      1.0000 0.51770  0.21050  0.59500  Biso   1.000  C
  C26      1.0000 0.48230  0.78950  0.40500  Biso   1.000  C
  C27      1.0000 0.53500  0.28040  0.46190  Biso   1.000  C
  C28      1.0000 0.46500  0.71960  0.53810  Biso   1.000  C
  C29      1.0000 0.00310  0.55590  0.09190  Biso   1.000  C
  C30      1.0000 0.99690  0.44410  0.90810  Biso   1.000  C
  C31      1.0000 0.13850  0.43550  0.91430  Biso   1.000  C
  C32      1.0000 0.86150  0.56450  0.08570  Biso   1.000  C
  H1       1.0000 0.01250  0.89900  0.12700  Biso   1.000  H
  H2       1.0000 0.98750  0.10100  0.87300  Biso   1.000  H
  H3       1.0000 0.85380  0.13450  0.19270  Biso   1.000  H
  H4       1.0000 0.14620  0.86550  0.80730  Biso   1.000  H
  H5       1.0000 0.97650  0.26680  0.21560  Biso   1.000  H
  H6       1.0000 0.02350  0.73320  0.78440  Biso   1.000  H
  H7       1.0000 0.25290  0.17500  0.18230  Biso   1.000  H
  H8       1.0000 0.74710  0.82500  0.81770  Biso   1.000  H
  H9       1.0000 0.41410  0.94210  0.11880  Biso   1.000  H
  H10      1.0000 0.58590  0.05790  0.88120  Biso   1.000  H
  H11      1.0000 0.26390  0.22030  0.40730  Biso   1.000  H
  H12      1.0000 0.73610  0.77970  0.59270  Biso   1.000  H
  H13      1.0000 0.22800  0.10370  0.63510  Biso   1.000  H
  H14      1.0000 0.77200  0.89630  0.36490  Biso   1.000  H
  H15      1.0000 0.39020  0.09190  0.74960  Biso   1.000  H
  H16      1.0000 0.60980  0.90810  0.25040  Biso   1.000  H
  H17      1.0000 0.58220  0.20800  0.64300  Biso   1.000  H
  H18      1.0000 0.41780  0.79200  0.35700  Biso   1.000  H
  H19      1.0000 0.61360  0.32640  0.41720  Biso   1.000  H
  H20      1.0000 0.38640  0.67360  0.58280  Biso   1.000  H
  H21      1.0000 0.00160  0.59500  0.15980  Biso   1.000  H
  H22      1.0000 0.99840  0.40500  0.84020  Biso   1.000  H
  H23      1.0000 0.23920  0.38520  0.85270  Biso   1.000  H
  H24      1.0000 0.76080  0.61480  0.14730  Biso   1.000  H
  C33      1.0000 0.13100  0.57900  0.48900  Biso   1.000  C
  C34      1.0000 0.86900  0.42100  0.51100  Biso   1.000  C
  C35      1.0000 0.00000  0.00000  0.50000  Biso   1.000  C
  O9       1.0000 0.15890  0.55750  0.58880  Biso   1.000  O
  O10      1.0000 0.84110  0.44250  0.41120  Biso   1.000  O
  O11      1.0000 0.09420  0.60100  0.39520  Biso   1.000  O
  O12      1.0000 0.90580  0.39900  0.60480  Biso   1.000  O
  O13      1.0000 0.01750  0.89090  0.48080  Biso   1.000  O
  O14      1.0000 0.98250  0.10910  0.51920  Biso   1.000  O
