data_image0
_cell_length_a       9.6214
_cell_length_b       10.2423
_cell_length_c       10.9393
_cell_angle_alpha    70.584
_cell_angle_beta     66.008
_cell_angle_gamma    63.084

_symmetry_space_group_name_H-M    "P 1"
_symmetry_int_tables_number       1

loop_
  _symmetry_equiv_pos_as_xyz
  'x, y, z'

loop_
  _atom_site_label
  _atom_site_occupancy
  _atom_site_fract_x
  _atom_site_fract_y
  _atom_site_fract_z
  _atom_site_thermal_displace_type
  _atom_site_B_iso_or_equiv
  _atom_site_type_symbol
  C1       1.0000 0.33380  0.74880  0.57760  Biso   1.000  C
  C2       1.0000 0.66620  0.25120  0.42240  Biso   1.000  C
  C3       1.0000 0.23130  0.89800  0.61700  Biso   1.000  C
  C4       1.0000 0.76870  0.10200  0.38300  Biso   1.000  C
  C5       1.0000 0.06230  0.95550  0.63970  Biso   1.000  C
  C6       1.0000 0.93770  0.04450  0.36030  Biso   1.000  C
  H1       1.0000 0.01260  0.89950  0.62960  Biso   1.000  H
  H2       1.0000 0.98740  0.10050  0.37040  Biso   1.000  H
  C7       1.0000 0.96700  0.09420  0.67680  Biso   1.000  C
  C8       1.0000 0.03300  0.90580  0.32320  Biso   1.000  C
  H3       1.0000 0.85240  0.13370  0.69100  Biso   1.000  H
  H4       1.0000 0.14760  0.86630  0.30900  Biso   1.000  H
  C9       1.0000 0.03860  0.17470  0.69330  Biso   1.000  C
  C10      1.0000 0.96140  0.82530  0.30670  Biso   1.000  C
  H5       1.0000 0.97250  0.26850  0.72100  Biso   1.000  H
  H6       1.0000 0.02750  0.73150  0.27900  Biso   1.000  H
  C11      1.0000 0.20700  0.11980  0.66970  Biso   1.000  C
  C12      1.0000 0.79300  0.88020  0.33030  Biso   1.000  C
  H7       1.0000 0.25570  0.17640  0.68010  Biso   1.000  H
  H8       1.0000 0.74430  0.82360  0.31990  Biso   1.000  H
  C13      1.0000 0.30340  0.98190  0.63100  Biso   1.000  C
  C14      1.0000 0.69660  0.01810  0.36900  Biso   1.000  C
  H9       1.0000 0.41850  0.94450  0.61390  Biso   1.000  H
  H10      1.0000 0.58150  0.05550  0.38610  Biso   1.000  H
  C15      1.0000 0.46350  0.36390  0.74540  Biso   1.000  C
  C16      1.0000 0.53650  0.63610  0.25460  Biso   1.000  C
  C17      1.0000 0.44300  0.28550  0.88960  Biso   1.000  C
  C18      1.0000 0.55700  0.71450  0.11040  Biso   1.000  C
  C19      1.0000 0.32930  0.21730  0.95450  Biso   1.000  C
  C20      1.0000 0.67070  0.78270  0.04550  Biso   1.000  C
  H11      1.0000 0.26480  0.21960  0.90670  Biso   1.000  H
  H12      1.0000 0.73520  0.78040  0.09330  Biso   1.000  H
  C21      1.0000 0.30940  0.14520  0.08990  Biso   1.000  C
  C22      1.0000 0.69060  0.85480  0.91010  Biso   1.000  C
  H13      1.0000 0.23210  0.09780  0.13430  Biso   1.000  H
  H14      1.0000 0.76790  0.90220  0.86570  Biso   1.000  H
  C23      1.0000 0.40340  0.14310  0.15950  Biso   1.000  C
  C24      1.0000 0.59660  0.85690  0.84050  Biso   1.000  C
  H15      1.0000 0.38980  0.09450  0.25180  Biso   1.000  H
  H16      1.0000 0.61020  0.90550  0.74820  Biso   1.000  H
  C25      1.0000 0.51500  0.21060  0.09570  Biso   1.000  C
  C26      1.0000 0.48500  0.78940  0.90430  Biso   1.000  C
  H17      1.0000 0.57840  0.20870  0.14440  Biso   1.000  H
  H18      1.0000 0.42160  0.79130  0.85560  Biso   1.000  H
  C27      1.0000 0.53770  0.28210  0.96040  Biso   1.000  C
  C28      1.0000 0.46230  0.71790  0.03960  Biso   1.000  C
  H19      1.0000 0.61640  0.32800  0.91660  Biso   1.000  H
  H20      1.0000 0.38360  0.67200  0.08340  Biso   1.000  H
  C29      1.0000 0.14240  0.43310  0.41290  Biso   1.000  C
  C30      1.0000 0.85760  0.56690  0.58710  Biso   1.000  C
  H21      1.0000 0.24210  0.38560  0.34920  Biso   1.000  H
  H22      1.0000 0.75790  0.61440  0.65080  Biso   1.000  H
  C31      1.0000 0.00390  0.55760  0.59140  Biso   1.000  C
  C32      1.0000 0.99610  0.44240  0.40860  Biso   1.000  C
  H23      1.0000 0.00310  0.60010  0.65690  Biso   1.000  H
  H24      1.0000 0.99690  0.39990  0.34310  Biso   1.000  H
  C33      1.0000 0.12870  0.57930  0.99110  Biso   1.000  C
  C34      1.0000 0.87130  0.42070  0.00890  Biso   1.000  C
  C35      1.0000 0.00000  0.00000  0.00000  Biso   1.000  C
  Cu1      1.0000 0.37154  0.48737  0.50267  Biso   1.000  Cu
  Cu2      1.0000 0.62846  0.51263  0.49733  Biso   1.000  Cu
  N1       1.0000 0.14580  0.48950  0.50450  Biso   1.000  N
  N2       1.0000 0.85420  0.51050  0.49550  Biso   1.000  N
  O1       1.0000 0.26200  0.68050  0.56260  Biso   1.000  O
  O2       1.0000 0.73800  0.31950  0.43740  Biso   1.000  O
  O3       1.0000 0.48510  0.70210  0.56040  Biso   1.000  O
  O4       1.0000 0.51490  0.29790  0.43960  Biso   1.000  O
  O5       1.0000 0.36240  0.38050  0.69040  Biso   1.000  O
  O6       1.0000 0.63760  0.61950  0.30960  Biso   1.000  O
  O7       1.0000 0.58150  0.40820  0.68750  Biso   1.000  O
  O8       1.0000 0.41850  0.59180  0.31250  Biso   1.000  O
  O9       1.0000 0.09590  0.60330  0.89350  Biso   1.000  O
  O10      1.0000 0.90410  0.39670  0.10650  Biso   1.000  O
  O11      1.0000 0.16100  0.55520  0.08930  Biso   1.000  O
  O12      1.0000 0.83900  0.44480  0.91070  Biso   1.000  O
  O13      1.0000 0.02020  0.89060  0.97840  Biso   1.000  O
  O14      1.0000 0.97980  0.10940  0.02160  Biso   1.000  O
