data_image0
_cell_length_a       10.7754
_cell_length_b       10.5505
_cell_length_c       13.7523
_cell_angle_alpha    90
_cell_angle_beta     127.607
_cell_angle_gamma    90

_symmetry_space_group_name_H-M    "P 1"
_symmetry_int_tables_number       1

loop_
  _symmetry_equiv_pos_as_xyz
  'x, y, z'

loop_
  _atom_site_label
  _atom_site_occupancy
  _atom_site_fract_x
  _atom_site_fract_y
  _atom_site_fract_z
  _atom_site_thermal_displace_type
  _atom_site_B_iso_or_equiv
  _atom_site_type_symbol
  Cu1      1.0000 0.22820  0.54863  0.77706  Biso   1.000  Cu
  Cu2      1.0000 0.22820  0.45137  0.27706  Biso   1.000  Cu
  O1       1.0000 0.39300  0.40350  0.68410  Biso   1.000  O
  O2       1.0000 0.39300  0.59650  0.18410  Biso   1.000  O
  O3       1.0000 0.54050  0.11420  0.99040  Biso   1.000  O
  O4       1.0000 0.54050  0.88580  0.49040  Biso   1.000  O
  O5       1.0000 0.09930  0.39310  0.40840  Biso   1.000  O
  O6       1.0000 0.09930  0.60690  0.90840  Biso   1.000  O
  O7       1.0000 0.89260  0.98330  0.60550  Biso   1.000  O
  O8       1.0000 0.89260  0.01670  0.10550  Biso   1.000  O
  O9       1.0000 0.19800  0.38180  0.69900  Biso   1.000  O
  O10      1.0000 0.19800  0.61820  0.19900  Biso   1.000  O
  O11      1.0000 0.24500  0.29930  0.36500  Biso   1.000  O
  O12      1.0000 0.24500  0.70070  0.86500  Biso   1.000  O
  O13      1.0000 0.34590  0.64930  0.69710  Biso   1.000  O
  O14      1.0000 0.34590  0.35070  0.19710  Biso   1.000  O
  N1       1.0000 0.64070  0.11470  0.18730  Biso   1.000  N
  N2       1.0000 0.64070  0.88530  0.68730  Biso   1.000  N
  N3       1.0000 0.79820  0.98850  0.40640  Biso   1.000  N
  N4       1.0000 0.79820  0.01150  0.90640  Biso   1.000  N
  N5       1.0000 0.42710  0.48590  0.93920  Biso   1.000  N
  N6       1.0000 0.42710  0.51410  0.43920  Biso   1.000  N
  N7       1.0000 0.01730  0.60570  0.62490  Biso   1.000  N
  N8       1.0000 0.01730  0.39430  0.12490  Biso   1.000  N
  C1       1.0000 0.78440  0.13150  0.40030  Biso   1.000  C
  C2       1.0000 0.78440  0.86850  0.90030  Biso   1.000  C
  H1       1.0000 0.78200  0.16230  0.46560  Biso   1.000  H
  H2       1.0000 0.78200  0.83770  0.96560  Biso   1.000  H
  H3       1.0000 0.87430  0.16870  0.41090  Biso   1.000  H
  H4       1.0000 0.87430  0.83130  0.91090  Biso   1.000  H
  C3       1.0000 0.69740  0.39600  0.15620  Biso   1.000  C
  C4       1.0000 0.69740  0.60400  0.65620  Biso   1.000  C
  H5       1.0000 0.78850  0.36610  0.22890  Biso   1.000  H
  H6       1.0000 0.78850  0.63390  0.72890  Biso   1.000  H
  C5       1.0000 0.67940  0.52270  0.12750  Biso   1.000  C
  C6       1.0000 0.67940  0.47730  0.62750  Biso   1.000  C
  H7       1.0000 0.75910  0.57930  0.18100  Biso   1.000  H
  H8       1.0000 0.75910  0.42070  0.68100  Biso   1.000  H
  C7       1.0000 0.54160  0.56700  0.01800  Biso   1.000  C
  C8       1.0000 0.54160  0.43300  0.51800  Biso   1.000  C
  H9       1.0000 0.52960  0.65310  0.99990  Biso   1.000  H
  H10      1.0000 0.52960  0.34690  0.49990  Biso   1.000  H
  C9       1.0000 0.65040  0.16580  0.28930  Biso   1.000  C
  C10      1.0000 0.65040  0.83420  0.78930  Biso   1.000  C
  H11      1.0000 0.64520  0.25760  0.28340  Biso   1.000  H
  H12      1.0000 0.64520  0.74240  0.78340  Biso   1.000  H
  H13      1.0000 0.56100  0.13660  0.28380  Biso   1.000  H
  H14      1.0000 0.56100  0.86340  0.78380  Biso   1.000  H
  C11      1.0000 0.58420  0.17070  0.08040  Biso   1.000  C
  C12      1.0000 0.58420  0.82930  0.58040  Biso   1.000  C
  C13      1.0000 0.64710  0.96170  0.20300  Biso   1.000  C
  C14      1.0000 0.64710  0.03830  0.70300  Biso   1.000  C
  H15      1.0000 0.57960  0.93350  0.22320  Biso   1.000  H
  H16      1.0000 0.57960  0.06650  0.72320  Biso   1.000  H
  H17      1.0000 0.61720  0.91890  0.12910  Biso   1.000  H
  H18      1.0000 0.61720  0.08110  0.62910  Biso   1.000  H
  C15      1.0000 0.25560  0.98590  0.64060  Biso   1.000  C
  C16      1.0000 0.25560  0.01410  0.14060  Biso   1.000  C
  H19      1.0000 0.26860  0.91610  0.68730  Biso   1.000  H
  H20      1.0000 0.26860  0.08390  0.18730  Biso   1.000  H
  C17      1.0000 0.57750  0.31420  0.07500  Biso   1.000  C
  C18      1.0000 0.57750  0.68580  0.57500  Biso   1.000  C
  C19      1.0000 0.20090  0.07110  0.45760  Biso   1.000  C
  C20      1.0000 0.20090  0.92890  0.95760  Biso   1.000  C
  H21      1.0000 0.17850  0.05820  0.38150  Biso   1.000  H
  H22      1.0000 0.17850  0.94180  0.88150  Biso   1.000  H
  C21      1.0000 0.73920  0.70690  0.42180  Biso   1.000  C
  C22      1.0000 0.73920  0.29310  0.92180  Biso   1.000  C
  H23      1.0000 0.64550  0.74060  0.35420  Biso   1.000  H
  H24      1.0000 0.64550  0.25940  0.85420  Biso   1.000  H
  C23      1.0000 0.84830  0.92780  0.51040  Biso   1.000  C
  C24      1.0000 0.84830  0.07220  0.01040  Biso   1.000  C
  C25      1.0000 0.44480  0.36470  0.96780  Biso   1.000  C
  C26      1.0000 0.44480  0.63530  0.46780  Biso   1.000  C
  H25      1.0000 0.36370  0.30970  0.91300  Biso   1.000  H
  H26      1.0000 0.36370  0.69030  0.41300  Biso   1.000  H
  C27      1.0000 0.22100  0.96870  0.52800  Biso   1.000  C
  C28      1.0000 0.22100  0.03130  0.02800  Biso   1.000  C
  H27      1.0000 0.21090  0.88700  0.49850  Biso   1.000  H
  H28      1.0000 0.21090  0.11300  0.99850  Biso   1.000  H
  C29      1.0000 0.27120  0.10720  0.68500  Biso   1.000  C
  C30      1.0000 0.27120  0.89280  0.18500  Biso   1.000  C
  H29      1.0000 0.29610  0.11880  0.76210  Biso   1.000  H
  H30      1.0000 0.29610  0.88120  0.26210  Biso   1.000  H
  C31      1.0000 0.21370  0.19350  0.49960  Biso   1.000  C
  C32      1.0000 0.21370  0.80650  0.99960  Biso   1.000  C
  C33      1.0000 0.24980  0.21140  0.61500  Biso   1.000  C
  C34      1.0000 0.24980  0.78860  0.11500  Biso   1.000  C
  C35      1.0000 0.79630  0.94230  0.29510  Biso   1.000  C
  C36      1.0000 0.79630  0.05770  0.79510  Biso   1.000  C
  H31      1.0000 0.86490  0.99310  0.28730  Biso   1.000  H
  H32      1.0000 0.86490  0.00690  0.78730  Biso   1.000  H
  H33      1.0000 0.82460  0.85360  0.30270  Biso   1.000  H
  H34      1.0000 0.82460  0.14640  0.80270  Biso   1.000  H
  C37      1.0000 0.90360  0.53160  0.53540  Biso   1.000  C
  C38      1.0000 0.90360  0.46840  0.03540  Biso   1.000  C
  H35      1.0000 0.92080  0.44460  0.54190  Biso   1.000  H
  H36      1.0000 0.92080  0.55540  0.04190  Biso   1.000  H
  C39      1.0000 0.28340  0.34310  0.66890  Biso   1.000  C
  C40      1.0000 0.28340  0.65690  0.16890  Biso   1.000  C
  C41      1.0000 0.76210  0.57690  0.43390  Biso   1.000  C
  C42      1.0000 0.76210  0.42310  0.93390  Biso   1.000  C
  H37      1.0000 0.68440  0.52180  0.37530  Biso   1.000  H
  H38      1.0000 0.68440  0.47820  0.87530  Biso   1.000  H
  C43      1.0000 0.18210  0.30620  0.41940  Biso   1.000  C
  C44      1.0000 0.18210  0.69380  0.91940  Biso   1.000  C
  C45      1.0000 0.99240  0.73320  0.61110  Biso   1.000  C
  C46      1.0000 0.99240  0.26680  0.11110  Biso   1.000  C
  C47      1.0000 0.85620  0.78580  0.51060  Biso   1.000  C
  C48      1.0000 0.85620  0.21420  0.01060  Biso   1.000  C
  O15      1.0000 0.98860  0.22870  0.71170  Biso   1.000  O
  O16      1.0000 0.98860  0.77130  0.21170  Biso   1.000  O
  O17      1.0000 0.10180  0.65570  0.43730  Biso   1.000  O
  O18      1.0000 0.10180  0.34430  0.93730  Biso   1.000  O
  H39      1.0000 0.09750  0.57560  0.42950  Biso   1.000  H
  H40      1.0000 0.09750  0.42440  0.92950  Biso   1.000  H
  H41      1.0000 0.97820  0.15530  0.68320  Biso   1.000  H
  H42      1.0000 0.97820  0.84470  0.18320  Biso   1.000  H
  H43      1.0000 0.06820  0.68030  0.36620  Biso   1.000  H
  H44      1.0000 0.06820  0.31970  0.86620  Biso   1.000  H
  H45      1.0000 0.05780  0.25190  0.70250  Biso   1.000  H
  H46      1.0000 0.05780  0.74810  0.20250  Biso   1.000  H
