data_image0
_cell_length_a       14.84
_cell_length_b       6.985
_cell_length_c       20.744
_cell_angle_alpha    90
_cell_angle_beta     133.244
_cell_angle_gamma    90

_symmetry_space_group_name_H-M    "P 1"
_symmetry_int_tables_number       1

loop_
  _symmetry_equiv_pos_as_xyz
  'x, y, z'

loop_
  _atom_site_label
  _atom_site_occupancy
  _atom_site_fract_x
  _atom_site_fract_y
  _atom_site_fract_z
  _atom_site_thermal_displace_type
  _atom_site_B_iso_or_equiv
  _atom_site_type_symbol
  Cu1      1.0000 0.00161  0.78983  0.25127  Biso   1.000  Cu
  Cu2      1.0000 0.99839  0.28983  0.24873  Biso   1.000  Cu
  Cu3      1.0000 0.99839  0.21017  0.74873  Biso   1.000  Cu
  Cu4      1.0000 0.00161  0.71017  0.75127  Biso   1.000  Cu
  Cu5      1.0000 0.50000  0.50000  0.00000  Biso   1.000  Cu
  Cu6      1.0000 0.50000  0.00000  0.50000  Biso   1.000  Cu
  O1       1.0000 0.70100  0.51320  0.20060  Biso   1.000  O
  O2       1.0000 0.29900  0.01320  0.29940  Biso   1.000  O
  O3       1.0000 0.29900  0.48680  0.79940  Biso   1.000  O
  O4       1.0000 0.70100  0.98680  0.70060  Biso   1.000  O
  O5       1.0000 0.54950  0.32400  0.09140  Biso   1.000  O
  O6       1.0000 0.45050  0.82400  0.40860  Biso   1.000  O
  O7       1.0000 0.45050  0.67600  0.90860  Biso   1.000  O
  O8       1.0000 0.54950  0.17600  0.59140  Biso   1.000  O
  O9       1.0000 0.88700  0.88460  0.26060  Biso   1.000  O
  O10      1.0000 0.11300  0.38460  0.23940  Biso   1.000  O
  O11      1.0000 0.11300  0.11540  0.73940  Biso   1.000  O
  O12      1.0000 0.88700  0.61540  0.76060  Biso   1.000  O
  O13      1.0000 0.85110  0.19320  0.22190  Biso   1.000  O
  O14      1.0000 0.14890  0.69320  0.27810  Biso   1.000  O
  O15      1.0000 0.14890  0.80680  0.77810  Biso   1.000  O
  O16      1.0000 0.85110  0.30680  0.72190  Biso   1.000  O
  O17      1.0000 0.05460  0.04050  0.25500  Biso   1.000  O
  O18      1.0000 0.94540  0.54050  0.24500  Biso   1.000  O
  O19      1.0000 0.94540  0.95950  0.74500  Biso   1.000  O
  O20      1.0000 0.05460  0.45950  0.75500  Biso   1.000  O
  O21      1.0000 0.12880  0.20710  0.92390  Biso   1.000  O
  O22      1.0000 0.87120  0.70710  0.57610  Biso   1.000  O
  O23      1.0000 0.87120  0.79290  0.07610  Biso   1.000  O
  O24      1.0000 0.12880  0.29290  0.42390  Biso   1.000  O
  N1       1.0000 0.39740  0.65870  0.00980  Biso   1.000  N
  N2       1.0000 0.60260  0.15870  0.49020  Biso   1.000  N
  N3       1.0000 0.60260  0.34130  0.99020  Biso   1.000  N
  N4       1.0000 0.39740  0.84130  0.50980  Biso   1.000  N
  N5       1.0000 0.07500  0.03260  0.98420  Biso   1.000  N
  N6       1.0000 0.92500  0.53260  0.51580  Biso   1.000  N
  N7       1.0000 0.92500  0.96740  0.01580  Biso   1.000  N
  N8       1.0000 0.07500  0.46740  0.48420  Biso   1.000  N
  C1       1.0000 0.83430  0.04270  0.24450  Biso   1.000  C
  C2       1.0000 0.16570  0.54270  0.25550  Biso   1.000  C
  C3       1.0000 0.16570  0.95730  0.75550  Biso   1.000  C
  C4       1.0000 0.83430  0.45730  0.74450  Biso   1.000  C
  C5       1.0000 0.75010  0.05050  0.26080  Biso   1.000  C
  C6       1.0000 0.24990  0.55050  0.23920  Biso   1.000  C
  C7       1.0000 0.24990  0.94950  0.73920  Biso   1.000  C
  C8       1.0000 0.75010  0.44950  0.76080  Biso   1.000  C
  C9       1.0000 0.75560  0.90550  0.30920  Biso   1.000  C
  C10      1.0000 0.24440  0.40550  0.19080  Biso   1.000  C
  C11      1.0000 0.24440  0.09450  0.69080  Biso   1.000  C
  C12      1.0000 0.75560  0.59450  0.80920  Biso   1.000  C
  H1       1.0000 0.80330  0.79740  0.32420  Biso   1.000  H
  H2       1.0000 0.19670  0.29740  0.17580  Biso   1.000  H
  H3       1.0000 0.19670  0.20260  0.67580  Biso   1.000  H
  H4       1.0000 0.80330  0.70260  0.82420  Biso   1.000  H
  C13      1.0000 0.69120  0.91860  0.33560  Biso   1.000  C
  C14      1.0000 0.30880  0.41860  0.16440  Biso   1.000  C
  C15      1.0000 0.30880  0.08140  0.66440  Biso   1.000  C
  C16      1.0000 0.69120  0.58140  0.83560  Biso   1.000  C
  H5       1.0000 0.69680  0.82060  0.36850  Biso   1.000  H
  H6       1.0000 0.30320  0.32060  0.13150  Biso   1.000  H
  H7       1.0000 0.30320  0.17940  0.63150  Biso   1.000  H
  H8       1.0000 0.69680  0.67940  0.86850  Biso   1.000  H
  C17      1.0000 0.62100  0.07310  0.31330  Biso   1.000  C
  C18      1.0000 0.37900  0.57310  0.18670  Biso   1.000  C
  C19      1.0000 0.37900  0.92690  0.68670  Biso   1.000  C
  C20      1.0000 0.62100  0.42690  0.81330  Biso   1.000  C
  H9       1.0000 0.58110  0.08500  0.33340  Biso   1.000  H
  H10      1.0000 0.41890  0.58500  0.16660  Biso   1.000  H
  H11      1.0000 0.41890  0.91500  0.66660  Biso   1.000  H
  H12      1.0000 0.58110  0.41500  0.83340  Biso   1.000  H
  C21      1.0000 0.60810  0.21230  0.26140  Biso   1.000  C
  C22      1.0000 0.39190  0.71230  0.23860  Biso   1.000  C
  C23      1.0000 0.39190  0.78770  0.73860  Biso   1.000  C
  C24      1.0000 0.60810  0.28770  0.76140  Biso   1.000  C
  H13      1.0000 0.55540  0.31470  0.24380  Biso   1.000  H
  H14      1.0000 0.44460  0.81470  0.25620  Biso   1.000  H
  H15      1.0000 0.44460  0.68530  0.75620  Biso   1.000  H
  H16      1.0000 0.55540  0.18530  0.74380  Biso   1.000  H
  C25      1.0000 0.67150  0.20590  0.23400  Biso   1.000  C
  C26      1.0000 0.32850  0.70590  0.26600  Biso   1.000  C
  C27      1.0000 0.32850  0.79410  0.76600  Biso   1.000  C
  C28      1.0000 0.67150  0.29410  0.73400  Biso   1.000  C
  C29      1.0000 0.64280  0.36230  0.17210  Biso   1.000  C
  C30      1.0000 0.35720  0.86230  0.32790  Biso   1.000  C
  C31      1.0000 0.35720  0.63770  0.82790  Biso   1.000  C
  C32      1.0000 0.64280  0.13770  0.67210  Biso   1.000  C
  C33      1.0000 0.43040  0.83890  0.03950  Biso   1.000  C
  C34      1.0000 0.56960  0.33890  0.46050  Biso   1.000  C
  C35      1.0000 0.56960  0.16110  0.96050  Biso   1.000  C
  C36      1.0000 0.43040  0.66110  0.53950  Biso   1.000  C
  H17      1.0000 0.51020  0.87840  0.06820  Biso   1.000  H
  H18      1.0000 0.48980  0.37840  0.43180  Biso   1.000  H
  H19      1.0000 0.48980  0.12160  0.93180  Biso   1.000  H
  H20      1.0000 0.51020  0.62160  0.56820  Biso   1.000  H
  C37      1.0000 0.35150  0.96870  0.02920  Biso   1.000  C
  C38      1.0000 0.64850  0.46870  0.47080  Biso   1.000  C
  C39      1.0000 0.64850  0.03130  0.97080  Biso   1.000  C
  C40      1.0000 0.35150  0.53130  0.52920  Biso   1.000  C
  H21      1.0000 0.37800  0.09280  0.05070  Biso   1.000  H
  H22      1.0000 0.62200  0.59280  0.44930  Biso   1.000  H
  H23      1.0000 0.62200  0.90720  0.94930  Biso   1.000  H
  H24      1.0000 0.37800  0.40720  0.55070  Biso   1.000  H
  C41      1.0000 0.23360  0.91340  0.98720  Biso   1.000  C
  C42      1.0000 0.76640  0.41340  0.51280  Biso   1.000  C
  C43      1.0000 0.76640  0.08660  0.01280  Biso   1.000  C
  C44      1.0000 0.23360  0.58660  0.48720  Biso   1.000  C
  C45      1.0000 0.20180  0.72540  0.96120  Biso   1.000  C
  C46      1.0000 0.79820  0.22540  0.53880  Biso   1.000  C
  C47      1.0000 0.79820  0.27460  0.03880  Biso   1.000  C
  C48      1.0000 0.20180  0.77460  0.46120  Biso   1.000  C
  H25      1.0000 0.12430  0.68070  0.93560  Biso   1.000  H
  H26      1.0000 0.87570  0.18070  0.56440  Biso   1.000  H
  H27      1.0000 0.87570  0.31930  0.06440  Biso   1.000  H
  H28      1.0000 0.12430  0.81930  0.43560  Biso   1.000  H
  C49      1.0000 0.28510  0.60350  0.97320  Biso   1.000  C
  C50      1.0000 0.71490  0.10350  0.52680  Biso   1.000  C
  C51      1.0000 0.71490  0.39650  0.02680  Biso   1.000  C
  C52      1.0000 0.28510  0.89650  0.47320  Biso   1.000  C
  H29      1.0000 0.26190  0.47700  0.95490  Biso   1.000  H
  H30      1.0000 0.73810  0.97700  0.54510  Biso   1.000  H
  H31      1.0000 0.73810  0.52300  0.04510  Biso   1.000  H
  H32      1.0000 0.26190  0.02300  0.45490  Biso   1.000  H
  C53      1.0000 0.14180  0.06390  0.96360  Biso   1.000  C
  C54      1.0000 0.85820  0.56390  0.53640  Biso   1.000  C
  C55      1.0000 0.85820  0.93610  0.03640  Biso   1.000  C
  C56      1.0000 0.14180  0.43610  0.46360  Biso   1.000  C
  C57      1.0000 0.10680  0.89780  0.05120  Biso   1.000  C
  C58      1.0000 0.89320  0.39780  0.44880  Biso   1.000  C
  C59      1.0000 0.89320  0.10220  0.94880  Biso   1.000  C
  C60      1.0000 0.10680  0.60220  0.55120  Biso   1.000  C
  H33      1.0000 0.16960  0.95820  0.10850  Biso   1.000  H
  H34      1.0000 0.83040  0.45820  0.39150  Biso   1.000  H
  H35      1.0000 0.83040  0.04180  0.89150  Biso   1.000  H
  H36      1.0000 0.16960  0.54180  0.60850  Biso   1.000  H
  H37      1.0000 0.14510  0.78740  0.04990  Biso   1.000  H
  H38      1.0000 0.85490  0.28740  0.45010  Biso   1.000  H
  H39      1.0000 0.85490  0.21260  0.95010  Biso   1.000  H
  H40      1.0000 0.14510  0.71260  0.54990  Biso   1.000  H
  C61      1.0000 0.97570  0.16370  0.95190  Biso   1.000  C
  C62      1.0000 0.02430  0.66370  0.54810  Biso   1.000  C
  C63      1.0000 0.02430  0.83630  0.04810  Biso   1.000  C
  C64      1.0000 0.97570  0.33630  0.45190  Biso   1.000  C
  H41      1.0000 0.93630  0.20400  0.89280  Biso   1.000  H
  H42      1.0000 0.06370  0.70400  0.60720  Biso   1.000  H
  H43      1.0000 0.06370  0.79600  0.10720  Biso   1.000  H
  H44      1.0000 0.93630  0.29600  0.39280  Biso   1.000  H
  H45      1.0000 0.01220  0.27660  0.98930  Biso   1.000  H
  H46      1.0000 0.98780  0.77660  0.51070  Biso   1.000  H
  H47      1.0000 0.98780  0.72340  0.01070  Biso   1.000  H
  H48      1.0000 0.01220  0.22340  0.48930  Biso   1.000  H
  O25      1.0000 0.32350  0.25240  0.90430  Biso   1.000  O
  O26      1.0000 0.67650  0.75240  0.59570  Biso   1.000  O
  O27      1.0000 0.67650  0.74760  0.09570  Biso   1.000  O
  O28      1.0000 0.32350  0.24760  0.40430  Biso   1.000  O
