data_image0
_cell_length_a       10.231
_cell_length_b       11.104
_cell_length_c       13.751
_cell_angle_alpha    102.93
_cell_angle_beta     95.17
_cell_angle_gamma    102.72

_symmetry_space_group_name_H-M    "P 1"
_symmetry_int_tables_number       1

loop_
  _symmetry_equiv_pos_as_xyz
  'x, y, z'

loop_
  _atom_site_label
  _atom_site_occupancy
  _atom_site_fract_x
  _atom_site_fract_y
  _atom_site_fract_z
  _atom_site_thermal_displace_type
  _atom_site_B_iso_or_equiv
  _atom_site_type_symbol
  Cu1      1.0000 0.50000  0.50000  0.50000  Biso   1.000  Cu
  O1       1.0000 0.32600  0.54600  0.49775  Biso   1.000  O
  O2       1.0000 0.67400  0.45400  0.50225  Biso   1.000  O
  C1       1.0000 0.16880  0.66610  0.48180  Biso   1.000  C
  C2       1.0000 0.83120  0.33390  0.51820  Biso   1.000  C
  F1       1.0000 0.15660  0.77830  0.47960  Biso   1.000  F
  F2       1.0000 0.84340  0.22170  0.52040  Biso   1.000  F
  F3       1.0000 0.11080  0.58860  0.39660  Biso   1.000  F
  F4       1.0000 0.88920  0.41140  0.60340  Biso   1.000  F
  F5       1.0000 0.09520  0.62970  0.54830  Biso   1.000  F
  F6       1.0000 0.90480  0.37030  0.45170  Biso   1.000  F
  C3       1.0000 0.31440  0.65790  0.50820  Biso   1.000  C
  C4       1.0000 0.68560  0.34210  0.49180  Biso   1.000  C
  C5       1.0000 0.41310  0.76890  0.54150  Biso   1.000  C
  C6       1.0000 0.58690  0.23110  0.45850  Biso   1.000  C
  H1       1.0000 0.39100  0.83700  0.55100  Biso   1.000  H
  H2       1.0000 0.60900  0.16300  0.44900  Biso   1.000  H
  C7       1.0000 0.54670  0.77100  0.56780  Biso   1.000  C
  C8       1.0000 0.45330  0.22900  0.43220  Biso   1.000  C
  C9       1.0000 0.64530  0.90020  0.61140  Biso   1.000  C
  C10      1.0000 0.35470  0.09980  0.38860  Biso   1.000  C
  F7       1.0000 0.68240  0.92090  0.70580  Biso   1.000  F
  F8       1.0000 0.31760  0.07910  0.29420  Biso   1.000  F
  F9       1.0000 0.75460  0.90690  0.57760  Biso   1.000  F
  F10      1.0000 0.24540  0.09310  0.42240  Biso   1.000  F
  F11      1.0000 0.60700  0.99500  0.59960  Biso   1.000  F
  F12      1.0000 0.39300  0.00500  0.40040  Biso   1.000  F
  O3       1.0000 0.59870  0.67830  0.56208  Biso   1.000  O
  O4       1.0000 0.40130  0.32170  0.43792  Biso   1.000  O
  Cu2      1.0000 0.00000  0.00000  0.00000  Biso   1.000  Cu
  O5       1.0000 0.15030  0.98870  0.92437  Biso   1.000  O
  O6       1.0000 0.84970  0.01130  0.07563  Biso   1.000  O
  C11      1.0000 0.34500  0.93950  0.86960  Biso   1.000  C
  C12      1.0000 0.65500  0.06050  0.13040  Biso   1.000  C
  F13      1.0000 0.28930  0.90510  0.77610  Biso   1.000  F
  F14      1.0000 0.71070  0.09490  0.22390  Biso   1.000  F
  F15      1.0000 0.43390  0.87360  0.88110  Biso   1.000  F
  F16      1.0000 0.56610  0.12640  0.11890  Biso   1.000  F
  F17      1.0000 0.41480  0.05760  0.88470  Biso   1.000  F
  F18      1.0000 0.58520  0.94240  0.11530  Biso   1.000  F
  C13      1.0000 0.23910  0.92970  0.94070  Biso   1.000  C
  C14      1.0000 0.76090  0.07030  0.05930  Biso   1.000  C
  C15      1.0000 0.24970  0.86180  0.01190  Biso   1.000  C
  C16      1.0000 0.75030  0.13820  0.98810  Biso   1.000  C
  H3       1.0000 0.31700  0.82000  0.01400  Biso   1.000  H
  H4       1.0000 0.68300  0.18000  0.98600  Biso   1.000  H
  C17      1.0000 0.15360  0.84710  0.07740  Biso   1.000  C
  C18      1.0000 0.84640  0.15290  0.92260  Biso   1.000  C
  C19      1.0000 0.17170  0.76560  0.15040  Biso   1.000  C
  C20      1.0000 0.82830  0.23440  0.84960  Biso   1.000  C
  F19      1.0000 0.29730  0.77210  0.18130  Biso   1.000  F
  F20      1.0000 0.70270  0.22790  0.81870  Biso   1.000  F
  F21      1.0000 0.11240  0.79340  0.23020  Biso   1.000  F
  F22      1.0000 0.88760  0.20660  0.76980  Biso   1.000  F
  F23      1.0000 0.11340  0.64500  0.10670  Biso   1.000  F
  F24      1.0000 0.88660  0.35500  0.89330  Biso   1.000  F
  O7       1.0000 0.05050  0.88960  0.08204  Biso   1.000  O
  O8       1.0000 0.94950  0.11040  0.91796  Biso   1.000  O
  O9       1.0000 0.49380  0.56280  0.34858  Biso   1.000  O
  O10      1.0000 0.50620  0.43720  0.65142  Biso   1.000  O
  N1       1.0000 0.54760  0.53080  0.26860  Biso   1.000  N
  N2       1.0000 0.45240  0.46920  0.73140  Biso   1.000  N
  C21      1.0000 0.67330  0.61530  0.24880  Biso   1.000  C
  C22      1.0000 0.32670  0.38470  0.75120  Biso   1.000  C
  C23      1.0000 0.77860  0.66050  0.34270  Biso   1.000  C
  C24      1.0000 0.22140  0.33950  0.65730  Biso   1.000  C
  H5       1.0000 0.74400  0.71800  0.39300  Biso   1.000  H
  H6       1.0000 0.25600  0.28200  0.60700  Biso   1.000  H
  H7       1.0000 0.80000  0.59200  0.36400  Biso   1.000  H
  H8       1.0000 0.20000  0.40800  0.63600  Biso   1.000  H
  H9       1.0000 0.85800  0.71400  0.32400  Biso   1.000  H
  H10      1.0000 0.14200  0.28600  0.67600  Biso   1.000  H
  C25      1.0000 0.62790  0.72830  0.22260  Biso   1.000  C
  C26      1.0000 0.37210  0.27170  0.77740  Biso   1.000  C
  H11      1.0000 0.59600  0.76700  0.27800  Biso   1.000  H
  H12      1.0000 0.40400  0.23300  0.72200  Biso   1.000  H
  H13      1.0000 0.70800  0.79200  0.21300  Biso   1.000  H
  H14      1.0000 0.29200  0.20800  0.78700  Biso   1.000  H
  H15      1.0000 0.56600  0.70500  0.16400  Biso   1.000  H
  H16      1.0000 0.43400  0.29500  0.83600  Biso   1.000  H
  C27      1.0000 0.70870  0.52490  0.15760  Biso   1.000  C
  C28      1.0000 0.29130  0.47510  0.84240  Biso   1.000  C
  C29      1.0000 0.75550  0.58650  0.07480  Biso   1.000  C
  C30      1.0000 0.24450  0.41350  0.92520  Biso   1.000  C
  H17      1.0000 0.77500  0.52300  0.02800  Biso   1.000  H
  H18      1.0000 0.22500  0.47700  0.97200  Biso   1.000  H
  H19      1.0000 0.68200  0.61800  0.04700  Biso   1.000  H
  H20      1.0000 0.31800  0.38200  0.95300  Biso   1.000  H
  H21      1.0000 0.82900  0.66000  0.10300  Biso   1.000  H
  H22      1.0000 0.17100  0.34000  0.89700  Biso   1.000  H
  C31      1.0000 0.80510  0.44870  0.18690  Biso   1.000  C
  C32      1.0000 0.19490  0.55130  0.81310  Biso   1.000  C
  H23      1.0000 0.81500  0.38800  0.13300  Biso   1.000  H
  H24      1.0000 0.18500  0.61200  0.86700  Biso   1.000  H
  H25      1.0000 0.89300  0.50500  0.21700  Biso   1.000  H
  H26      1.0000 0.10700  0.49500  0.78300  Biso   1.000  H
  H27      1.0000 0.77500  0.40200  0.23400  Biso   1.000  H
  H28      1.0000 0.22500  0.59800  0.76600  Biso   1.000  H
  N3       1.0000 0.57350  0.43140  0.11860  Biso   1.000  N
  N4       1.0000 0.42650  0.56860  0.88140  Biso   1.000  N
  O11      1.0000 0.54950  0.35210  0.03253  Biso   1.000  O
  O12      1.0000 0.45050  0.64790  0.96747  Biso   1.000  O
  C33      1.0000 0.48990  0.43460  0.18850  Biso   1.000  C
  C34      1.0000 0.51010  0.56540  0.81150  Biso   1.000  C
  C35      1.0000 0.35740  0.35080  0.17930  Biso   1.000  C
  C36      1.0000 0.64260  0.64920  0.82070  Biso   1.000  C
  C37      1.0000 0.29200  0.24210  0.10240  Biso   1.000  C
  C38      1.0000 0.70800  0.75790  0.89760  Biso   1.000  C
  H29      1.0000 0.31700  0.21000  0.04700  Biso   1.000  H
  H30      1.0000 0.68300  0.79000  0.95300  Biso   1.000  H
  N5       1.0000 0.17110  0.18910  0.12100  Biso   1.000  N
  N6       1.0000 0.82890  0.81090  0.87900  Biso   1.000  N
  N7       1.0000 0.15800  0.26290  0.21020  Biso   1.000  N
  N8       1.0000 0.84200  0.73710  0.78980  Biso   1.000  N
  C39      1.0000 0.03950  0.23180  0.25880  Biso   1.000  C
  C40      1.0000 0.96050  0.76820  0.74120  Biso   1.000  C
  H31      1.0000 0.05800  0.27600  0.31800  Biso   1.000  H
  H32      1.0000 0.94200  0.72400  0.68200  Biso   1.000  H
  H33      1.0000 0.97600  0.25300  0.21700  Biso   1.000  H
  H34      1.0000 0.02400  0.74700  0.78300  Biso   1.000  H
  H35      1.0000 0.01400  0.14700  0.24900  Biso   1.000  H
  H36      1.0000 0.98600  0.85300  0.75100  Biso   1.000  H
  C41      1.0000 0.26640  0.36020  0.24620  Biso   1.000  C
  C42      1.0000 0.73360  0.63980  0.75380  Biso   1.000  C
  H37      1.0000 0.27100  0.41700  0.30400  Biso   1.000  H
  H38      1.0000 0.72900  0.58300  0.69600  Biso   1.000  H
