data_image0
_cell_length_a       10.189
_cell_length_b       36.981
_cell_length_c       15.147
_cell_angle_alpha    90
_cell_angle_beta     103.52
_cell_angle_gamma    90

_symmetry_space_group_name_H-M    "P 1"
_symmetry_int_tables_number       1

loop_
  _symmetry_equiv_pos_as_xyz
  'x, y, z'

loop_
  _atom_site_label
  _atom_site_occupancy
  _atom_site_fract_x
  _atom_site_fract_y
  _atom_site_fract_z
  _atom_site_thermal_displace_type
  _atom_site_B_iso_or_equiv
  _atom_site_type_symbol
  Cu1      1.0000 0.06548  0.13264  0.35455  Biso   1.000  Cu
  Cu2      1.0000 0.43452  0.63264  0.14545  Biso   1.000  Cu
  Cu3      1.0000 0.93452  0.86736  0.64545  Biso   1.000  Cu
  Cu4      1.0000 0.56548  0.36736  0.85455  Biso   1.000  Cu
  O1       1.0000 0.99390  0.08283  0.33320  Biso   1.000  O
  O2       1.0000 0.50610  0.58283  0.16680  Biso   1.000  O
  O3       1.0000 0.00610  0.91717  0.66680  Biso   1.000  O
  O4       1.0000 0.49390  0.41717  0.83320  Biso   1.000  O
  C1       1.0000 0.85900  0.03137  0.33550  Biso   1.000  C
  C2       1.0000 0.64100  0.53137  0.16450  Biso   1.000  C
  C3       1.0000 0.14100  0.96863  0.66450  Biso   1.000  C
  C4       1.0000 0.35900  0.46863  0.83550  Biso   1.000  C
  F1       1.0000 0.72799  0.02303  0.31988  Biso   1.000  F
  F2       1.0000 0.77201  0.52303  0.18012  Biso   1.000  F
  F3       1.0000 0.27201  0.97697  0.68012  Biso   1.000  F
  F4       1.0000 0.22799  0.47697  0.81988  Biso   1.000  F
  F5       1.0000 0.92250  0.01298  0.40948  Biso   1.000  F
  F6       1.0000 0.57750  0.51298  0.09052  Biso   1.000  F
  F7       1.0000 0.07750  0.98702  0.59052  Biso   1.000  F
  F8       1.0000 0.42250  0.48702  0.90948  Biso   1.000  F
  F9       1.0000 0.90500  0.01906  0.26586  Biso   1.000  F
  F10      1.0000 0.59500  0.51906  0.23414  Biso   1.000  F
  F11      1.0000 0.09500  0.98094  0.73414  Biso   1.000  F
  F12      1.0000 0.40500  0.48094  0.76586  Biso   1.000  F
  C5       1.0000 0.88630  0.07211  0.35140  Biso   1.000  C
  C6       1.0000 0.61370  0.57211  0.14860  Biso   1.000  C
  C7       1.0000 0.11370  0.92789  0.64860  Biso   1.000  C
  C8       1.0000 0.38630  0.42789  0.85140  Biso   1.000  C
  C9       1.0000 0.79460  0.09192  0.38760  Biso   1.000  C
  C10      1.0000 0.70540  0.59192  0.11240  Biso   1.000  C
  C11      1.0000 0.20540  0.90808  0.61240  Biso   1.000  C
  C12      1.0000 0.29460  0.40808  0.88760  Biso   1.000  C
  H1       1.0000 0.72000  0.08050  0.39400  Biso   1.000  H
  H2       1.0000 0.78000  0.58050  0.10600  Biso   1.000  H
  H3       1.0000 0.28000  0.91950  0.60600  Biso   1.000  H
  H4       1.0000 0.22000  0.41950  0.89400  Biso   1.000  H
  C13      1.0000 0.81790  0.12744  0.41360  Biso   1.000  C
  C14      1.0000 0.68210  0.62744  0.08640  Biso   1.000  C
  C15      1.0000 0.18210  0.87256  0.58640  Biso   1.000  C
  C16      1.0000 0.31790  0.37256  0.91360  Biso   1.000  C
  C17      1.0000 0.71620  0.14709  0.45800  Biso   1.000  C
  C18      1.0000 0.78380  0.64709  0.04200  Biso   1.000  C
  C19      1.0000 0.28380  0.85291  0.54200  Biso   1.000  C
  C20      1.0000 0.21620  0.35291  0.95800  Biso   1.000  C
  F13      1.0000 0.60200  0.12859  0.45211  Biso   1.000  F
  F14      1.0000 0.89800  0.62859  0.04789  Biso   1.000  F
  F15      1.0000 0.39800  0.87141  0.54789  Biso   1.000  F
  F16      1.0000 0.10200  0.37141  0.95211  Biso   1.000  F
  F17      1.0000 0.77060  0.15247  0.54645  Biso   1.000  F
  F18      1.0000 0.72940  0.65247  0.95355  Biso   1.000  F
  F19      1.0000 0.22940  0.84753  0.45355  Biso   1.000  F
  F20      1.0000 0.27060  0.34753  0.04645  Biso   1.000  F
  F21      1.0000 0.68260  0.17939  0.42051  Biso   1.000  F
  F22      1.0000 0.81740  0.67939  0.07949  Biso   1.000  F
  F23      1.0000 0.31740  0.82061  0.57949  Biso   1.000  F
  F24      1.0000 0.18260  0.32061  0.92051  Biso   1.000  F
  O5       1.0000 0.91760  0.14737  0.40953  Biso   1.000  O
  O6       1.0000 0.58240  0.64737  0.09047  Biso   1.000  O
  O7       1.0000 0.08240  0.85263  0.59047  Biso   1.000  O
  O8       1.0000 0.41760  0.35263  0.90953  Biso   1.000  O
  O9       1.0000 0.14120  0.18174  0.38042  Biso   1.000  O
  O10      1.0000 0.35880  0.68174  0.11958  Biso   1.000  O
  O11      1.0000 0.85880  0.81826  0.61958  Biso   1.000  O
  O12      1.0000 0.64120  0.31826  0.88042  Biso   1.000  O
  C21      1.0000 0.27870  0.23254  0.38330  Biso   1.000  C
  C22      1.0000 0.22130  0.73254  0.11670  Biso   1.000  C
  C23      1.0000 0.72130  0.76746  0.61670  Biso   1.000  C
  C24      1.0000 0.77870  0.26746  0.88330  Biso   1.000  C
  F25      1.0000 0.25230  0.24189  0.46212  Biso   1.000  F
  F26      1.0000 0.24770  0.74189  0.03788  Biso   1.000  F
  F27      1.0000 0.74770  0.75811  0.53788  Biso   1.000  F
  F28      1.0000 0.75230  0.25811  0.96212  Biso   1.000  F
  F29      1.0000 0.20380  0.25369  0.32056  Biso   1.000  F
  F30      1.0000 0.29620  0.75369  0.17944  Biso   1.000  F
  F31      1.0000 0.79620  0.74631  0.67944  Biso   1.000  F
  F32      1.0000 0.70380  0.24631  0.82056  Biso   1.000  F
  F33      1.0000 0.40750  0.24092  0.38870  Biso   1.000  F
  F34      1.0000 0.09250  0.74092  0.11130  Biso   1.000  F
  F35      1.0000 0.59250  0.75908  0.61130  Biso   1.000  F
  F36      1.0000 0.90750  0.25908  0.88870  Biso   1.000  F
  C25      1.0000 0.24560  0.19297  0.35890  Biso   1.000  C
  C26      1.0000 0.25440  0.69297  0.14110  Biso   1.000  C
  C27      1.0000 0.75440  0.80703  0.64110  Biso   1.000  C
  C28      1.0000 0.74560  0.30703  0.85890  Biso   1.000  C
  C29      1.0000 0.33000  0.17431  0.31370  Biso   1.000  C
  C30      1.0000 0.17000  0.67431  0.18630  Biso   1.000  C
  C31      1.0000 0.67000  0.82569  0.68630  Biso   1.000  C
  C32      1.0000 0.83000  0.32569  0.81370  Biso   1.000  C
  H5       1.0000 0.39900  0.18590  0.30400  Biso   1.000  H
  H6       1.0000 0.10100  0.68590  0.19600  Biso   1.000  H
  H7       1.0000 0.60100  0.81410  0.69600  Biso   1.000  H
  H8       1.0000 0.89900  0.31410  0.80400  Biso   1.000  H
  C33      1.0000 0.30590  0.13873  0.28710  Biso   1.000  C
  C34      1.0000 0.19410  0.63873  0.21290  Biso   1.000  C
  C35      1.0000 0.69410  0.86127  0.71290  Biso   1.000  C
  C36      1.0000 0.80590  0.36127  0.78710  Biso   1.000  C
  C37      1.0000 0.40300  0.11993  0.23850  Biso   1.000  C
  C38      1.0000 0.09700  0.61993  0.26150  Biso   1.000  C
  C39      1.0000 0.59700  0.88007  0.76150  Biso   1.000  C
  C40      1.0000 0.90300  0.38007  0.73850  Biso   1.000  C
  F37      1.0000 0.33820  0.10806  0.15695  Biso   1.000  F
  F38      1.0000 0.16180  0.60806  0.34305  Biso   1.000  F
  F39      1.0000 0.66180  0.89194  0.84305  Biso   1.000  F
  F40      1.0000 0.83820  0.39194  0.65695  Biso   1.000  F
  F41      1.0000 0.50430  0.14077  0.22790  Biso   1.000  F
  F42      1.0000 0.99570  0.64077  0.27210  Biso   1.000  F
  F43      1.0000 0.49570  0.85923  0.77210  Biso   1.000  F
  F44      1.0000 0.00430  0.35923  0.72790  Biso   1.000  F
  F45      1.0000 0.45890  0.09106  0.28498  Biso   1.000  F
  F46      1.0000 0.04110  0.59106  0.21502  Biso   1.000  F
  F47      1.0000 0.54110  0.90894  0.71502  Biso   1.000  F
  F48      1.0000 0.95890  0.40894  0.78498  Biso   1.000  F
  O13      1.0000 0.21110  0.11833  0.29717  Biso   1.000  O
  O14      1.0000 0.28890  0.61833  0.20283  Biso   1.000  O
  O15      1.0000 0.78890  0.88167  0.70283  Biso   1.000  O
  O16      1.0000 0.71110  0.38167  0.79717  Biso   1.000  O
  Cu5      1.0000 0.53663  0.11776  0.85544  Biso   1.000  Cu
  Cu6      1.0000 0.96337  0.61776  0.64456  Biso   1.000  Cu
  Cu7      1.0000 0.46337  0.88224  0.14456  Biso   1.000  Cu
  Cu8      1.0000 0.03663  0.38224  0.35544  Biso   1.000  Cu
  O17      1.0000 0.35840  0.10353  0.87011  Biso   1.000  O
  O18      1.0000 0.14160  0.60353  0.62989  Biso   1.000  O
  O19      1.0000 0.64160  0.89647  0.12989  Biso   1.000  O
  O20      1.0000 0.85840  0.39647  0.37011  Biso   1.000  O
  C41      1.0000 0.18960  0.06865  0.90880  Biso   1.000  C
  C42      1.0000 0.31040  0.56865  0.59120  Biso   1.000  C
  C43      1.0000 0.81040  0.93135  0.09120  Biso   1.000  C
  C44      1.0000 0.68960  0.43135  0.40880  Biso   1.000  C
  F49      1.0000 0.16910  0.03984  0.95540  Biso   1.000  F
  F50      1.0000 0.33090  0.53984  0.54460  Biso   1.000  F
  F51      1.0000 0.83090  0.96016  0.04460  Biso   1.000  F
  F52      1.0000 0.66910  0.46016  0.45540  Biso   1.000  F
  F53      1.0000 0.12240  0.09592  0.93496  Biso   1.000  F
  F54      1.0000 0.37760  0.59592  0.56504  Biso   1.000  F
  F55      1.0000 0.87760  0.90408  0.06504  Biso   1.000  F
  F56      1.0000 0.62240  0.40408  0.43496  Biso   1.000  F
  F57      1.0000 0.13260  0.06266  0.82191  Biso   1.000  F
  F58      1.0000 0.36740  0.56266  0.67809  Biso   1.000  F
  F59      1.0000 0.86740  0.93734  0.17809  Biso   1.000  F
  F60      1.0000 0.63260  0.43734  0.32191  Biso   1.000  F
  C45      1.0000 0.33910  0.07845  0.92230  Biso   1.000  C
  C46      1.0000 0.16090  0.57845  0.57770  Biso   1.000  C
  C47      1.0000 0.66090  0.92155  0.07770  Biso   1.000  C
  C48      1.0000 0.83910  0.42155  0.42230  Biso   1.000  C
  C49      1.0000 0.43350  0.06043  0.98830  Biso   1.000  C
  C50      1.0000 0.06650  0.56043  0.51170  Biso   1.000  C
  C51      1.0000 0.56650  0.93957  0.01170  Biso   1.000  C
  C52      1.0000 0.93350  0.43957  0.48830  Biso   1.000  C
  H9       1.0000 0.40800  0.04440  0.02400  Biso   1.000  H
  H10      1.0000 0.09200  0.54440  0.47600  Biso   1.000  H
  H11      1.0000 0.59200  0.95560  0.97600  Biso   1.000  H
  H12      1.0000 0.90800  0.45560  0.52400  Biso   1.000  H
  C53      1.0000 0.57080  0.06889  0.00570  Biso   1.000  C
  C54      1.0000 0.92920  0.56889  0.49430  Biso   1.000  C
  C55      1.0000 0.42920  0.93111  0.99430  Biso   1.000  C
  C56      1.0000 0.07080  0.43111  0.50570  Biso   1.000  C
  C57      1.0000 0.66860  0.05059  0.08460  Biso   1.000  C
  C58      1.0000 0.83140  0.55059  0.41540  Biso   1.000  C
  C59      1.0000 0.33140  0.94941  0.91540  Biso   1.000  C
  C60      1.0000 0.16860  0.44941  0.58460  Biso   1.000  C
  F61      1.0000 0.78160  0.04076  0.06221  Biso   1.000  F
  F62      1.0000 0.71840  0.54076  0.43779  Biso   1.000  F
  F63      1.0000 0.21840  0.95924  0.93779  Biso   1.000  F
  F64      1.0000 0.28160  0.45924  0.56221  Biso   1.000  F
  F65      1.0000 0.70380  0.07329  0.15440  Biso   1.000  F
  F66      1.0000 0.79620  0.57329  0.34560  Biso   1.000  F
  F67      1.0000 0.29620  0.92671  0.84560  Biso   1.000  F
  F68      1.0000 0.20380  0.42671  0.65440  Biso   1.000  F
  F69      1.0000 0.61790  0.02110  0.11458  Biso   1.000  F
  F70      1.0000 0.88210  0.52110  0.38542  Biso   1.000  F
  F71      1.0000 0.38210  0.97890  0.88542  Biso   1.000  F
  F72      1.0000 0.11790  0.47890  0.61458  Biso   1.000  F
  O21      1.0000 0.62710  0.09119  0.96397  Biso   1.000  O
  O22      1.0000 0.87290  0.59119  0.53603  Biso   1.000  O
  O23      1.0000 0.37290  0.90881  0.03603  Biso   1.000  O
  O24      1.0000 0.12710  0.40881  0.46397  Biso   1.000  O
  O25      1.0000 0.44980  0.14835  0.75243  Biso   1.000  O
  O26      1.0000 0.05020  0.64835  0.74757  Biso   1.000  O
  O27      1.0000 0.55020  0.85165  0.24757  Biso   1.000  O
  O28      1.0000 0.94980  0.35165  0.25243  Biso   1.000  O
  C61      1.0000 0.42490  0.19323  0.63900  Biso   1.000  C
  C62      1.0000 0.07510  0.69323  0.86100  Biso   1.000  C
  C63      1.0000 0.57510  0.80677  0.36100  Biso   1.000  C
  C64      1.0000 0.92490  0.30677  0.13900  Biso   1.000  C
  F73      1.0000 0.29950  0.19498  0.64620  Biso   1.000  F
  F74      1.0000 0.20050  0.69498  0.85380  Biso   1.000  F
  F75      1.0000 0.70050  0.80502  0.35380  Biso   1.000  F
  F76      1.0000 0.79950  0.30502  0.14620  Biso   1.000  F
  F77      1.0000 0.46880  0.22611  0.63960  Biso   1.000  F
  F78      1.0000 0.03120  0.72611  0.86040  Biso   1.000  F
  F79      1.0000 0.53120  0.77389  0.36040  Biso   1.000  F
  F80      1.0000 0.96880  0.27389  0.13960  Biso   1.000  F
  F81      1.0000 0.41990  0.17980  0.55832  Biso   1.000  F
  F82      1.0000 0.08010  0.67980  0.94168  Biso   1.000  F
  F83      1.0000 0.58010  0.82020  0.44168  Biso   1.000  F
  F84      1.0000 0.91990  0.32020  0.05832  Biso   1.000  F
  C65      1.0000 0.51280  0.16929  0.71210  Biso   1.000  C
  C66      1.0000 0.98720  0.66929  0.78790  Biso   1.000  C
  C67      1.0000 0.48720  0.83071  0.28790  Biso   1.000  C
  C68      1.0000 0.01280  0.33071  0.21210  Biso   1.000  C
  C69      1.0000 0.65230  0.17341  0.72570  Biso   1.000  C
  C70      1.0000 0.84770  0.67341  0.77430  Biso   1.000  C
  C71      1.0000 0.34770  0.82659  0.27430  Biso   1.000  C
  C72      1.0000 0.15230  0.32659  0.22570  Biso   1.000  C
  H13      1.0000 0.68600  0.18950  0.69500  Biso   1.000  H
  H14      1.0000 0.81400  0.68950  0.80500  Biso   1.000  H
  H15      1.0000 0.31400  0.81050  0.30500  Biso   1.000  H
  H16      1.0000 0.18600  0.31050  0.19500  Biso   1.000  H
  C73      1.0000 0.74210  0.15314  0.78930  Biso   1.000  C
  C74      1.0000 0.75790  0.65314  0.71070  Biso   1.000  C
  C75      1.0000 0.25790  0.84686  0.21070  Biso   1.000  C
  C76      1.0000 0.24210  0.34686  0.28930  Biso   1.000  C
  C77      1.0000 0.89390  0.15970  0.80320  Biso   1.000  C
  C78      1.0000 0.60610  0.65970  0.69680  Biso   1.000  C
  C79      1.0000 0.10610  0.84030  0.19680  Biso   1.000  C
  C80      1.0000 0.39390  0.34030  0.30320  Biso   1.000  C
  F85      1.0000 0.92430  0.18682  0.75401  Biso   1.000  F
  F86      1.0000 0.57570  0.68682  0.74599  Biso   1.000  F
  F87      1.0000 0.07570  0.81318  0.24599  Biso   1.000  F
  F88      1.0000 0.42430  0.31318  0.25401  Biso   1.000  F
  F89      1.0000 0.95070  0.16671  0.88943  Biso   1.000  F
  F90      1.0000 0.54930  0.66671  0.61057  Biso   1.000  F
  F91      1.0000 0.04930  0.83329  0.11057  Biso   1.000  F
  F92      1.0000 0.45070  0.33329  0.38943  Biso   1.000  F
  F93      1.0000 0.95380  0.13015  0.78019  Biso   1.000  F
  F94      1.0000 0.54620  0.63015  0.71981  Biso   1.000  F
  F95      1.0000 0.04620  0.86985  0.21981  Biso   1.000  F
  F96      1.0000 0.45380  0.36985  0.28019  Biso   1.000  F
  O29      1.0000 0.71670  0.12868  0.84108  Biso   1.000  O
  O30      1.0000 0.78330  0.62868  0.65892  Biso   1.000  O
  O31      1.0000 0.28330  0.87132  0.15892  Biso   1.000  O
  O32      1.0000 0.21670  0.37132  0.34108  Biso   1.000  O
  O33      1.0000 0.51530  0.06211  0.77771  Biso   1.000  O
  O34      1.0000 0.98470  0.56211  0.72229  Biso   1.000  O
  O35      1.0000 0.48470  0.93789  0.22229  Biso   1.000  O
  O36      1.0000 0.01530  0.43789  0.27771  Biso   1.000  O
  N1       1.0000 0.56560  0.05229  0.71050  Biso   1.000  N
  N2       1.0000 0.93440  0.55229  0.78950  Biso   1.000  N
  N3       1.0000 0.43440  0.94771  0.28950  Biso   1.000  N
  N4       1.0000 0.06560  0.44771  0.21050  Biso   1.000  N
  C81      1.0000 0.68010  0.02555  0.72360  Biso   1.000  C
  C82      1.0000 0.81990  0.52555  0.77640  Biso   1.000  C
  C83      1.0000 0.31990  0.97445  0.27640  Biso   1.000  C
  C84      1.0000 0.18010  0.47445  0.22360  Biso   1.000  C
  C85      1.0000 0.61910  0.98895  0.73840  Biso   1.000  C
  C86      1.0000 0.88090  0.48895  0.76160  Biso   1.000  C
  C87      1.0000 0.38090  0.01105  0.26160  Biso   1.000  C
  C88      1.0000 0.11910  0.51105  0.23840  Biso   1.000  C
  H17      1.0000 0.58200  0.99050  0.79100  Biso   1.000  H
  H18      1.0000 0.91800  0.49050  0.70900  Biso   1.000  H
  H19      1.0000 0.41800  0.00950  0.20900  Biso   1.000  H
  H20      1.0000 0.08200  0.50950  0.29100  Biso   1.000  H
  H21      1.0000 0.69100  0.97100  0.75000  Biso   1.000  H
  H22      1.0000 0.80900  0.47100  0.75000  Biso   1.000  H
  H23      1.0000 0.30900  0.02900  0.25000  Biso   1.000  H
  H24      1.0000 0.19100  0.52900  0.25000  Biso   1.000  H
  H25      1.0000 0.55400  0.98130  0.68800  Biso   1.000  H
  H26      1.0000 0.94600  0.48130  0.81200  Biso   1.000  H
  H27      1.0000 0.44600  0.01870  0.31200  Biso   1.000  H
  H28      1.0000 0.05400  0.51870  0.18800  Biso   1.000  H
  C89      1.0000 0.79020  0.03584  0.80580  Biso   1.000  C
  C90      1.0000 0.70980  0.53584  0.69420  Biso   1.000  C
  C91      1.0000 0.20980  0.96416  0.19420  Biso   1.000  C
  C92      1.0000 0.29020  0.46416  0.30580  Biso   1.000  C
  H29      1.0000 0.76000  0.03230  0.86100  Biso   1.000  H
  H30      1.0000 0.74000  0.53230  0.63900  Biso   1.000  H
  H31      1.0000 0.24000  0.96770  0.13900  Biso   1.000  H
  H32      1.0000 0.26000  0.46770  0.36100  Biso   1.000  H
  H33      1.0000 0.82000  0.05950  0.80400  Biso   1.000  H
  H34      1.0000 0.68000  0.55950  0.69600  Biso   1.000  H
  H35      1.0000 0.18000  0.94050  0.19600  Biso   1.000  H
  H36      1.0000 0.32000  0.44050  0.30400  Biso   1.000  H
  H37      1.0000 0.86900  0.01980  0.81100  Biso   1.000  H
  H38      1.0000 0.63100  0.51980  0.68900  Biso   1.000  H
  H39      1.0000 0.13100  0.98020  0.18900  Biso   1.000  H
  H40      1.0000 0.36900  0.48020  0.31100  Biso   1.000  H
  C93      1.0000 0.71940  0.02894  0.63020  Biso   1.000  C
  C94      1.0000 0.78060  0.52894  0.86980  Biso   1.000  C
  C95      1.0000 0.28060  0.97106  0.36980  Biso   1.000  C
  C96      1.0000 0.21940  0.47106  0.13020  Biso   1.000  C
  C97      1.0000 0.83010  0.05642  0.62960  Biso   1.000  C
  C98      1.0000 0.66990  0.55642  0.87040  Biso   1.000  C
  C99      1.0000 0.16990  0.94358  0.37040  Biso   1.000  C
  C100     1.0000 0.33010  0.44358  0.12960  Biso   1.000  C
  H41      1.0000 0.84100  0.05990  0.56800  Biso   1.000  H
  H42      1.0000 0.65900  0.55990  0.93200  Biso   1.000  H
  H43      1.0000 0.15900  0.94010  0.43200  Biso   1.000  H
  H44      1.0000 0.34100  0.44010  0.06800  Biso   1.000  H
  H45      1.0000 0.91300  0.04740  0.66700  Biso   1.000  H
  H46      1.0000 0.58700  0.54740  0.83300  Biso   1.000  H
  H47      1.0000 0.08700  0.95260  0.33300  Biso   1.000  H
  H48      1.0000 0.41300  0.45260  0.16700  Biso   1.000  H
  H49      1.0000 0.80500  0.07850  0.65400  Biso   1.000  H
  H50      1.0000 0.69500  0.57850  0.84600  Biso   1.000  H
  H51      1.0000 0.19500  0.92150  0.34600  Biso   1.000  H
  H52      1.0000 0.30500  0.42150  0.15400  Biso   1.000  H
  C101     1.0000 0.74920  0.99302  0.58920  Biso   1.000  C
  C102     1.0000 0.75080  0.49302  0.91080  Biso   1.000  C
  C103     1.0000 0.25080  0.00698  0.41080  Biso   1.000  C
  C104     1.0000 0.24920  0.50698  0.08920  Biso   1.000  C
  H53      1.0000 0.77500  0.99630  0.53000  Biso   1.000  H
  H54      1.0000 0.72500  0.49630  0.97000  Biso   1.000  H
  H55      1.0000 0.22500  0.00370  0.47000  Biso   1.000  H
  H56      1.0000 0.27500  0.50370  0.03000  Biso   1.000  H
  H57      1.0000 0.66900  0.97760  0.58000  Biso   1.000  H
  H58      1.0000 0.83100  0.47760  0.92000  Biso   1.000  H
  H59      1.0000 0.33100  0.02240  0.42000  Biso   1.000  H
  H60      1.0000 0.16900  0.52240  0.08000  Biso   1.000  H
  H61      1.0000 0.82200  0.98040  0.63300  Biso   1.000  H
  H62      1.0000 0.67800  0.48040  0.86700  Biso   1.000  H
  H63      1.0000 0.17800  0.01960  0.36700  Biso   1.000  H
  H64      1.0000 0.32200  0.51960  0.13300  Biso   1.000  H
  N5       1.0000 0.59090  0.04439  0.57198  Biso   1.000  N
  N6       1.0000 0.90910  0.54439  0.92802  Biso   1.000  N
  N7       1.0000 0.40910  0.95561  0.42802  Biso   1.000  N
  N8       1.0000 0.09090  0.45561  0.07198  Biso   1.000  N
  O37      1.0000 0.56990  0.04622  0.48514  Biso   1.000  O
  O38      1.0000 0.93010  0.54622  0.01486  Biso   1.000  O
  O39      1.0000 0.43010  0.95378  0.51486  Biso   1.000  O
  O40      1.0000 0.06990  0.45378  0.98514  Biso   1.000  O
  C105     1.0000 0.51150  0.05917  0.62240  Biso   1.000  C
  C106     1.0000 0.98850  0.55917  0.87760  Biso   1.000  C
  C107     1.0000 0.48850  0.94083  0.37760  Biso   1.000  C
  C108     1.0000 0.01150  0.44083  0.12240  Biso   1.000  C
  C109     1.0000 0.38800  0.07914  0.58830  Biso   1.000  C
  C110     1.0000 0.11200  0.57914  0.91170  Biso   1.000  C
  C111     1.0000 0.61200  0.92086  0.41170  Biso   1.000  C
  C112     1.0000 0.88800  0.42086  0.08830  Biso   1.000  C
  C113     1.0000 0.33160  0.09185  0.50010  Biso   1.000  C
  C114     1.0000 0.16840  0.59185  0.99990  Biso   1.000  C
  C115     1.0000 0.66840  0.90815  0.49990  Biso   1.000  C
  C116     1.0000 0.83160  0.40815  0.00010  Biso   1.000  C
  H65      1.0000 0.36300  0.08910  0.45000  Biso   1.000  H
  H66      1.0000 0.13700  0.58910  0.05000  Biso   1.000  H
  H67      1.0000 0.63700  0.91090  0.55000  Biso   1.000  H
  H68      1.0000 0.86300  0.41090  0.95000  Biso   1.000  H
  N9       1.0000 0.21730  0.10974  0.49622  Biso   1.000  N
  N10      1.0000 0.28270  0.60974  0.00378  Biso   1.000  N
  N11      1.0000 0.78270  0.89026  0.50378  Biso   1.000  N
  N12      1.0000 0.71730  0.39026  0.99622  Biso   1.000  N
  N13      1.0000 0.20010  0.10866  0.58262  Biso   1.000  N
  N14      1.0000 0.29990  0.60866  0.91738  Biso   1.000  N
  N15      1.0000 0.79990  0.89134  0.41738  Biso   1.000  N
  N16      1.0000 0.70010  0.39134  0.08262  Biso   1.000  N
  C117     1.0000 0.08760  0.12731  0.60710  Biso   1.000  C
  C118     1.0000 0.41240  0.62731  0.89290  Biso   1.000  C
  C119     1.0000 0.91240  0.87269  0.39290  Biso   1.000  C
  C120     1.0000 0.58760  0.37269  0.10710  Biso   1.000  C
  H69      1.0000 0.10800  0.13070  0.67100  Biso   1.000  H
  H70      1.0000 0.39200  0.63070  0.82900  Biso   1.000  H
  H71      1.0000 0.89200  0.86930  0.32900  Biso   1.000  H
  H72      1.0000 0.60800  0.36930  0.17100  Biso   1.000  H
  H73      1.0000 0.01000  0.11110  0.59000  Biso   1.000  H
  H74      1.0000 0.49000  0.61110  0.91000  Biso   1.000  H
  H75      1.0000 0.99000  0.88890  0.41000  Biso   1.000  H
  H76      1.0000 0.51000  0.38890  0.09000  Biso   1.000  H
  H77      1.0000 0.06800  0.14900  0.57300  Biso   1.000  H
  H78      1.0000 0.43200  0.64900  0.92700  Biso   1.000  H
  H79      1.0000 0.93200  0.85100  0.42700  Biso   1.000  H
  H80      1.0000 0.56800  0.35100  0.07300  Biso   1.000  H
  C121     1.0000 0.29890  0.09057  0.63870  Biso   1.000  C
  C122     1.0000 0.20110  0.59057  0.86130  Biso   1.000  C
  C123     1.0000 0.70110  0.90943  0.36130  Biso   1.000  C
  C124     1.0000 0.79890  0.40943  0.13870  Biso   1.000  C
  H81      1.0000 0.29800  0.08860  0.70000  Biso   1.000  H
  H82      1.0000 0.20200  0.58860  0.80000  Biso   1.000  H
  H83      1.0000 0.70200  0.91140  0.30000  Biso   1.000  H
  H84      1.0000 0.79800  0.41140  0.20000  Biso   1.000  H
  O41      1.0000 0.56830  0.17687  0.93000  Biso   1.000  O
  O42      1.0000 0.93170  0.67687  0.57000  Biso   1.000  O
  O43      1.0000 0.43170  0.82313  0.07000  Biso   1.000  O
  O44      1.0000 0.06830  0.32313  0.43000  Biso   1.000  O
  N17      1.0000 0.53360  0.19416  0.99501  Biso   1.000  N
  N18      1.0000 0.96640  0.69416  0.50499  Biso   1.000  N
  N19      1.0000 0.46640  0.80584  0.00499  Biso   1.000  N
  N20      1.0000 0.03360  0.30584  0.49501  Biso   1.000  N
  C125     1.0000 0.39920  0.21315  0.98040  Biso   1.000  C
  C126     1.0000 0.10080  0.71315  0.51960  Biso   1.000  C
  C127     1.0000 0.60080  0.78685  0.01960  Biso   1.000  C
  C128     1.0000 0.89920  0.28685  0.48040  Biso   1.000  C
  C129     1.0000 0.37160  0.23464  0.89270  Biso   1.000  C
  C130     1.0000 0.12840  0.73464  0.60730  Biso   1.000  C
  C131     1.0000 0.62840  0.76536  0.10730  Biso   1.000  C
  C132     1.0000 0.87160  0.26536  0.39270  Biso   1.000  C
  H85      1.0000 0.36400  0.21760  0.84100  Biso   1.000  H
  H86      1.0000 0.13600  0.71760  0.65900  Biso   1.000  H
  H87      1.0000 0.63600  0.78240  0.15900  Biso   1.000  H
  H88      1.0000 0.86400  0.28240  0.34100  Biso   1.000  H
  H89      1.0000 0.44400  0.25110  0.89300  Biso   1.000  H
  H90      1.0000 0.05600  0.75110  0.60700  Biso   1.000  H
  H91      1.0000 0.55600  0.74890  0.10700  Biso   1.000  H
  H92      1.0000 0.94400  0.24890  0.39300  Biso   1.000  H
  H93      1.0000 0.28400  0.24650  0.88700  Biso   1.000  H
  H94      1.0000 0.21600  0.74650  0.61300  Biso   1.000  H
  H95      1.0000 0.71600  0.75350  0.11300  Biso   1.000  H
  H96      1.0000 0.78400  0.25350  0.38700  Biso   1.000  H
  C133     1.0000 0.29350  0.18297  0.97530  Biso   1.000  C
  C134     1.0000 0.20650  0.68297  0.52470  Biso   1.000  C
  C135     1.0000 0.70650  0.81703  0.02470  Biso   1.000  C
  C136     1.0000 0.79350  0.31703  0.47530  Biso   1.000  C
  H97      1.0000 0.29500  0.16980  0.92100  Biso   1.000  H
  H98      1.0000 0.20500  0.66980  0.57900  Biso   1.000  H
  H99      1.0000 0.70500  0.83020  0.07900  Biso   1.000  H
  H100     1.0000 0.79500  0.33020  0.42100  Biso   1.000  H
  H101     1.0000 0.19900  0.19220  0.96200  Biso   1.000  H
  H102     1.0000 0.30100  0.69220  0.53800  Biso   1.000  H
  H103     1.0000 0.80100  0.80780  0.03800  Biso   1.000  H
  H104     1.0000 0.69900  0.30780  0.46200  Biso   1.000  H
  H105     1.0000 0.31100  0.16870  0.03300  Biso   1.000  H
  H106     1.0000 0.18900  0.66870  0.46700  Biso   1.000  H
  H107     1.0000 0.68900  0.83130  0.96700  Biso   1.000  H
  H108     1.0000 0.81100  0.33130  0.53300  Biso   1.000  H
  C137     1.0000 0.42280  0.23610  0.06950  Biso   1.000  C
  C138     1.0000 0.07720  0.73610  0.43050  Biso   1.000  C
  C139     1.0000 0.57720  0.76390  0.93050  Biso   1.000  C
  C140     1.0000 0.92280  0.26390  0.56950  Biso   1.000  C
  C141     1.0000 0.30200  0.23878  0.11230  Biso   1.000  C
  C142     1.0000 0.19800  0.73878  0.38770  Biso   1.000  C
  C143     1.0000 0.69800  0.76122  0.88770  Biso   1.000  C
  C144     1.0000 0.80200  0.26122  0.61230  Biso   1.000  C
  H109     1.0000 0.32800  0.25330  0.16800  Biso   1.000  H
  H110     1.0000 0.17200  0.75330  0.33200  Biso   1.000  H
  H111     1.0000 0.67200  0.74670  0.83200  Biso   1.000  H
  H112     1.0000 0.82800  0.24670  0.66800  Biso   1.000  H
  H113     1.0000 0.26800  0.21700  0.12400  Biso   1.000  H
  H114     1.0000 0.23200  0.71700  0.37600  Biso   1.000  H
  H115     1.0000 0.73200  0.78300  0.87600  Biso   1.000  H
  H116     1.0000 0.76800  0.28300  0.62400  Biso   1.000  H
  H117     1.0000 0.23600  0.25090  0.07100  Biso   1.000  H
  H118     1.0000 0.26400  0.75090  0.42900  Biso   1.000  H
  H119     1.0000 0.76400  0.74910  0.92900  Biso   1.000  H
  H120     1.0000 0.73600  0.24910  0.57100  Biso   1.000  H
  C145     1.0000 0.48120  0.27371  0.06040  Biso   1.000  C
  C146     1.0000 0.01880  0.77371  0.43960  Biso   1.000  C
  C147     1.0000 0.51880  0.72629  0.93960  Biso   1.000  C
  C148     1.0000 0.98120  0.22629  0.56040  Biso   1.000  C
  H121     1.0000 0.50700  0.28410  0.12000  Biso   1.000  H
  H122     1.0000 0.99300  0.78410  0.38000  Biso   1.000  H
  H123     1.0000 0.49300  0.71590  0.88000  Biso   1.000  H
  H124     1.0000 0.00700  0.21590  0.62000  Biso   1.000  H
  H125     1.0000 0.41500  0.28910  0.02200  Biso   1.000  H
  H126     1.0000 0.08500  0.78910  0.47800  Biso   1.000  H
  H127     1.0000 0.58500  0.71090  0.97800  Biso   1.000  H
  H128     1.0000 0.91500  0.21090  0.52200  Biso   1.000  H
  H129     1.0000 0.56200  0.27320  0.03500  Biso   1.000  H
  H130     1.0000 0.93800  0.77320  0.46500  Biso   1.000  H
  H131     1.0000 0.43800  0.72680  0.96500  Biso   1.000  H
  H132     1.0000 0.06200  0.22680  0.53500  Biso   1.000  H
  N21      1.0000 0.53450  0.21505  0.13080  Biso   1.000  N
  N22      1.0000 0.96550  0.71505  0.36920  Biso   1.000  N
  N23      1.0000 0.46550  0.78495  0.86920  Biso   1.000  N
  N24      1.0000 0.03450  0.28495  0.63080  Biso   1.000  N
  O45      1.0000 0.57100  0.22077  0.21629  Biso   1.000  O
  O46      1.0000 0.92900  0.72077  0.28371  Biso   1.000  O
  O47      1.0000 0.42900  0.77923  0.78371  Biso   1.000  O
  O48      1.0000 0.07100  0.27923  0.71629  Biso   1.000  O
  C149     1.0000 0.60210  0.19463  0.08190  Biso   1.000  C
  C150     1.0000 0.89790  0.69463  0.41810  Biso   1.000  C
  C151     1.0000 0.39790  0.80537  0.91810  Biso   1.000  C
  C152     1.0000 0.10210  0.30537  0.58190  Biso   1.000  C
  C153     1.0000 0.72740  0.17560  0.11790  Biso   1.000  C
  C154     1.0000 0.77260  0.67560  0.38210  Biso   1.000  C
  C155     1.0000 0.27260  0.82440  0.88210  Biso   1.000  C
  C156     1.0000 0.22740  0.32440  0.61790  Biso   1.000  C
  C157     1.0000 0.80650  0.17386  0.20690  Biso   1.000  C
  C158     1.0000 0.69350  0.67386  0.29310  Biso   1.000  C
  C159     1.0000 0.19350  0.82614  0.79310  Biso   1.000  C
  C160     1.0000 0.30650  0.32614  0.70690  Biso   1.000  C
  H133     1.0000 0.79000  0.18460  0.25400  Biso   1.000  H
  H134     1.0000 0.71000  0.68460  0.24600  Biso   1.000  H
  H135     1.0000 0.21000  0.81540  0.74600  Biso   1.000  H
  H136     1.0000 0.29000  0.31540  0.75400  Biso   1.000  H
  N25      1.0000 0.91250  0.15244  0.21375  Biso   1.000  N
  N26      1.0000 0.58750  0.65244  0.28625  Biso   1.000  N
  N27      1.0000 0.08750  0.84756  0.78625  Biso   1.000  N
  N28      1.0000 0.41250  0.34756  0.71375  Biso   1.000  N
  N29      1.0000 0.90270  0.14040  0.12713  Biso   1.000  N
  N30      1.0000 0.59730  0.64040  0.37287  Biso   1.000  N
  N31      1.0000 0.09730  0.85960  0.87287  Biso   1.000  N
  N32      1.0000 0.40270  0.35960  0.62713  Biso   1.000  N
  C161     1.0000 0.00200  0.11523  0.10630  Biso   1.000  C
  C162     1.0000 0.49800  0.61523  0.39370  Biso   1.000  C
  C163     1.0000 0.99800  0.88477  0.89370  Biso   1.000  C
  C164     1.0000 0.50200  0.38477  0.60630  Biso   1.000  C
  H137     1.0000 0.96700  0.10460  0.05300  Biso   1.000  H
  H138     1.0000 0.53300  0.60460  0.44700  Biso   1.000  H
  H139     1.0000 0.03300  0.89540  0.94700  Biso   1.000  H
  H140     1.0000 0.46700  0.39540  0.55300  Biso   1.000  H
  H141     1.0000 0.02400  0.09560  0.15600  Biso   1.000  H
  H142     1.0000 0.47600  0.59560  0.34400  Biso   1.000  H
  H143     1.0000 0.97600  0.90440  0.84400  Biso   1.000  H
  H144     1.0000 0.52400  0.40440  0.65600  Biso   1.000  H
  H145     1.0000 0.08200  0.12540  0.10700  Biso   1.000  H
  H146     1.0000 0.41800  0.62540  0.39300  Biso   1.000  H
  H147     1.0000 0.91800  0.87460  0.89300  Biso   1.000  H
  H148     1.0000 0.58200  0.37460  0.60700  Biso   1.000  H
  C165     1.0000 0.79530  0.15369  0.06910  Biso   1.000  C
  C166     1.0000 0.70470  0.65369  0.43090  Biso   1.000  C
  C167     1.0000 0.20470  0.84631  0.93090  Biso   1.000  C
  C168     1.0000 0.29530  0.34631  0.56910  Biso   1.000  C
  H149     1.0000 0.77500  0.14840  0.01000  Biso   1.000  H
  H150     1.0000 0.72500  0.64840  0.49000  Biso   1.000  H
  H151     1.0000 0.22500  0.85160  0.99000  Biso   1.000  H
  H152     1.0000 0.27500  0.35160  0.51000  Biso   1.000  H
