data_image0
_cell_length_a       10.202
_cell_length_b       10.885
_cell_length_c       13.61
_cell_angle_alpha    103
_cell_angle_beta     96.03
_cell_angle_gamma    102.63

_symmetry_space_group_name_H-M    "P 1"
_symmetry_int_tables_number       1

loop_
  _symmetry_equiv_pos_as_xyz
  'x, y, z'

loop_
  _atom_site_label
  _atom_site_occupancy
  _atom_site_fract_x
  _atom_site_fract_y
  _atom_site_fract_z
  _atom_site_thermal_displace_type
  _atom_site_B_iso_or_equiv
  _atom_site_type_symbol
  Cu1      1.0000 0.50000  0.50000  0.50000  Biso   1.000  Cu
  O1       1.0000 0.32620  0.54738  0.50078  Biso   1.000  O
  O2       1.0000 0.67380  0.45262  0.49922  Biso   1.000  O
  C1       1.0000 0.16680  0.66890  0.48730  Biso   1.000  C
  C2       1.0000 0.83320  0.33110  0.51270  Biso   1.000  C
  F1       1.0000 0.15370  0.78760  0.49060  Biso   1.000  F
  F2       1.0000 0.84630  0.21240  0.50940  Biso   1.000  F
  F3       1.0000 0.10990  0.59390  0.39526  Biso   1.000  F
  F4       1.0000 0.89010  0.40610  0.60474  Biso   1.000  F
  F5       1.0000 0.09380  0.62480  0.55320  Biso   1.000  F
  F6       1.0000 0.90620  0.37520  0.44680  Biso   1.000  F
  C3       1.0000 0.31500  0.66250  0.51340  Biso   1.000  C
  C4       1.0000 0.68500  0.33750  0.48660  Biso   1.000  C
  C5       1.0000 0.41370  0.77730  0.54830  Biso   1.000  C
  C6       1.0000 0.58630  0.22270  0.45170  Biso   1.000  C
  H1       1.0000 0.39200  0.85100  0.55600  Biso   1.000  H
  H2       1.0000 0.60800  0.14900  0.44400  Biso   1.000  H
  C7       1.0000 0.54950  0.77850  0.57500  Biso   1.000  C
  C8       1.0000 0.45050  0.22150  0.42500  Biso   1.000  C
  C9       1.0000 0.65090  0.91020  0.61990  Biso   1.000  C
  C10      1.0000 0.34910  0.08980  0.38010  Biso   1.000  C
  F7       1.0000 0.68310  0.93130  0.71840  Biso   1.000  F
  F8       1.0000 0.31690  0.06870  0.28160  Biso   1.000  F
  F9       1.0000 0.76390  0.91610  0.58730  Biso   1.000  F
  F10      1.0000 0.23610  0.08390  0.41270  Biso   1.000  F
  F11      1.0000 0.60830  0.00850  0.60550  Biso   1.000  F
  F12      1.0000 0.39170  0.99150  0.39450  Biso   1.000  F
  O3       1.0000 0.60150  0.68360  0.56748  Biso   1.000  O
  O4       1.0000 0.39850  0.31640  0.43252  Biso   1.000  O
  Cu2      1.0000 0.00000  0.00000  0.00000  Biso   1.000  Cu
  O5       1.0000 0.15037  0.98777  0.92428  Biso   1.000  O
  O6       1.0000 0.84963  0.01223  0.07572  Biso   1.000  O
  C11      1.0000 0.34550  0.93720  0.87010  Biso   1.000  C
  C12      1.0000 0.65450  0.06280  0.12990  Biso   1.000  C
  F13      1.0000 0.28730  0.90710  0.77350  Biso   1.000  F
  F14      1.0000 0.71270  0.09290  0.22650  Biso   1.000  F
  F15      1.0000 0.43020  0.86250  0.87820  Biso   1.000  F
  F16      1.0000 0.56980  0.13750  0.12180  Biso   1.000  F
  F17      1.0000 0.42041  0.05771  0.89075  Biso   1.000  F
  F18      1.0000 0.57959  0.94229  0.10925  Biso   1.000  F
  C13      1.0000 0.23820  0.92600  0.94080  Biso   1.000  C
  C14      1.0000 0.76180  0.07400  0.05920  Biso   1.000  C
  C15      1.0000 0.24860  0.85530  0.01230  Biso   1.000  C
  C16      1.0000 0.75140  0.14470  0.98770  Biso   1.000  C
  H3       1.0000 0.30800  0.81300  0.01500  Biso   1.000  H
  H4       1.0000 0.69200  0.18700  0.98500  Biso   1.000  H
  C17      1.0000 0.15290  0.84070  0.07760  Biso   1.000  C
  C18      1.0000 0.84710  0.15930  0.92240  Biso   1.000  C
  C19      1.0000 0.16900  0.75390  0.14990  Biso   1.000  C
  C20      1.0000 0.83100  0.24610  0.85010  Biso   1.000  C
  F19      1.0000 0.29800  0.75830  0.18051  Biso   1.000  F
  F20      1.0000 0.70200  0.24170  0.81949  Biso   1.000  F
  F21      1.0000 0.11350  0.78490  0.23269  Biso   1.000  F
  F22      1.0000 0.88650  0.21510  0.76731  Biso   1.000  F
  F23      1.0000 0.10670  0.63060  0.10327  Biso   1.000  F
  F24      1.0000 0.89330  0.36940  0.89673  Biso   1.000  F
  O7       1.0000 0.05048  0.88552  0.08289  Biso   1.000  O
  O8       1.0000 0.94952  0.11448  0.91711  Biso   1.000  O
  O9       1.0000 0.49390  0.57159  0.35377  Biso   1.000  O
  O10      1.0000 0.50610  0.42841  0.64623  Biso   1.000  O
  N1       1.0000 0.54850  0.53840  0.27340  Biso   1.000  N
  N2       1.0000 0.45150  0.46160  0.72660  Biso   1.000  N
  C21      1.0000 0.67500  0.62480  0.25470  Biso   1.000  C
  C22      1.0000 0.32500  0.37520  0.74530  Biso   1.000  C
  C23      1.0000 0.78150  0.67040  0.35110  Biso   1.000  C
  C24      1.0000 0.21850  0.32960  0.64890  Biso   1.000  C
  H5       1.0000 0.75000  0.72600  0.40400  Biso   1.000  H
  H6       1.0000 0.25000  0.27400  0.59600  Biso   1.000  H
  H7       1.0000 0.80800  0.60300  0.37500  Biso   1.000  H
  H8       1.0000 0.19200  0.39700  0.62500  Biso   1.000  H
  H9       1.0000 0.86000  0.72000  0.33300  Biso   1.000  H
  H10      1.0000 0.14000  0.28000  0.66700  Biso   1.000  H
  C25      1.0000 0.63060  0.74060  0.22780  Biso   1.000  C
  C26      1.0000 0.36940  0.25940  0.77220  Biso   1.000  C
  H11      1.0000 0.59700  0.77900  0.28300  Biso   1.000  H
  H12      1.0000 0.40300  0.22100  0.71700  Biso   1.000  H
  H13      1.0000 0.71400  0.80000  0.21400  Biso   1.000  H
  H14      1.0000 0.28600  0.20000  0.78600  Biso   1.000  H
  H15      1.0000 0.56500  0.71900  0.16700  Biso   1.000  H
  H16      1.0000 0.43500  0.28100  0.83300  Biso   1.000  H
  C27      1.0000 0.71040  0.53170  0.16280  Biso   1.000  C
  C28      1.0000 0.28960  0.46830  0.83720  Biso   1.000  C
  C29      1.0000 0.75940  0.59480  0.08050  Biso   1.000  C
  C30      1.0000 0.24060  0.40520  0.91950  Biso   1.000  C
  H17      1.0000 0.78200  0.52900  0.03400  Biso   1.000  H
  H18      1.0000 0.21800  0.47100  0.96600  Biso   1.000  H
  H19      1.0000 0.69200  0.63500  0.05100  Biso   1.000  H
  H20      1.0000 0.30800  0.36500  0.94900  Biso   1.000  H
  H21      1.0000 0.83000  0.66000  0.10800  Biso   1.000  H
  H22      1.0000 0.17000  0.34000  0.89200  Biso   1.000  H
  C31      1.0000 0.80520  0.45170  0.19440  Biso   1.000  C
  C32      1.0000 0.19480  0.54830  0.80560  Biso   1.000  C
  H23      1.0000 0.81300  0.38400  0.13800  Biso   1.000  H
  H24      1.0000 0.18700  0.61600  0.86200  Biso   1.000  H
  H25      1.0000 0.88900  0.50600  0.22200  Biso   1.000  H
  H26      1.0000 0.11100  0.49400  0.77800  Biso   1.000  H
  H27      1.0000 0.77300  0.40600  0.24900  Biso   1.000  H
  H28      1.0000 0.22700  0.59400  0.75100  Biso   1.000  H
  N3       1.0000 0.57350  0.43740  0.12123  Biso   1.000  N
  N4       1.0000 0.42650  0.56260  0.87877  Biso   1.000  N
  O11      1.0000 0.54853  0.35748  0.03283  Biso   1.000  O
  O12      1.0000 0.45147  0.64252  0.96717  Biso   1.000  O
  C33      1.0000 0.48940  0.44080  0.19070  Biso   1.000  C
  C34      1.0000 0.51060  0.55920  0.80930  Biso   1.000  C
  C35      1.0000 0.35590  0.35540  0.17990  Biso   1.000  C
  C36      1.0000 0.64410  0.64460  0.82010  Biso   1.000  C
  C37      1.0000 0.29060  0.24250  0.10250  Biso   1.000  C
  C38      1.0000 0.70940  0.75750  0.89750  Biso   1.000  C
  H29      1.0000 0.31900  0.20500  0.04400  Biso   1.000  H
  H30      1.0000 0.68100  0.79500  0.95600  Biso   1.000  H
  N5       1.0000 0.16920  0.18830  0.12108  Biso   1.000  N
  N6       1.0000 0.83080  0.81170  0.87892  Biso   1.000  N
  N7       1.0000 0.15650  0.26590  0.21082  Biso   1.000  N
  N8       1.0000 0.84350  0.73410  0.78918  Biso   1.000  N
  C39      1.0000 0.03840  0.23260  0.25990  Biso   1.000  C
  C40      1.0000 0.96160  0.76740  0.74010  Biso   1.000  C
  H31      1.0000 0.05900  0.27700  0.32600  Biso   1.000  H
  H32      1.0000 0.94100  0.72300  0.67400  Biso   1.000  H
  H33      1.0000 0.97000  0.25200  0.22500  Biso   1.000  H
  H34      1.0000 0.03000  0.74800  0.77500  Biso   1.000  H
  H35      1.0000 0.01500  0.14300  0.25200  Biso   1.000  H
  H36      1.0000 0.98500  0.85700  0.74800  Biso   1.000  H
  C41      1.0000 0.26480  0.36560  0.24750  Biso   1.000  C
  C42      1.0000 0.73520  0.63440  0.75250  Biso   1.000  C
  H37      1.0000 0.26700  0.42200  0.30600  Biso   1.000  H
  H38      1.0000 0.73300  0.57800  0.69400  Biso   1.000  H
