data_image0
_cell_length_a       10.253
_cell_length_b       37.649
_cell_length_c       15.411
_cell_angle_alpha    90
_cell_angle_beta     103.23
_cell_angle_gamma    90

_symmetry_space_group_name_H-M    "P 1"
_symmetry_int_tables_number       1

loop_
  _symmetry_equiv_pos_as_xyz
  'x, y, z'

loop_
  _atom_site_label
  _atom_site_occupancy
  _atom_site_fract_x
  _atom_site_fract_y
  _atom_site_fract_z
  _atom_site_thermal_displace_type
  _atom_site_B_iso_or_equiv
  _atom_site_type_symbol
  Cu1      1.0000 0.06165  0.13185  0.34689  Biso   1.000  Cu
  Cu2      1.0000 0.43835  0.63185  0.15311  Biso   1.000  Cu
  Cu3      1.0000 0.93835  0.86815  0.65311  Biso   1.000  Cu
  Cu4      1.0000 0.56165  0.36815  0.84689  Biso   1.000  Cu
  O1       1.0000 0.99010  0.08327  0.32633  Biso   1.000  O
  O2       1.0000 0.50990  0.58327  0.17367  Biso   1.000  O
  O3       1.0000 0.00990  0.91673  0.67367  Biso   1.000  O
  O4       1.0000 0.49010  0.41673  0.82633  Biso   1.000  O
  C1       1.0000 0.85620  0.03317  0.32810  Biso   1.000  C
  C2       1.0000 0.64380  0.53317  0.17190  Biso   1.000  C
  C3       1.0000 0.14380  0.96683  0.67190  Biso   1.000  C
  C4       1.0000 0.35620  0.46683  0.82810  Biso   1.000  C
  F1       1.0000 0.72720  0.02513  0.31080  Biso   1.000  F
  F2       1.0000 0.77280  0.52513  0.18920  Biso   1.000  F
  F3       1.0000 0.27280  0.97487  0.68920  Biso   1.000  F
  F4       1.0000 0.22720  0.47487  0.81080  Biso   1.000  F
  F5       1.0000 0.91550  0.01475  0.39980  Biso   1.000  F
  F6       1.0000 0.58450  0.51475  0.10020  Biso   1.000  F
  F7       1.0000 0.08450  0.98525  0.60020  Biso   1.000  F
  F8       1.0000 0.41550  0.48525  0.89980  Biso   1.000  F
  F9       1.0000 0.90360  0.02121  0.26120  Biso   1.000  F
  F10      1.0000 0.59640  0.52121  0.23880  Biso   1.000  F
  F11      1.0000 0.09640  0.97879  0.73880  Biso   1.000  F
  F12      1.0000 0.40360  0.47879  0.76120  Biso   1.000  F
  C5       1.0000 0.88290  0.07320  0.34460  Biso   1.000  C
  C6       1.0000 0.61710  0.57320  0.15540  Biso   1.000  C
  C7       1.0000 0.11710  0.92680  0.65540  Biso   1.000  C
  C8       1.0000 0.38290  0.42680  0.84460  Biso   1.000  C
  C9       1.0000 0.79300  0.09239  0.38030  Biso   1.000  C
  C10      1.0000 0.70700  0.59239  0.11970  Biso   1.000  C
  C11      1.0000 0.20700  0.90761  0.61970  Biso   1.000  C
  C12      1.0000 0.29300  0.40761  0.88030  Biso   1.000  C
  H1       1.0000 0.70600  0.07990  0.39500  Biso   1.000  H
  H2       1.0000 0.79400  0.57990  0.10500  Biso   1.000  H
  H3       1.0000 0.29400  0.92010  0.60500  Biso   1.000  H
  H4       1.0000 0.20600  0.42010  0.89500  Biso   1.000  H
  C13      1.0000 0.81590  0.12751  0.40510  Biso   1.000  C
  C14      1.0000 0.68410  0.62751  0.09490  Biso   1.000  C
  C15      1.0000 0.18410  0.87249  0.59490  Biso   1.000  C
  C16      1.0000 0.31590  0.37249  0.90510  Biso   1.000  C
  C17      1.0000 0.71560  0.14683  0.44910  Biso   1.000  C
  C18      1.0000 0.78440  0.64683  0.05090  Biso   1.000  C
  C19      1.0000 0.28440  0.85317  0.55090  Biso   1.000  C
  C20      1.0000 0.21560  0.35317  0.94910  Biso   1.000  C
  F13      1.0000 0.60440  0.12912  0.44550  Biso   1.000  F
  F14      1.0000 0.89560  0.62912  0.05450  Biso   1.000  F
  F15      1.0000 0.39560  0.87088  0.55450  Biso   1.000  F
  F16      1.0000 0.10440  0.37088  0.94550  Biso   1.000  F
  F17      1.0000 0.77110  0.15333  0.53440  Biso   1.000  F
  F18      1.0000 0.72890  0.65333  0.96560  Biso   1.000  F
  F19      1.0000 0.22890  0.84667  0.46560  Biso   1.000  F
  F20      1.0000 0.27110  0.34667  0.03440  Biso   1.000  F
  F21      1.0000 0.68240  0.17818  0.41150  Biso   1.000  F
  F22      1.0000 0.81760  0.67818  0.08850  Biso   1.000  F
  F23      1.0000 0.31760  0.82182  0.58850  Biso   1.000  F
  F24      1.0000 0.18240  0.32182  0.91150  Biso   1.000  F
  O5       1.0000 0.91430  0.14689  0.40023  Biso   1.000  O
  O6       1.0000 0.58570  0.64689  0.09977  Biso   1.000  O
  O7       1.0000 0.08570  0.85311  0.59977  Biso   1.000  O
  O8       1.0000 0.41430  0.35311  0.90023  Biso   1.000  O
  O9       1.0000 0.13730  0.17980  0.37108  Biso   1.000  O
  O10      1.0000 0.36270  0.67980  0.12892  Biso   1.000  O
  O11      1.0000 0.86270  0.82020  0.62892  Biso   1.000  O
  O12      1.0000 0.63730  0.32020  0.87108  Biso   1.000  O
  C21      1.0000 0.27510  0.22938  0.37240  Biso   1.000  C
  C22      1.0000 0.22490  0.72938  0.12760  Biso   1.000  C
  C23      1.0000 0.72490  0.77062  0.62760  Biso   1.000  C
  C24      1.0000 0.77510  0.27062  0.87240  Biso   1.000  C
  F25      1.0000 0.24970  0.23874  0.45010  Biso   1.000  F
  F26      1.0000 0.25030  0.73874  0.04990  Biso   1.000  F
  F27      1.0000 0.75030  0.76126  0.54990  Biso   1.000  F
  F28      1.0000 0.74970  0.26126  0.95010  Biso   1.000  F
  F29      1.0000 0.20370  0.25008  0.31170  Biso   1.000  F
  F30      1.0000 0.29630  0.75008  0.18830  Biso   1.000  F
  F31      1.0000 0.79630  0.74992  0.68830  Biso   1.000  F
  F32      1.0000 0.70370  0.24992  0.81170  Biso   1.000  F
  F33      1.0000 0.40290  0.23691  0.37810  Biso   1.000  F
  F34      1.0000 0.09710  0.73691  0.12190  Biso   1.000  F
  F35      1.0000 0.59710  0.76309  0.62190  Biso   1.000  F
  F36      1.0000 0.90290  0.26309  0.87810  Biso   1.000  F
  C25      1.0000 0.24090  0.19040  0.34920  Biso   1.000  C
  C26      1.0000 0.25910  0.69040  0.15080  Biso   1.000  C
  C27      1.0000 0.75910  0.80960  0.65080  Biso   1.000  C
  C28      1.0000 0.74090  0.30960  0.84920  Biso   1.000  C
  C29      1.0000 0.32360  0.17181  0.30450  Biso   1.000  C
  C30      1.0000 0.17640  0.67181  0.19550  Biso   1.000  C
  C31      1.0000 0.67640  0.82819  0.69550  Biso   1.000  C
  C32      1.0000 0.82360  0.32819  0.80450  Biso   1.000  C
  H5       1.0000 0.39800  0.18410  0.28800  Biso   1.000  H
  H6       1.0000 0.10200  0.68410  0.21200  Biso   1.000  H
  H7       1.0000 0.60200  0.81590  0.71200  Biso   1.000  H
  H8       1.0000 0.89800  0.31590  0.78800  Biso   1.000  H
  C33      1.0000 0.29830  0.13677  0.27880  Biso   1.000  C
  C34      1.0000 0.20170  0.63677  0.22120  Biso   1.000  C
  C35      1.0000 0.70170  0.86323  0.72120  Biso   1.000  C
  C36      1.0000 0.79830  0.36323  0.77880  Biso   1.000  C
  C37      1.0000 0.39460  0.11812  0.23030  Biso   1.000  C
  C38      1.0000 0.10540  0.61812  0.26970  Biso   1.000  C
  C39      1.0000 0.60540  0.88188  0.76970  Biso   1.000  C
  C40      1.0000 0.89460  0.38188  0.73030  Biso   1.000  C
  F37      1.0000 0.33050  0.10546  0.15460  Biso   1.000  F
  F38      1.0000 0.16950  0.60546  0.34540  Biso   1.000  F
  F39      1.0000 0.66950  0.89454  0.84540  Biso   1.000  F
  F40      1.0000 0.83050  0.39454  0.65460  Biso   1.000  F
  F41      1.0000 0.49240  0.13779  0.21840  Biso   1.000  F
  F42      1.0000 0.00760  0.63779  0.28160  Biso   1.000  F
  F43      1.0000 0.50760  0.86221  0.78160  Biso   1.000  F
  F44      1.0000 0.99240  0.36221  0.71840  Biso   1.000  F
  F45      1.0000 0.45130  0.09040  0.27710  Biso   1.000  F
  F46      1.0000 0.04870  0.59040  0.22290  Biso   1.000  F
  F47      1.0000 0.54870  0.90960  0.72290  Biso   1.000  F
  F48      1.0000 0.95130  0.40960  0.77710  Biso   1.000  F
  O13      1.0000 0.20460  0.11717  0.29007  Biso   1.000  O
  O14      1.0000 0.29540  0.61717  0.20993  Biso   1.000  O
  O15      1.0000 0.79540  0.88283  0.70993  Biso   1.000  O
  O16      1.0000 0.70460  0.38283  0.79007  Biso   1.000  O
  Cu5      1.0000 0.53421  0.11994  0.84726  Biso   1.000  Cu
  Cu6      1.0000 0.96579  0.61994  0.65274  Biso   1.000  Cu
  Cu7      1.0000 0.46579  0.88006  0.15274  Biso   1.000  Cu
  Cu8      1.0000 0.03421  0.38006  0.34726  Biso   1.000  Cu
  O17      1.0000 0.35530  0.10568  0.85848  Biso   1.000  O
  O18      1.0000 0.14470  0.60568  0.64152  Biso   1.000  O
  O19      1.0000 0.64470  0.89432  0.14152  Biso   1.000  O
  O20      1.0000 0.85530  0.39432  0.35848  Biso   1.000  O
  C41      1.0000 0.18790  0.07075  0.89250  Biso   1.000  C
  C42      1.0000 0.31210  0.57075  0.60750  Biso   1.000  C
  C43      1.0000 0.81210  0.92925  0.10750  Biso   1.000  C
  C44      1.0000 0.68790  0.42925  0.39250  Biso   1.000  C
  F49      1.0000 0.16570  0.04077  0.92790  Biso   1.000  F
  F50      1.0000 0.33430  0.54077  0.57210  Biso   1.000  F
  F51      1.0000 0.83430  0.95923  0.07210  Biso   1.000  F
  F52      1.0000 0.66570  0.45923  0.42790  Biso   1.000  F
  F53      1.0000 0.12000  0.09462  0.92360  Biso   1.000  F
  F54      1.0000 0.38000  0.59462  0.57640  Biso   1.000  F
  F55      1.0000 0.88000  0.90538  0.07640  Biso   1.000  F
  F56      1.0000 0.62000  0.40538  0.42360  Biso   1.000  F
  F57      1.0000 0.12870  0.06847  0.80810  Biso   1.000  F
  F58      1.0000 0.37130  0.56847  0.69190  Biso   1.000  F
  F59      1.0000 0.87130  0.93153  0.19190  Biso   1.000  F
  F60      1.0000 0.62870  0.43153  0.30810  Biso   1.000  F
  C45      1.0000 0.33370  0.08107  0.90840  Biso   1.000  C
  C46      1.0000 0.16630  0.58107  0.59160  Biso   1.000  C
  C47      1.0000 0.66630  0.91893  0.09160  Biso   1.000  C
  C48      1.0000 0.83370  0.41893  0.40840  Biso   1.000  C
  C49      1.0000 0.42610  0.06329  0.97390  Biso   1.000  C
  C50      1.0000 0.07390  0.56329  0.52610  Biso   1.000  C
  C51      1.0000 0.57390  0.93671  0.02610  Biso   1.000  C
  C52      1.0000 0.92610  0.43671  0.47390  Biso   1.000  C
  H9       1.0000 0.39400  0.04690  0.99800  Biso   1.000  H
  H10      1.0000 0.10600  0.54690  0.50200  Biso   1.000  H
  H11      1.0000 0.60600  0.95310  0.00200  Biso   1.000  H
  H12      1.0000 0.89400  0.45310  0.49800  Biso   1.000  H
  C53      1.0000 0.56060  0.07129  0.99290  Biso   1.000  C
  C54      1.0000 0.93940  0.57129  0.50710  Biso   1.000  C
  C55      1.0000 0.43940  0.92871  0.00710  Biso   1.000  C
  C56      1.0000 0.06060  0.42871  0.49290  Biso   1.000  C
  C57      1.0000 0.65480  0.05181  0.07060  Biso   1.000  C
  C58      1.0000 0.84520  0.55181  0.42940  Biso   1.000  C
  C59      1.0000 0.34520  0.94819  0.92940  Biso   1.000  C
  C60      1.0000 0.15480  0.44819  0.57060  Biso   1.000  C
  F61      1.0000 0.75940  0.04022  0.04930  Biso   1.000  F
  F62      1.0000 0.74060  0.54022  0.45070  Biso   1.000  F
  F63      1.0000 0.24060  0.95978  0.95070  Biso   1.000  F
  F64      1.0000 0.25940  0.45978  0.54930  Biso   1.000  F
  F65      1.0000 0.69650  0.07441  0.13680  Biso   1.000  F
  F66      1.0000 0.80350  0.57441  0.36320  Biso   1.000  F
  F67      1.0000 0.30350  0.92559  0.86320  Biso   1.000  F
  F68      1.0000 0.19650  0.42559  0.63680  Biso   1.000  F
  F69      1.0000 0.60180  0.02509  0.10190  Biso   1.000  F
  F70      1.0000 0.89820  0.52509  0.39810  Biso   1.000  F
  F71      1.0000 0.39820  0.97491  0.89810  Biso   1.000  F
  F72      1.0000 0.10180  0.47491  0.60190  Biso   1.000  F
  O21      1.0000 0.61960  0.09321  0.95367  Biso   1.000  O
  O22      1.0000 0.88040  0.59321  0.54633  Biso   1.000  O
  O23      1.0000 0.38040  0.90679  0.04633  Biso   1.000  O
  O24      1.0000 0.11960  0.40679  0.45367  Biso   1.000  O
  O25      1.0000 0.45080  0.15022  0.74584  Biso   1.000  O
  O26      1.0000 0.04920  0.65022  0.75416  Biso   1.000  O
  O27      1.0000 0.54920  0.84978  0.25416  Biso   1.000  O
  O28      1.0000 0.95080  0.34978  0.24584  Biso   1.000  O
  C61      1.0000 0.42810  0.19386  0.63570  Biso   1.000  C
  C62      1.0000 0.07190  0.69386  0.86430  Biso   1.000  C
  C63      1.0000 0.57190  0.80614  0.36430  Biso   1.000  C
  C64      1.0000 0.92810  0.30614  0.13570  Biso   1.000  C
  F73      1.0000 0.31100  0.19824  0.64660  Biso   1.000  F
  F74      1.0000 0.18900  0.69824  0.85340  Biso   1.000  F
  F75      1.0000 0.68900  0.80176  0.35340  Biso   1.000  F
  F76      1.0000 0.81100  0.30176  0.14660  Biso   1.000  F
  F77      1.0000 0.47160  0.22404  0.62670  Biso   1.000  F
  F78      1.0000 0.02840  0.72404  0.87330  Biso   1.000  F
  F79      1.0000 0.52840  0.77596  0.37330  Biso   1.000  F
  F80      1.0000 0.97160  0.27596  0.12670  Biso   1.000  F
  F81      1.0000 0.40430  0.17827  0.55990  Biso   1.000  F
  F82      1.0000 0.09570  0.67827  0.94010  Biso   1.000  F
  F83      1.0000 0.59570  0.82173  0.44010  Biso   1.000  F
  F84      1.0000 0.90430  0.32173  0.05990  Biso   1.000  F
  C65      1.0000 0.51490  0.17095  0.70700  Biso   1.000  C
  C66      1.0000 0.98510  0.67095  0.79300  Biso   1.000  C
  C67      1.0000 0.48510  0.82905  0.29300  Biso   1.000  C
  C68      1.0000 0.01490  0.32905  0.20700  Biso   1.000  C
  C69      1.0000 0.65100  0.17488  0.72090  Biso   1.000  C
  C70      1.0000 0.84900  0.67488  0.77910  Biso   1.000  C
  C71      1.0000 0.34900  0.82512  0.27910  Biso   1.000  C
  C72      1.0000 0.15100  0.32512  0.22090  Biso   1.000  C
  H13      1.0000 0.69100  0.19230  0.67700  Biso   1.000  H
  H14      1.0000 0.80900  0.69230  0.82300  Biso   1.000  H
  H15      1.0000 0.30900  0.80770  0.32300  Biso   1.000  H
  H16      1.0000 0.19100  0.30770  0.17700  Biso   1.000  H
  C73      1.0000 0.74060  0.15500  0.78370  Biso   1.000  C
  C74      1.0000 0.75940  0.65500  0.71630  Biso   1.000  C
  C75      1.0000 0.25940  0.84500  0.21630  Biso   1.000  C
  C76      1.0000 0.24060  0.34500  0.28370  Biso   1.000  C
  C77      1.0000 0.88940  0.16159  0.79700  Biso   1.000  C
  C78      1.0000 0.61060  0.66159  0.70300  Biso   1.000  C
  C79      1.0000 0.11060  0.83841  0.20300  Biso   1.000  C
  C80      1.0000 0.38940  0.33841  0.29700  Biso   1.000  C
  F85      1.0000 0.91960  0.18884  0.75210  Biso   1.000  F
  F86      1.0000 0.58040  0.68884  0.74790  Biso   1.000  F
  F87      1.0000 0.08040  0.81116  0.24790  Biso   1.000  F
  F88      1.0000 0.41960  0.31116  0.25210  Biso   1.000  F
  F89      1.0000 0.94650  0.16650  0.87960  Biso   1.000  F
  F90      1.0000 0.55350  0.66650  0.62040  Biso   1.000  F
  F91      1.0000 0.05350  0.83350  0.12040  Biso   1.000  F
  F92      1.0000 0.44650  0.33350  0.37960  Biso   1.000  F
  F93      1.0000 0.94680  0.13373  0.76930  Biso   1.000  F
  F94      1.0000 0.55320  0.63373  0.73070  Biso   1.000  F
  F95      1.0000 0.05320  0.86627  0.23070  Biso   1.000  F
  F96      1.0000 0.44680  0.36627  0.26930  Biso   1.000  F
  O29      1.0000 0.71330  0.13073  0.83452  Biso   1.000  O
  O30      1.0000 0.78670  0.63073  0.66548  Biso   1.000  O
  O31      1.0000 0.28670  0.86927  0.16548  Biso   1.000  O
  O32      1.0000 0.21330  0.36927  0.33452  Biso   1.000  O
  O33      1.0000 0.51300  0.06496  0.76708  Biso   1.000  O
  O34      1.0000 0.98700  0.56496  0.73292  Biso   1.000  O
  O35      1.0000 0.48700  0.93504  0.23292  Biso   1.000  O
  O36      1.0000 0.01300  0.43504  0.26708  Biso   1.000  O
  N1       1.0000 0.56280  0.05461  0.70210  Biso   1.000  N
  N2       1.0000 0.93720  0.55461  0.79790  Biso   1.000  N
  N3       1.0000 0.43720  0.94539  0.29790  Biso   1.000  N
  N4       1.0000 0.06280  0.44539  0.20210  Biso   1.000  N
  C81      1.0000 0.67530  0.02807  0.71550  Biso   1.000  C
  C82      1.0000 0.82470  0.52807  0.78450  Biso   1.000  C
  C83      1.0000 0.32470  0.97193  0.28450  Biso   1.000  C
  C84      1.0000 0.17530  0.47193  0.21550  Biso   1.000  C
  C85      1.0000 0.61320  0.99223  0.72960  Biso   1.000  C
  C86      1.0000 0.88680  0.49223  0.77040  Biso   1.000  C
  C87      1.0000 0.38680  0.00777  0.27040  Biso   1.000  C
  C88      1.0000 0.11320  0.50777  0.22960  Biso   1.000  C
  H17      1.0000 0.57900  0.99920  0.78300  Biso   1.000  H
  H18      1.0000 0.92100  0.49920  0.71700  Biso   1.000  H
  H19      1.0000 0.42100  0.00080  0.21700  Biso   1.000  H
  H20      1.0000 0.07900  0.50080  0.28300  Biso   1.000  H
  H21      1.0000 0.71200  0.98300  0.75400  Biso   1.000  H
  H22      1.0000 0.78800  0.48300  0.74600  Biso   1.000  H
  H23      1.0000 0.28800  0.01700  0.24600  Biso   1.000  H
  H24      1.0000 0.21200  0.51700  0.25400  Biso   1.000  H
  H25      1.0000 0.54700  0.98470  0.68100  Biso   1.000  H
  H26      1.0000 0.95300  0.48470  0.81900  Biso   1.000  H
  H27      1.0000 0.45300  0.01530  0.31900  Biso   1.000  H
  H28      1.0000 0.04700  0.51530  0.18100  Biso   1.000  H
  C89      1.0000 0.78420  0.03869  0.79700  Biso   1.000  C
  C90      1.0000 0.71580  0.53869  0.70300  Biso   1.000  C
  C91      1.0000 0.21580  0.96131  0.20300  Biso   1.000  C
  C92      1.0000 0.28420  0.46131  0.29700  Biso   1.000  C
  H29      1.0000 0.73700  0.03740  0.84800  Biso   1.000  H
  H30      1.0000 0.76300  0.53740  0.65200  Biso   1.000  H
  H31      1.0000 0.26300  0.96260  0.15200  Biso   1.000  H
  H32      1.0000 0.23700  0.46260  0.34800  Biso   1.000  H
  H33      1.0000 0.82800  0.06500  0.79100  Biso   1.000  H
  H34      1.0000 0.67200  0.56500  0.70900  Biso   1.000  H
  H35      1.0000 0.17200  0.93500  0.20900  Biso   1.000  H
  H36      1.0000 0.32800  0.43500  0.29100  Biso   1.000  H
  H37      1.0000 0.85300  0.02220  0.80400  Biso   1.000  H
  H38      1.0000 0.64700  0.52220  0.69600  Biso   1.000  H
  H39      1.0000 0.14700  0.97780  0.19600  Biso   1.000  H
  H40      1.0000 0.35300  0.47780  0.30400  Biso   1.000  H
  C93      1.0000 0.71490  0.03054  0.62400  Biso   1.000  C
  C94      1.0000 0.78510  0.53054  0.87600  Biso   1.000  C
  C95      1.0000 0.28510  0.96946  0.37600  Biso   1.000  C
  C96      1.0000 0.21490  0.46946  0.12400  Biso   1.000  C
  C97      1.0000 0.82560  0.05781  0.62170  Biso   1.000  C
  C98      1.0000 0.67440  0.55781  0.87830  Biso   1.000  C
  C99      1.0000 0.17440  0.94219  0.37830  Biso   1.000  C
  C100     1.0000 0.32560  0.44219  0.12170  Biso   1.000  C
  H41      1.0000 0.83600  0.06380  0.56600  Biso   1.000  H
  H42      1.0000 0.66400  0.56380  0.93400  Biso   1.000  H
  H43      1.0000 0.16400  0.93620  0.43400  Biso   1.000  H
  H44      1.0000 0.33600  0.43620  0.06600  Biso   1.000  H
  H45      1.0000 0.90100  0.05130  0.66100  Biso   1.000  H
  H46      1.0000 0.59900  0.55130  0.83900  Biso   1.000  H
  H47      1.0000 0.09900  0.94870  0.33900  Biso   1.000  H
  H48      1.0000 0.40100  0.44870  0.16100  Biso   1.000  H
  H49      1.0000 0.80100  0.07650  0.64200  Biso   1.000  H
  H50      1.0000 0.69900  0.57650  0.85800  Biso   1.000  H
  H51      1.0000 0.19900  0.92350  0.35800  Biso   1.000  H
  H52      1.0000 0.30100  0.42350  0.14200  Biso   1.000  H
  C101     1.0000 0.74380  0.99550  0.58290  Biso   1.000  C
  C102     1.0000 0.75620  0.49550  0.91710  Biso   1.000  C
  C103     1.0000 0.25620  0.00450  0.41710  Biso   1.000  C
  C104     1.0000 0.24380  0.50450  0.08290  Biso   1.000  C
  H53      1.0000 0.76900  0.00250  0.52300  Biso   1.000  H
  H54      1.0000 0.73100  0.50250  0.97700  Biso   1.000  H
  H55      1.0000 0.23100  0.99750  0.47700  Biso   1.000  H
  H56      1.0000 0.26900  0.49750  0.02300  Biso   1.000  H
  H57      1.0000 0.66100  0.97960  0.57800  Biso   1.000  H
  H58      1.0000 0.83900  0.47960  0.92200  Biso   1.000  H
  H59      1.0000 0.33900  0.02040  0.42200  Biso   1.000  H
  H60      1.0000 0.16100  0.52040  0.07800  Biso   1.000  H
  H61      1.0000 0.80200  0.98330  0.62000  Biso   1.000  H
  H62      1.0000 0.69800  0.48330  0.88000  Biso   1.000  H
  H63      1.0000 0.19800  0.01670  0.38000  Biso   1.000  H
  H64      1.0000 0.30200  0.51670  0.12000  Biso   1.000  H
  N5       1.0000 0.58880  0.04598  0.56602  Biso   1.000  N
  N6       1.0000 0.91120  0.54598  0.93398  Biso   1.000  N
  N7       1.0000 0.41120  0.95402  0.43398  Biso   1.000  N
  N8       1.0000 0.08880  0.45402  0.06602  Biso   1.000  N
  O37      1.0000 0.56800  0.04733  0.48132  Biso   1.000  O
  O38      1.0000 0.93200  0.54733  0.01868  Biso   1.000  O
  O39      1.0000 0.43200  0.95267  0.51868  Biso   1.000  O
  O40      1.0000 0.06800  0.45267  0.98132  Biso   1.000  O
  C105     1.0000 0.50970  0.06086  0.61500  Biso   1.000  C
  C106     1.0000 0.99030  0.56086  0.88500  Biso   1.000  C
  C107     1.0000 0.49030  0.93914  0.38500  Biso   1.000  C
  C108     1.0000 0.00970  0.43914  0.11500  Biso   1.000  C
  C109     1.0000 0.38720  0.08016  0.58120  Biso   1.000  C
  C110     1.0000 0.11280  0.58016  0.91880  Biso   1.000  C
  C111     1.0000 0.61280  0.91984  0.41880  Biso   1.000  C
  C112     1.0000 0.88720  0.41984  0.08120  Biso   1.000  C
  C113     1.0000 0.32940  0.09154  0.49350  Biso   1.000  C
  C114     1.0000 0.17060  0.59154  0.00650  Biso   1.000  C
  C115     1.0000 0.67060  0.90846  0.50650  Biso   1.000  C
  C116     1.0000 0.82940  0.40846  0.99350  Biso   1.000  C
  H65      1.0000 0.36900  0.09070  0.44200  Biso   1.000  H
  H66      1.0000 0.13100  0.59070  0.05800  Biso   1.000  H
  H67      1.0000 0.63100  0.90930  0.55800  Biso   1.000  H
  H68      1.0000 0.86900  0.40930  0.94200  Biso   1.000  H
  N9       1.0000 0.21680  0.10902  0.48900  Biso   1.000  N
  N10      1.0000 0.28320  0.60902  0.01100  Biso   1.000  N
  N11      1.0000 0.78320  0.89098  0.51100  Biso   1.000  N
  N12      1.0000 0.71680  0.39098  0.98900  Biso   1.000  N
  N13      1.0000 0.20020  0.10919  0.57490  Biso   1.000  N
  N14      1.0000 0.29980  0.60919  0.92510  Biso   1.000  N
  N15      1.0000 0.79980  0.89081  0.42510  Biso   1.000  N
  N16      1.0000 0.70020  0.39081  0.07490  Biso   1.000  N
  C117     1.0000 0.08820  0.12782  0.59710  Biso   1.000  C
  C118     1.0000 0.41180  0.62782  0.90290  Biso   1.000  C
  C119     1.0000 0.91180  0.87218  0.40290  Biso   1.000  C
  C120     1.0000 0.58820  0.37218  0.09710  Biso   1.000  C
  H69      1.0000 0.09800  0.12810  0.64800  Biso   1.000  H
  H70      1.0000 0.40200  0.62810  0.85200  Biso   1.000  H
  H71      1.0000 0.90200  0.87190  0.35200  Biso   1.000  H
  H72      1.0000 0.59800  0.37190  0.14800  Biso   1.000  H
  H73      1.0000 0.01100  0.11400  0.58700  Biso   1.000  H
  H74      1.0000 0.48900  0.61400  0.91300  Biso   1.000  H
  H75      1.0000 0.98900  0.88600  0.41300  Biso   1.000  H
  H76      1.0000 0.51100  0.38600  0.08700  Biso   1.000  H
  H77      1.0000 0.06700  0.14590  0.55900  Biso   1.000  H
  H78      1.0000 0.43300  0.64590  0.94100  Biso   1.000  H
  H79      1.0000 0.93300  0.85410  0.44100  Biso   1.000  H
  H80      1.0000 0.56700  0.35410  0.05900  Biso   1.000  H
  C121     1.0000 0.29910  0.09252  0.63060  Biso   1.000  C
  C122     1.0000 0.20090  0.59252  0.86940  Biso   1.000  C
  C123     1.0000 0.70090  0.90748  0.36940  Biso   1.000  C
  C124     1.0000 0.79910  0.40748  0.13060  Biso   1.000  C
  H81      1.0000 0.29900  0.08660  0.68700  Biso   1.000  H
  H82      1.0000 0.20100  0.58660  0.81300  Biso   1.000  H
  H83      1.0000 0.70100  0.91340  0.31300  Biso   1.000  H
  H84      1.0000 0.79900  0.41340  0.18700  Biso   1.000  H
  O41      1.0000 0.56680  0.17739  0.92517  Biso   1.000  O
  O42      1.0000 0.93320  0.67739  0.57483  Biso   1.000  O
  O43      1.0000 0.43320  0.82261  0.07483  Biso   1.000  O
  O44      1.0000 0.06680  0.32261  0.42517  Biso   1.000  O
  N17      1.0000 0.53180  0.19419  0.98940  Biso   1.000  N
  N18      1.0000 0.96820  0.69419  0.51060  Biso   1.000  N
  N19      1.0000 0.46820  0.80581  0.01060  Biso   1.000  N
  N20      1.0000 0.03180  0.30581  0.48940  Biso   1.000  N
  C125     1.0000 0.40040  0.21319  0.97580  Biso   1.000  C
  C126     1.0000 0.09960  0.71319  0.52420  Biso   1.000  C
  C127     1.0000 0.59960  0.78681  0.02420  Biso   1.000  C
  C128     1.0000 0.90040  0.28681  0.47580  Biso   1.000  C
  C129     1.0000 0.37710  0.23500  0.88990  Biso   1.000  C
  C130     1.0000 0.12290  0.73500  0.61010  Biso   1.000  C
  C131     1.0000 0.62290  0.76500  0.11010  Biso   1.000  C
  C132     1.0000 0.87710  0.26500  0.38990  Biso   1.000  C
  H85      1.0000 0.35700  0.21320  0.84700  Biso   1.000  H
  H86      1.0000 0.14300  0.71320  0.65300  Biso   1.000  H
  H87      1.0000 0.64300  0.78680  0.15300  Biso   1.000  H
  H88      1.0000 0.85700  0.28680  0.34700  Biso   1.000  H
  H89      1.0000 0.43900  0.25170  0.90900  Biso   1.000  H
  H90      1.0000 0.06100  0.75170  0.59100  Biso   1.000  H
  H91      1.0000 0.56100  0.74830  0.09100  Biso   1.000  H
  H92      1.0000 0.93900  0.24830  0.40900  Biso   1.000  H
  H93      1.0000 0.31100  0.24910  0.89100  Biso   1.000  H
  H94      1.0000 0.18900  0.74910  0.60900  Biso   1.000  H
  H95      1.0000 0.68900  0.75090  0.10900  Biso   1.000  H
  H96      1.0000 0.81100  0.25090  0.39100  Biso   1.000  H
  C133     1.0000 0.29410  0.18406  0.96980  Biso   1.000  C
  C134     1.0000 0.20590  0.68406  0.53020  Biso   1.000  C
  C135     1.0000 0.70590  0.81594  0.03020  Biso   1.000  C
  C136     1.0000 0.79410  0.31594  0.46980  Biso   1.000  C
  H97      1.0000 0.27500  0.16950  0.90700  Biso   1.000  H
  H98      1.0000 0.22500  0.66950  0.59300  Biso   1.000  H
  H99      1.0000 0.72500  0.83050  0.09300  Biso   1.000  H
  H100     1.0000 0.77500  0.33050  0.40700  Biso   1.000  H
  H101     1.0000 0.20900  0.19800  0.95000  Biso   1.000  H
  H102     1.0000 0.29100  0.69800  0.55000  Biso   1.000  H
  H103     1.0000 0.79100  0.80200  0.05000  Biso   1.000  H
  H104     1.0000 0.70900  0.30200  0.45000  Biso   1.000  H
  H105     1.0000 0.31500  0.16310  0.02900  Biso   1.000  H
  H106     1.0000 0.18500  0.66310  0.47100  Biso   1.000  H
  H107     1.0000 0.68500  0.83690  0.97100  Biso   1.000  H
  H108     1.0000 0.81500  0.33690  0.52900  Biso   1.000  H
  C137     1.0000 0.42400  0.23508  0.06380  Biso   1.000  C
  C138     1.0000 0.07600  0.73508  0.43620  Biso   1.000  C
  C139     1.0000 0.57600  0.76492  0.93620  Biso   1.000  C
  C140     1.0000 0.92400  0.26492  0.56380  Biso   1.000  C
  C141     1.0000 0.30260  0.23791  0.10560  Biso   1.000  C
  C142     1.0000 0.19740  0.73791  0.39440  Biso   1.000  C
  C143     1.0000 0.69740  0.76209  0.89440  Biso   1.000  C
  C144     1.0000 0.80260  0.26209  0.60560  Biso   1.000  C
  H109     1.0000 0.34300  0.24960  0.15700  Biso   1.000  H
  H110     1.0000 0.15700  0.74960  0.34300  Biso   1.000  H
  H111     1.0000 0.65700  0.75040  0.84300  Biso   1.000  H
  H112     1.0000 0.84300  0.25040  0.65700  Biso   1.000  H
  H113     1.0000 0.27300  0.21170  0.12300  Biso   1.000  H
  H114     1.0000 0.22700  0.71170  0.37700  Biso   1.000  H
  H115     1.0000 0.72700  0.78830  0.87700  Biso   1.000  H
  H116     1.0000 0.77300  0.28830  0.62300  Biso   1.000  H
  H117     1.0000 0.23400  0.24490  0.05900  Biso   1.000  H
  H118     1.0000 0.26600  0.74490  0.44100  Biso   1.000  H
  H119     1.0000 0.76600  0.75510  0.94100  Biso   1.000  H
  H120     1.0000 0.73400  0.25510  0.55900  Biso   1.000  H
  C145     1.0000 0.48430  0.27212  0.05730  Biso   1.000  C
  C146     1.0000 0.01570  0.77212  0.44270  Biso   1.000  C
  C147     1.0000 0.51570  0.72788  0.94270  Biso   1.000  C
  C148     1.0000 0.98430  0.22788  0.55730  Biso   1.000  C
  H121     1.0000 0.51800  0.28110  0.11900  Biso   1.000  H
  H122     1.0000 0.98200  0.78110  0.38100  Biso   1.000  H
  H123     1.0000 0.48200  0.71890  0.88100  Biso   1.000  H
  H124     1.0000 0.01800  0.21890  0.61900  Biso   1.000  H
  H125     1.0000 0.40400  0.28690  0.00900  Biso   1.000  H
  H126     1.0000 0.09600  0.78690  0.49100  Biso   1.000  H
  H127     1.0000 0.59600  0.71310  0.99100  Biso   1.000  H
  H128     1.0000 0.90400  0.21310  0.50900  Biso   1.000  H
  H129     1.0000 0.57600  0.27450  0.03900  Biso   1.000  H
  H130     1.0000 0.92400  0.77450  0.46100  Biso   1.000  H
  H131     1.0000 0.42400  0.72550  0.96100  Biso   1.000  H
  H132     1.0000 0.07600  0.22550  0.53900  Biso   1.000  H
  N21      1.0000 0.53170  0.21402  0.12340  Biso   1.000  N
  N22      1.0000 0.96830  0.71402  0.37660  Biso   1.000  N
  N23      1.0000 0.46830  0.78598  0.87660  Biso   1.000  N
  N24      1.0000 0.03170  0.28598  0.62340  Biso   1.000  N
  O45      1.0000 0.56620  0.21877  0.20750  Biso   1.000  O
  O46      1.0000 0.93380  0.71877  0.29250  Biso   1.000  O
  O47      1.0000 0.43380  0.78123  0.79250  Biso   1.000  O
  O48      1.0000 0.06620  0.28123  0.70750  Biso   1.000  O
  C149     1.0000 0.59910  0.19377  0.07460  Biso   1.000  C
  C150     1.0000 0.90090  0.69377  0.42540  Biso   1.000  C
  C151     1.0000 0.40090  0.80623  0.92540  Biso   1.000  C
  C152     1.0000 0.09910  0.30623  0.57460  Biso   1.000  C
  C153     1.0000 0.72210  0.17530  0.10950  Biso   1.000  C
  C154     1.0000 0.77790  0.67530  0.39050  Biso   1.000  C
  C155     1.0000 0.27790  0.82470  0.89050  Biso   1.000  C
  C156     1.0000 0.22210  0.32470  0.60950  Biso   1.000  C
  C157     1.0000 0.79970  0.17301  0.19710  Biso   1.000  C
  C158     1.0000 0.70030  0.67301  0.30290  Biso   1.000  C
  C159     1.0000 0.20030  0.82699  0.80290  Biso   1.000  C
  C160     1.0000 0.29970  0.32699  0.69710  Biso   1.000  C
  H133     1.0000 0.77900  0.18610  0.24200  Biso   1.000  H
  H134     1.0000 0.72100  0.68610  0.25800  Biso   1.000  H
  H135     1.0000 0.22100  0.81390  0.75800  Biso   1.000  H
  H136     1.0000 0.27900  0.31390  0.74200  Biso   1.000  H
  N25      1.0000 0.90550  0.15255  0.20310  Biso   1.000  N
  N26      1.0000 0.59450  0.65255  0.29690  Biso   1.000  N
  N27      1.0000 0.09450  0.84745  0.79690  Biso   1.000  N
  N28      1.0000 0.40550  0.34745  0.70310  Biso   1.000  N
  N29      1.0000 0.89890  0.14148  0.11810  Biso   1.000  N
  N30      1.0000 0.60110  0.64148  0.38190  Biso   1.000  N
  N31      1.0000 0.10110  0.85852  0.88190  Biso   1.000  N
  N32      1.0000 0.39890  0.35852  0.61810  Biso   1.000  N
  C161     1.0000 0.99980  0.11710  0.09840  Biso   1.000  C
  C162     1.0000 0.50020  0.61710  0.40160  Biso   1.000  C
  C163     1.0000 0.00020  0.88290  0.90160  Biso   1.000  C
  C164     1.0000 0.49980  0.38290  0.59840  Biso   1.000  C
  H137     1.0000 0.95100  0.10400  0.04600  Biso   1.000  H
  H138     1.0000 0.54900  0.60400  0.45400  Biso   1.000  H
  H139     1.0000 0.04900  0.89600  0.95400  Biso   1.000  H
  H140     1.0000 0.45100  0.39600  0.54600  Biso   1.000  H
  H141     1.0000 0.01200  0.09500  0.14300  Biso   1.000  H
  H142     1.0000 0.48800  0.59500  0.35700  Biso   1.000  H
  H143     1.0000 0.98800  0.90500  0.85700  Biso   1.000  H
  H144     1.0000 0.51200  0.40500  0.64300  Biso   1.000  H
  H145     1.0000 0.08400  0.13500  0.10900  Biso   1.000  H
  H146     1.0000 0.41600  0.63500  0.39100  Biso   1.000  H
  H147     1.0000 0.91600  0.86500  0.89100  Biso   1.000  H
  H148     1.0000 0.58400  0.36500  0.60900  Biso   1.000  H
  C165     1.0000 0.79080  0.15442  0.06080  Biso   1.000  C
  C166     1.0000 0.70920  0.65442  0.43920  Biso   1.000  C
  C167     1.0000 0.20920  0.84558  0.93920  Biso   1.000  C
  C168     1.0000 0.29080  0.34558  0.56080  Biso   1.000  C
  H149     1.0000 0.78200  0.15190  0.00000  Biso   1.000  H
  H150     1.0000 0.71800  0.65190  0.50000  Biso   1.000  H
  H151     1.0000 0.21800  0.84810  0.00000  Biso   1.000  H
  H152     1.0000 0.28200  0.34810  0.50000  Biso   1.000  H
