data_image0
_cell_length_a       10.19
_cell_length_b       10.848
_cell_length_c       13.395
_cell_angle_alpha    102.56
_cell_angle_beta     96.54
_cell_angle_gamma    102.59

_symmetry_space_group_name_H-M    "P 1"
_symmetry_int_tables_number       1

loop_
  _symmetry_equiv_pos_as_xyz
  'x, y, z'

loop_
  _atom_site_label
  _atom_site_occupancy
  _atom_site_fract_x
  _atom_site_fract_y
  _atom_site_fract_z
  _atom_site_thermal_displace_type
  _atom_site_B_iso_or_equiv
  _atom_site_type_symbol
  Cu1      1.0000 0.50000  0.50000  0.50000  Biso   1.000  Cu
  O1       1.0000 0.33100  0.55080  0.50780  Biso   1.000  O
  O2       1.0000 0.66900  0.44920  0.49220  Biso   1.000  O
  C1       1.0000 0.16920  0.66900  0.49150  Biso   1.000  C
  C2       1.0000 0.83080  0.33100  0.50850  Biso   1.000  C
  F1       1.0000 0.14730  0.78750  0.49350  Biso   1.000  F
  F2       1.0000 0.85270  0.21250  0.50650  Biso   1.000  F
  F3       1.0000 0.11130  0.59550  0.39480  Biso   1.000  F
  F4       1.0000 0.88870  0.40450  0.60520  Biso   1.000  F
  F5       1.0000 0.09410  0.61980  0.55590  Biso   1.000  F
  F6       1.0000 0.90590  0.38020  0.44410  Biso   1.000  F
  C3       1.0000 0.31090  0.66620  0.51700  Biso   1.000  C
  C4       1.0000 0.68910  0.33380  0.48300  Biso   1.000  C
  C5       1.0000 0.41870  0.78320  0.55320  Biso   1.000  C
  C6       1.0000 0.58130  0.21680  0.44680  Biso   1.000  C
  H1       1.0000 0.39480  0.86220  0.55940  Biso   1.000  H
  H2       1.0000 0.60520  0.13780  0.44060  Biso   1.000  H
  C7       1.0000 0.55110  0.78810  0.57880  Biso   1.000  C
  C8       1.0000 0.44890  0.21190  0.42120  Biso   1.000  C
  C9       1.0000 0.64700  0.92120  0.62350  Biso   1.000  C
  C10      1.0000 0.35300  0.07880  0.37650  Biso   1.000  C
  F7       1.0000 0.68810  0.94110  0.72100  Biso   1.000  F
  F8       1.0000 0.31190  0.05890  0.27900  Biso   1.000  F
  F9       1.0000 0.75040  0.93470  0.58110  Biso   1.000  F
  F10      1.0000 0.24960  0.06530  0.41890  Biso   1.000  F
  F11      1.0000 0.59580  0.02000  0.61340  Biso   1.000  F
  F12      1.0000 0.40420  0.98000  0.38660  Biso   1.000  F
  O3       1.0000 0.60770  0.69640  0.57440  Biso   1.000  O
  O4       1.0000 0.39230  0.30360  0.42560  Biso   1.000  O
  Cu2      1.0000 0.00000  0.00000  0.00000  Biso   1.000  Cu
  O5       1.0000 0.15020  0.98830  0.92510  Biso   1.000  O
  O6       1.0000 0.84980  0.01170  0.07490  Biso   1.000  O
  C11      1.0000 0.34180  0.93700  0.86920  Biso   1.000  C
  C12      1.0000 0.65820  0.06300  0.13080  Biso   1.000  C
  F13      1.0000 0.28630  0.91240  0.77080  Biso   1.000  F
  F14      1.0000 0.71370  0.08760  0.22920  Biso   1.000  F
  F15      1.0000 0.42810  0.85950  0.87480  Biso   1.000  F
  F16      1.0000 0.57190  0.14050  0.12520  Biso   1.000  F
  F17      1.0000 0.42370  0.05900  0.89290  Biso   1.000  F
  F18      1.0000 0.57630  0.94100  0.10710  Biso   1.000  F
  C13      1.0000 0.23690  0.92650  0.93920  Biso   1.000  C
  C14      1.0000 0.76310  0.07350  0.06080  Biso   1.000  C
  C15      1.0000 0.25050  0.85130  0.01150  Biso   1.000  C
  C16      1.0000 0.74950  0.14870  0.98850  Biso   1.000  C
  H3       1.0000 0.32280  0.81210  0.01590  Biso   1.000  H
  H4       1.0000 0.67720  0.18790  0.98410  Biso   1.000  H
  C17      1.0000 0.15210  0.83670  0.07700  Biso   1.000  C
  C18      1.0000 0.84790  0.16330  0.92300  Biso   1.000  C
  C19      1.0000 0.16580  0.74630  0.14860  Biso   1.000  C
  C20      1.0000 0.83420  0.25370  0.85140  Biso   1.000  C
  F19      1.0000 0.29340  0.74790  0.17830  Biso   1.000  F
  F20      1.0000 0.70660  0.25210  0.82170  Biso   1.000  F
  F21      1.0000 0.11310  0.77690  0.23370  Biso   1.000  F
  F22      1.0000 0.88690  0.22310  0.76630  Biso   1.000  F
  F23      1.0000 0.10280  0.62340  0.10000  Biso   1.000  F
  F24      1.0000 0.89720  0.37660  0.90000  Biso   1.000  F
  O7       1.0000 0.04840  0.88140  0.08220  Biso   1.000  O
  O8       1.0000 0.95160  0.11860  0.91780  Biso   1.000  O
  O9       1.0000 0.49280  0.57110  0.36020  Biso   1.000  O
  O10      1.0000 0.50720  0.42890  0.63980  Biso   1.000  O
  N1       1.0000 0.54990  0.53920  0.27960  Biso   1.000  N
  N2       1.0000 0.45010  0.46080  0.72040  Biso   1.000  N
  C21      1.0000 0.67220  0.62480  0.26140  Biso   1.000  C
  C22      1.0000 0.32780  0.37520  0.73860  Biso   1.000  C
  C23      1.0000 0.78430  0.67330  0.35840  Biso   1.000  C
  C24      1.0000 0.21570  0.32670  0.64160  Biso   1.000  C
  H5       1.0000 0.74360  0.66840  0.41910  Biso   1.000  H
  H6       1.0000 0.25640  0.33160  0.58090  Biso   1.000  H
  H7       1.0000 0.83130  0.76200  0.36390  Biso   1.000  H
  H8       1.0000 0.16870  0.23800  0.63610  Biso   1.000  H
  H9       1.0000 0.84790  0.61960  0.35270  Biso   1.000  H
  H10      1.0000 0.15210  0.38040  0.64730  Biso   1.000  H
  C25      1.0000 0.63080  0.74260  0.23160  Biso   1.000  C
  C26      1.0000 0.36920  0.25740  0.76840  Biso   1.000  C
  H11      1.0000 0.54000  0.74240  0.24460  Biso   1.000  H
  H12      1.0000 0.46000  0.25760  0.75540  Biso   1.000  H
  H13      1.0000 0.63350  0.73650  0.15930  Biso   1.000  H
  H14      1.0000 0.36650  0.26350  0.84070  Biso   1.000  H
  H15      1.0000 0.69310  0.82200  0.27240  Biso   1.000  H
  H16      1.0000 0.30690  0.17800  0.72760  Biso   1.000  H
  C27      1.0000 0.70950  0.53350  0.16680  Biso   1.000  C
  C28      1.0000 0.29050  0.46650  0.83320  Biso   1.000  C
  C29      1.0000 0.75930  0.59670  0.08410  Biso   1.000  C
  C30      1.0000 0.24070  0.40330  0.91590  Biso   1.000  C
  H17      1.0000 0.77400  0.53170  0.02820  Biso   1.000  H
  H18      1.0000 0.22600  0.46830  0.97180  Biso   1.000  H
  H19      1.0000 0.84340  0.66160  0.11280  Biso   1.000  H
  H20      1.0000 0.15660  0.33840  0.88720  Biso   1.000  H
  H21      1.0000 0.69230  0.63720  0.05830  Biso   1.000  H
  H22      1.0000 0.30770  0.36280  0.94170  Biso   1.000  H
  C31      1.0000 0.80160  0.45180  0.20000  Biso   1.000  C
  C32      1.0000 0.19840  0.54820  0.80000  Biso   1.000  C
  H23      1.0000 0.80270  0.38290  0.14160  Biso   1.000  H
  H24      1.0000 0.19730  0.61710  0.85840  Biso   1.000  H
  H25      1.0000 0.76800  0.41510  0.25400  Biso   1.000  H
  H26      1.0000 0.23200  0.58490  0.74600  Biso   1.000  H
  H27      1.0000 0.89250  0.50580  0.22530  Biso   1.000  H
  H28      1.0000 0.10750  0.49420  0.77470  Biso   1.000  H
  N3       1.0000 0.57470  0.43960  0.12570  Biso   1.000  N
  N4       1.0000 0.42530  0.56040  0.87430  Biso   1.000  N
  O11      1.0000 0.54630  0.36000  0.03450  Biso   1.000  O
  O12      1.0000 0.45370  0.64000  0.96550  Biso   1.000  O
  C33      1.0000 0.48320  0.44030  0.19420  Biso   1.000  C
  C34      1.0000 0.51680  0.55970  0.80580  Biso   1.000  C
  C35      1.0000 0.35640  0.35610  0.18410  Biso   1.000  C
  C36      1.0000 0.64360  0.64390  0.81590  Biso   1.000  C
  C37      1.0000 0.28830  0.24090  0.10370  Biso   1.000  C
  C38      1.0000 0.71170  0.75910  0.89630  Biso   1.000  C
  H29      1.0000 0.37100  0.20500  0.05200  Biso   1.000  H
  H30      1.0000 0.62900  0.79500  0.94800  Biso   1.000  H
  N5       1.0000 0.16820  0.18640  0.12230  Biso   1.000  N
  N6       1.0000 0.83180  0.81360  0.87770  Biso   1.000  N
  N7       1.0000 0.15300  0.26530  0.21310  Biso   1.000  N
  N8       1.0000 0.84700  0.73470  0.78690  Biso   1.000  N
  C39      1.0000 0.03980  0.23040  0.26110  Biso   1.000  C
  C40      1.0000 0.96020  0.76960  0.73890  Biso   1.000  C
  H31      1.0000 0.06880  0.25050  0.33480  Biso   1.000  H
  H32      1.0000 0.93120  0.74950  0.66520  Biso   1.000  H
  H33      1.0000 0.99890  0.13860  0.23550  Biso   1.000  H
  H34      1.0000 0.00110  0.86140  0.76450  Biso   1.000  H
  H35      1.0000 0.97440  0.27820  0.24590  Biso   1.000  H
  H36      1.0000 0.02560  0.72180  0.75410  Biso   1.000  H
  C41      1.0000 0.26520  0.36610  0.25130  Biso   1.000  C
  C42      1.0000 0.73480  0.63390  0.74870  Biso   1.000  C
  H37      1.0000 0.27900  0.44900  0.31100  Biso   1.000  H
  H38      1.0000 0.72100  0.55100  0.68900  Biso   1.000  H
