data_image0
_cell_length_a       9.6094
_cell_length_b       11.509
_cell_length_c       9.2534
_cell_angle_alpha    90
_cell_angle_beta     99.0713
_cell_angle_gamma    90

_symmetry_space_group_name_H-M    "P 1"
_symmetry_int_tables_number       1

loop_
  _symmetry_equiv_pos_as_xyz
  'x, y, z'

loop_
  _atom_site_label
  _atom_site_occupancy
  _atom_site_fract_x
  _atom_site_fract_y
  _atom_site_fract_z
  _atom_site_thermal_displace_type
  _atom_site_B_iso_or_equiv
  _atom_site_type_symbol
  Cu1      1.0000 0.00000  0.00000  0.00000  Biso   1.000  Cu
  Cu2      1.0000 0.00000  0.50000  0.50000  Biso   1.000  Cu
  O1       1.0000 0.95590  0.10729  0.14932  Biso   1.000  O
  O2       1.0000 0.95590  0.39271  0.64932  Biso   1.000  O
  O3       1.0000 0.04410  0.89271  0.85068  Biso   1.000  O
  O4       1.0000 0.04410  0.60729  0.35068  Biso   1.000  O
  C1       1.0000 0.02300  0.13720  0.27230  Biso   1.000  C
  C2       1.0000 0.02300  0.36280  0.77230  Biso   1.000  C
  C3       1.0000 0.97700  0.86280  0.72770  Biso   1.000  C
  C4       1.0000 0.97700  0.63720  0.22770  Biso   1.000  C
  O5       1.0000 0.97760  0.34414  0.33270  Biso   1.000  O
  O6       1.0000 0.97760  0.15586  0.83270  Biso   1.000  O
  O7       1.0000 0.02240  0.65586  0.66730  Biso   1.000  O
  O8       1.0000 0.02240  0.84414  0.16730  Biso   1.000  O
  C5       1.0000 0.03240  0.24690  0.35310  Biso   1.000  C
  C6       1.0000 0.03240  0.25310  0.85310  Biso   1.000  C
  C7       1.0000 0.96760  0.75310  0.64690  Biso   1.000  C
  C8       1.0000 0.96760  0.74690  0.14690  Biso   1.000  C
  O9       1.0000 0.20580  0.22672  0.58580  Biso   1.000  O
  O10      1.0000 0.20580  0.27328  0.08580  Biso   1.000  O
  O11      1.0000 0.79420  0.77328  0.41420  Biso   1.000  O
  O12      1.0000 0.79420  0.72672  0.91420  Biso   1.000  O
  C9       1.0000 0.13530  0.19120  0.46990  Biso   1.000  C
  C10      1.0000 0.13530  0.30880  0.96990  Biso   1.000  C
  C11      1.0000 0.86470  0.80880  0.53010  Biso   1.000  C
  C12      1.0000 0.86470  0.69120  0.03010  Biso   1.000  C
  C13      1.0000 0.12020  0.08240  0.38720  Biso   1.000  C
  C14      1.0000 0.12020  0.41760  0.88720  Biso   1.000  C
  C15      1.0000 0.87980  0.91760  0.61280  Biso   1.000  C
  C16      1.0000 0.87980  0.58240  0.11280  Biso   1.000  C
  N1       1.0000 0.16610  0.97410  0.40140  Biso   1.000  N
  N2       1.0000 0.16610  0.52590  0.90140  Biso   1.000  N
  N3       1.0000 0.83390  0.02590  0.59860  Biso   1.000  N
  N4       1.0000 0.83390  0.47410  0.09860  Biso   1.000  N
  H1       1.0000 0.12560  0.92220  0.33510  Biso   1.000  H
  H2       1.0000 0.12560  0.57780  0.83510  Biso   1.000  H
  H3       1.0000 0.87440  0.07780  0.66490  Biso   1.000  H
  H4       1.0000 0.87440  0.42220  0.16490  Biso   1.000  H
  C17      1.0000 0.27039  0.80618  0.52850  Biso   1.000  C
  C18      1.0000 0.27039  0.69382  0.02850  Biso   1.000  C
  C19      1.0000 0.72961  0.19382  0.47150  Biso   1.000  C
  C20      1.0000 0.72961  0.30618  0.97150  Biso   1.000  C
  H5       1.0000 0.19960  0.76047  0.47180  Biso   1.000  H
  H6       1.0000 0.19960  0.73953  0.97180  Biso   1.000  H
  H7       1.0000 0.80040  0.23953  0.52820  Biso   1.000  H
  H8       1.0000 0.80040  0.26047  0.02820  Biso   1.000  H
  C21      1.0000 0.37370  0.75311  0.62910  Biso   1.000  C
  C22      1.0000 0.37370  0.74689  0.12910  Biso   1.000  C
  C23      1.0000 0.62630  0.24689  0.37090  Biso   1.000  C
  C24      1.0000 0.62630  0.25311  0.87090  Biso   1.000  C
  H9       1.0000 0.37350  0.67113  0.64100  Biso   1.000  H
  H10      1.0000 0.37350  0.82887  0.14100  Biso   1.000  H
  H11      1.0000 0.62650  0.32887  0.35900  Biso   1.000  H
  H12      1.0000 0.62650  0.17113  0.85900  Biso   1.000  H
  C25      1.0000 0.47720  0.81998  0.71210  Biso   1.000  C
  C26      1.0000 0.47720  0.68002  0.21210  Biso   1.000  C
  C27      1.0000 0.52280  0.18002  0.28790  Biso   1.000  C
  C28      1.0000 0.52280  0.31998  0.78790  Biso   1.000  C
  H13      1.0000 0.54780  0.78370  0.78080  Biso   1.000  H
  H14      1.0000 0.54780  0.71630  0.28080  Biso   1.000  H
  H15      1.0000 0.45220  0.21630  0.21920  Biso   1.000  H
  H16      1.0000 0.45220  0.28370  0.71920  Biso   1.000  H
  C29      1.0000 0.47752  0.93993  0.69460  Biso   1.000  C
  C30      1.0000 0.47752  0.56007  0.19460  Biso   1.000  C
  C31      1.0000 0.52248  0.06007  0.30540  Biso   1.000  C
  C32      1.0000 0.52248  0.43993  0.80540  Biso   1.000  C
  H17      1.0000 0.54830  0.98560  0.75140  Biso   1.000  H
  H18      1.0000 0.54830  0.51440  0.25140  Biso   1.000  H
  H19      1.0000 0.45170  0.01440  0.24860  Biso   1.000  H
  H20      1.0000 0.45170  0.48560  0.74860  Biso   1.000  H
  C33      1.0000 0.37430  0.99300  0.59410  Biso   1.000  C
  C34      1.0000 0.37430  0.50700  0.09410  Biso   1.000  C
  C35      1.0000 0.62570  0.00700  0.40590  Biso   1.000  C
  C36      1.0000 0.62570  0.49300  0.90590  Biso   1.000  C
  H21      1.0000 0.37450  0.07498  0.58210  Biso   1.000  H
  H22      1.0000 0.37450  0.42502  0.08210  Biso   1.000  H
  H23      1.0000 0.62550  0.92502  0.41790  Biso   1.000  H
  H24      1.0000 0.62550  0.57498  0.91790  Biso   1.000  H
  C37      1.0000 0.27068  0.92613  0.51106  Biso   1.000  C
  C38      1.0000 0.27068  0.57387  0.01106  Biso   1.000  C
  C39      1.0000 0.72932  0.07387  0.48894  Biso   1.000  C
  C40      1.0000 0.72932  0.42613  0.98894  Biso   1.000  C
  O13      1.0000 0.20330  0.04541  0.05030  Biso   1.000  O
  O14      1.0000 0.20330  0.45459  0.55030  Biso   1.000  O
  O15      1.0000 0.79670  0.95459  0.94970  Biso   1.000  O
  O16      1.0000 0.79670  0.54541  0.44970  Biso   1.000  O
  H25      1.0000 0.20900  0.12170  0.07170  Biso   1.000  H
  H26      1.0000 0.20900  0.37830  0.57170  Biso   1.000  H
  H27      1.0000 0.79100  0.87830  0.92830  Biso   1.000  H
  H28      1.0000 0.79100  0.62170  0.42830  Biso   1.000  H
  C41      1.0000 0.29320  0.03580  0.93870  Biso   1.000  C
  C42      1.0000 0.29320  0.46420  0.43870  Biso   1.000  C
  C43      1.0000 0.70680  0.96420  0.06130  Biso   1.000  C
  C44      1.0000 0.70680  0.53580  0.56130  Biso   1.000  C
  H29      1.0000 0.38890  0.06090  0.97920  Biso   1.000  H
  H30      1.0000 0.38890  0.43910  0.47920  Biso   1.000  H
  H31      1.0000 0.61110  0.93910  0.02080  Biso   1.000  H
  H32      1.0000 0.61110  0.56090  0.52080  Biso   1.000  H
  H33      1.0000 0.25610  0.08520  0.85520  Biso   1.000  H
  H34      1.0000 0.25610  0.41480  0.35520  Biso   1.000  H
  H35      1.0000 0.74390  0.91480  0.14480  Biso   1.000  H
  H36      1.0000 0.74390  0.58520  0.64480  Biso   1.000  H
  H37      1.0000 0.29530  0.95480  0.90630  Biso   1.000  H
  H38      1.0000 0.29530  0.54520  0.40630  Biso   1.000  H
  H39      1.0000 0.70470  0.04520  0.09370  Biso   1.000  H
  H40      1.0000 0.70470  0.45480  0.59370  Biso   1.000  H
