data_image0
_cell_length_a       7.912
_cell_length_b       19.622
_cell_length_c       14.308
_cell_angle_alpha    90
_cell_angle_beta     100.36
_cell_angle_gamma    90

_symmetry_space_group_name_H-M    "P 1"
_symmetry_int_tables_number       1

loop_
  _symmetry_equiv_pos_as_xyz
  'x, y, z'

loop_
  _atom_site_label
  _atom_site_occupancy
  _atom_site_fract_x
  _atom_site_fract_y
  _atom_site_fract_z
  _atom_site_thermal_displace_type
  _atom_site_B_iso_or_equiv
  _atom_site_type_symbol
  Cu1      1.0000 0.45103  0.63984  0.40984  Biso   1.000  Cu
  Cu2      1.0000 0.45103  0.86016  0.90984  Biso   1.000  Cu
  Cu3      1.0000 0.54897  0.36016  0.59016  Biso   1.000  Cu
  Cu4      1.0000 0.54897  0.13984  0.09016  Biso   1.000  Cu
  Mn1      1.0000 0.33764  0.51544  0.05979  Biso   1.000  Mn
  Mn2      1.0000 0.33764  0.98456  0.55979  Biso   1.000  Mn
  Mn3      1.0000 0.66236  0.48456  0.94021  Biso   1.000  Mn
  Mn4      1.0000 0.66236  0.01544  0.44021  Biso   1.000  Mn
  O1       1.0000 0.49060  0.59544  0.14474  Biso   1.000  O
  O2       1.0000 0.49060  0.90456  0.64474  Biso   1.000  O
  O3       1.0000 0.50940  0.40456  0.85526  Biso   1.000  O
  O4       1.0000 0.50940  0.09544  0.35526  Biso   1.000  O
  O5       1.0000 0.30260  0.50033  0.20916  Biso   1.000  O
  O6       1.0000 0.30260  0.99967  0.70916  Biso   1.000  O
  O7       1.0000 0.69740  0.49967  0.79084  Biso   1.000  O
  O8       1.0000 0.69740  0.00033  0.29084  Biso   1.000  O
  N1       1.0000 0.54850  0.64286  0.29536  Biso   1.000  N
  N2       1.0000 0.54850  0.85714  0.79536  Biso   1.000  N
  N3       1.0000 0.45150  0.35714  0.70464  Biso   1.000  N
  N4       1.0000 0.45150  0.14286  0.20464  Biso   1.000  N
  N5       1.0000 0.48490  0.74033  0.42759  Biso   1.000  N
  N6       1.0000 0.48490  0.75967  0.92759  Biso   1.000  N
  N7       1.0000 0.51510  0.25967  0.57241  Biso   1.000  N
  N8       1.0000 0.51510  0.24033  0.07241  Biso   1.000  N
  N9       1.0000 0.43250  0.61827  0.54016  Biso   1.000  N
  N10      1.0000 0.43250  0.88173  0.04016  Biso   1.000  N
  N11      1.0000 0.56750  0.38173  0.45984  Biso   1.000  N
  N12      1.0000 0.56750  0.11827  0.95984  Biso   1.000  N
  N13      1.0000 0.33790  0.55544  0.35596  Biso   1.000  N
  N14      1.0000 0.33790  0.94456  0.85596  Biso   1.000  N
  N15      1.0000 0.66210  0.44456  0.64404  Biso   1.000  N
  N16      1.0000 0.66210  0.05544  0.14404  Biso   1.000  N
  N17      1.0000 0.42040  0.54430  0.92625  Biso   1.000  N
  N18      1.0000 0.42040  0.95570  0.42625  Biso   1.000  N
  N19      1.0000 0.57960  0.45570  0.07375  Biso   1.000  N
  N20      1.0000 0.57960  0.04430  0.57375  Biso   1.000  N
  N21      1.0000 0.33360  0.56230  0.85440  Biso   1.000  N
  N22      1.0000 0.33360  0.93770  0.35440  Biso   1.000  N
  N23      1.0000 0.66640  0.43770  0.14560  Biso   1.000  N
  N24      1.0000 0.66640  0.06230  0.64560  Biso   1.000  N
  N25      1.0000 0.25030  0.58170  0.78510  Biso   1.000  N
  N26      1.0000 0.25030  0.91830  0.28510  Biso   1.000  N
  N27      1.0000 0.74970  0.41830  0.21490  Biso   1.000  N
  N28      1.0000 0.74970  0.08170  0.71490  Biso   1.000  N
  N29      1.0000 0.17920  0.42719  0.01070  Biso   1.000  N
  N30      1.0000 0.17920  0.07281  0.51070  Biso   1.000  N
  N31      1.0000 0.82080  0.57281  0.98930  Biso   1.000  N
  N32      1.0000 0.82080  0.92719  0.48930  Biso   1.000  N
  N33      1.0000 0.03140  0.42210  0.98704  Biso   1.000  N
  N34      1.0000 0.03140  0.07790  0.48704  Biso   1.000  N
  N35      1.0000 0.96860  0.57790  0.01296  Biso   1.000  N
  N36      1.0000 0.96860  0.92210  0.51296  Biso   1.000  N
  N37      1.0000 0.88410  0.41355  0.96330  Biso   1.000  N
  N38      1.0000 0.88410  0.08645  0.46330  Biso   1.000  N
  N39      1.0000 0.11590  0.58645  0.03670  Biso   1.000  N
  N40      1.0000 0.11590  0.91355  0.53670  Biso   1.000  N
  C1       1.0000 0.69010  0.68370  0.28410  Biso   1.000  C
  C2       1.0000 0.69010  0.81630  0.78410  Biso   1.000  C
  C3       1.0000 0.30990  0.31630  0.71590  Biso   1.000  C
  C4       1.0000 0.30990  0.18370  0.21590  Biso   1.000  C
  C5       1.0000 0.80700  0.66300  0.22680  Biso   1.000  C
  C6       1.0000 0.80700  0.83700  0.72680  Biso   1.000  C
  C7       1.0000 0.19300  0.33700  0.77320  Biso   1.000  C
  C8       1.0000 0.19300  0.16300  0.27320  Biso   1.000  C
  H1       1.0000 0.78640  0.62370  0.19030  Biso   1.000  H
  H2       1.0000 0.78640  0.87630  0.69030  Biso   1.000  H
  H3       1.0000 0.21360  0.37630  0.80970  Biso   1.000  H
  H4       1.0000 0.21360  0.12370  0.30970  Biso   1.000  H
  C9       1.0000 0.95320  0.70140  0.22500  Biso   1.000  C
  C10      1.0000 0.95320  0.79860  0.72500  Biso   1.000  C
  C11      1.0000 0.04680  0.29860  0.77500  Biso   1.000  C
  C12      1.0000 0.04680  0.20140  0.27500  Biso   1.000  C
  H5       1.0000 0.03230  0.68680  0.18840  Biso   1.000  H
  H6       1.0000 0.03230  0.81320  0.68840  Biso   1.000  H
  H7       1.0000 0.96770  0.31320  0.81160  Biso   1.000  H
  H8       1.0000 0.96770  0.18680  0.31160  Biso   1.000  H
  C13      1.0000 0.98360  0.76090  0.27620  Biso   1.000  C
  C14      1.0000 0.98360  0.73910  0.77620  Biso   1.000  C
  C15      1.0000 0.01640  0.23910  0.72380  Biso   1.000  C
  C16      1.0000 0.01640  0.26090  0.22380  Biso   1.000  C
  H9       1.0000 0.08240  0.78610  0.27410  Biso   1.000  H
  H10      1.0000 0.08240  0.71390  0.77410  Biso   1.000  H
  H11      1.0000 0.91760  0.21390  0.72590  Biso   1.000  H
  H12      1.0000 0.91760  0.28610  0.22590  Biso   1.000  H
  C17      1.0000 0.86850  0.78278  0.33030  Biso   1.000  C
  C18      1.0000 0.86850  0.71722  0.83030  Biso   1.000  C
  C19      1.0000 0.13150  0.21722  0.66970  Biso   1.000  C
  C20      1.0000 0.13150  0.28278  0.16970  Biso   1.000  C
  H13      1.0000 0.88800  0.82380  0.36300  Biso   1.000  H
  H14      1.0000 0.88800  0.67620  0.86300  Biso   1.000  H
  H15      1.0000 0.11200  0.17620  0.63700  Biso   1.000  H
  H16      1.0000 0.11200  0.32380  0.13700  Biso   1.000  H
  C21      1.0000 0.72090  0.74434  0.33720  Biso   1.000  C
  C22      1.0000 0.72090  0.75566  0.83720  Biso   1.000  C
  C23      1.0000 0.27910  0.25566  0.66280  Biso   1.000  C
  C24      1.0000 0.27910  0.24434  0.16280  Biso   1.000  C
  C25      1.0000 0.60550  0.77152  0.39600  Biso   1.000  C
  C26      1.0000 0.60550  0.72848  0.89600  Biso   1.000  C
  C27      1.0000 0.39450  0.22848  0.60400  Biso   1.000  C
  C28      1.0000 0.39450  0.27152  0.10400  Biso   1.000  C
  H17      1.0000 0.62080  0.81720  0.41280  Biso   1.000  H
  H18      1.0000 0.62080  0.68280  0.91280  Biso   1.000  H
  H19      1.0000 0.37920  0.18280  0.58720  Biso   1.000  H
  H20      1.0000 0.37920  0.31720  0.08720  Biso   1.000  H
  C29      1.0000 0.37430  0.78471  0.47660  Biso   1.000  C
  C30      1.0000 0.37430  0.71529  0.97660  Biso   1.000  C
  C31      1.0000 0.62570  0.21529  0.52340  Biso   1.000  C
  C32      1.0000 0.62570  0.28471  0.02340  Biso   1.000  C
  H21      1.0000 0.30190  0.81230  0.42930  Biso   1.000  H
  H22      1.0000 0.30190  0.68770  0.92930  Biso   1.000  H
  H23      1.0000 0.69810  0.18770  0.57070  Biso   1.000  H
  H24      1.0000 0.69810  0.31230  0.07070  Biso   1.000  H
  H25      1.0000 0.44770  0.81540  0.51890  Biso   1.000  H
  H26      1.0000 0.44770  0.68460  0.01890  Biso   1.000  H
  H27      1.0000 0.55230  0.18460  0.48110  Biso   1.000  H
  H28      1.0000 0.55230  0.31540  0.98110  Biso   1.000  H
  C33      1.0000 0.26100  0.74652  0.53340  Biso   1.000  C
  C34      1.0000 0.26100  0.75348  0.03340  Biso   1.000  C
  C35      1.0000 0.73900  0.25348  0.46660  Biso   1.000  C
  C36      1.0000 0.73900  0.24652  0.96660  Biso   1.000  C
  H29      1.0000 0.20460  0.70970  0.49460  Biso   1.000  H
  H30      1.0000 0.20460  0.79030  0.99460  Biso   1.000  H
  H31      1.0000 0.79540  0.29030  0.50540  Biso   1.000  H
  H32      1.0000 0.79540  0.20970  0.00540  Biso   1.000  H
  H33      1.0000 0.17220  0.77730  0.54670  Biso   1.000  H
  H34      1.0000 0.17220  0.72270  0.04670  Biso   1.000  H
  H35      1.0000 0.82780  0.22270  0.45330  Biso   1.000  H
  H36      1.0000 0.82780  0.27730  0.95330  Biso   1.000  H
  C37      1.0000 0.35300  0.71688  0.62670  Biso   1.000  C
  C38      1.0000 0.35300  0.78312  0.12670  Biso   1.000  C
  C39      1.0000 0.64700  0.28312  0.37330  Biso   1.000  C
  C40      1.0000 0.64700  0.21688  0.87330  Biso   1.000  C
  H37      1.0000 0.26970  0.69340  0.65720  Biso   1.000  H
  H38      1.0000 0.26970  0.80660  0.15720  Biso   1.000  H
  H39      1.0000 0.73030  0.30660  0.34280  Biso   1.000  H
  H40      1.0000 0.73030  0.19340  0.84280  Biso   1.000  H
  H41      1.0000 0.40070  0.75400  0.66800  Biso   1.000  H
  H42      1.0000 0.40070  0.74600  0.16800  Biso   1.000  H
  H43      1.0000 0.59930  0.24600  0.33200  Biso   1.000  H
  H44      1.0000 0.59930  0.25400  0.83200  Biso   1.000  H
  C41      1.0000 0.49620  0.66762  0.61650  Biso   1.000  C
  C42      1.0000 0.49620  0.83238  0.11650  Biso   1.000  C
  C43      1.0000 0.50380  0.33238  0.38350  Biso   1.000  C
  C44      1.0000 0.50380  0.16762  0.88350  Biso   1.000  C
  H45      1.0000 0.59370  0.69240  0.60110  Biso   1.000  H
  H46      1.0000 0.59370  0.80760  0.10110  Biso   1.000  H
  H47      1.0000 0.40630  0.30760  0.39890  Biso   1.000  H
  H48      1.0000 0.40630  0.19240  0.89890  Biso   1.000  H
  H49      1.0000 0.53350  0.64370  0.67600  Biso   1.000  H
  H50      1.0000 0.53350  0.85630  0.17600  Biso   1.000  H
  H51      1.0000 0.46650  0.35630  0.32400  Biso   1.000  H
  H52      1.0000 0.46650  0.14370  0.82400  Biso   1.000  H
  C45      1.0000 0.36270  0.56408  0.56460  Biso   1.000  C
  C46      1.0000 0.36270  0.93592  0.06460  Biso   1.000  C
  C47      1.0000 0.63730  0.43592  0.43540  Biso   1.000  C
  C48      1.0000 0.63730  0.06408  0.93540  Biso   1.000  C
  H53      1.0000 0.36930  0.55810  0.62970  Biso   1.000  H
  H54      1.0000 0.36930  0.94190  0.12970  Biso   1.000  H
  H55      1.0000 0.63070  0.44190  0.37030  Biso   1.000  H
  H56      1.0000 0.63070  0.05810  0.87030  Biso   1.000  H
  C49      1.0000 0.27460  0.51046  0.50500  Biso   1.000  C
  C50      1.0000 0.27460  0.98954  0.00500  Biso   1.000  C
  C51      1.0000 0.72540  0.48954  0.49500  Biso   1.000  C
  C52      1.0000 0.72540  0.01046  0.99500  Biso   1.000  C
  C53      1.0000 0.20110  0.45950  0.55440  Biso   1.000  C
  C54      1.0000 0.20110  0.04050  0.05440  Biso   1.000  C
  C55      1.0000 0.79890  0.54050  0.44560  Biso   1.000  C
  C56      1.0000 0.79890  0.95950  0.94560  Biso   1.000  C
  H57      1.0000 0.21460  0.46220  0.62020  Biso   1.000  H
  H58      1.0000 0.21460  0.03780  0.12020  Biso   1.000  H
  H59      1.0000 0.78540  0.53780  0.37980  Biso   1.000  H
  H60      1.0000 0.78540  0.96220  0.87980  Biso   1.000  H
  C57      1.0000 0.11070  0.40622  0.50860  Biso   1.000  C
  C58      1.0000 0.11070  0.09378  0.00860  Biso   1.000  C
  C59      1.0000 0.88930  0.59378  0.49140  Biso   1.000  C
  C60      1.0000 0.88930  0.90622  0.99140  Biso   1.000  C
  H61      1.0000 0.06630  0.37240  0.54280  Biso   1.000  H
  H62      1.0000 0.06630  0.12760  0.04280  Biso   1.000  H
  H63      1.0000 0.93370  0.62760  0.45720  Biso   1.000  H
  H64      1.0000 0.93370  0.87240  0.95720  Biso   1.000  H
  C61      1.0000 0.08610  0.40344  0.41010  Biso   1.000  C
  C62      1.0000 0.08610  0.09656  0.91010  Biso   1.000  C
  C63      1.0000 0.91390  0.59656  0.58990  Biso   1.000  C
  C64      1.0000 0.91390  0.90344  0.08990  Biso   1.000  C
  H65      1.0000 0.02230  0.36800  0.37800  Biso   1.000  H
  H66      1.0000 0.02230  0.13200  0.87800  Biso   1.000  H
  H67      1.0000 0.97770  0.63200  0.62200  Biso   1.000  H
  H68      1.0000 0.97770  0.86800  0.12200  Biso   1.000  H
  C65      1.0000 0.15600  0.45301  0.35900  Biso   1.000  C
  C66      1.0000 0.15600  0.04699  0.85900  Biso   1.000  C
  C67      1.0000 0.84400  0.54699  0.64100  Biso   1.000  C
  C68      1.0000 0.84400  0.95301  0.14100  Biso   1.000  C
  H69      1.0000 0.13630  0.45050  0.29300  Biso   1.000  H
  H70      1.0000 0.13630  0.04950  0.79300  Biso   1.000  H
  H71      1.0000 0.86370  0.54950  0.70700  Biso   1.000  H
  H72      1.0000 0.86370  0.95050  0.20700  Biso   1.000  H
  C69      1.0000 0.25500  0.50642  0.40422  Biso   1.000  C
  C70      1.0000 0.25500  0.99358  0.90422  Biso   1.000  C
  C71      1.0000 0.74500  0.49358  0.59578  Biso   1.000  C
  C72      1.0000 0.74500  0.00642  0.09578  Biso   1.000  C
  C73      1.0000 0.35760  0.54674  0.26588  Biso   1.000  C
  C74      1.0000 0.35760  0.95326  0.76588  Biso   1.000  C
  C75      1.0000 0.64240  0.45326  0.73412  Biso   1.000  C
  C76      1.0000 0.64240  0.04674  0.23412  Biso   1.000  C
  C77      1.0000 0.47330  0.59964  0.22947  Biso   1.000  C
  C78      1.0000 0.47330  0.90036  0.72947  Biso   1.000  C
  C79      1.0000 0.52670  0.40036  0.77053  Biso   1.000  C
  C80      1.0000 0.52670  0.09964  0.27053  Biso   1.000  C
