data_image0
_cell_length_a       7.0284
_cell_length_b       7.5836
_cell_length_c       13.276
_cell_angle_alpha    104.74
_cell_angle_beta     91.19
_cell_angle_gamma    116.03

_symmetry_space_group_name_H-M    "P 1"
_symmetry_int_tables_number       1

loop_
  _symmetry_equiv_pos_as_xyz
  'x, y, z'

loop_
  _atom_site_label
  _atom_site_occupancy
  _atom_site_fract_x
  _atom_site_fract_y
  _atom_site_fract_z
  _atom_site_thermal_displace_type
  _atom_site_B_iso_or_equiv
  _atom_site_type_symbol
  Cu1      1.0000 0.30340  0.43833  0.17117  Biso   1.000  Cu
  Cu2      1.0000 0.69660  0.56167  0.82883  Biso   1.000  Cu
  O1       1.0000 0.20170  0.84290  0.07483  Biso   1.000  O
  O2       1.0000 0.79830  0.15710  0.92517  Biso   1.000  O
  O3       1.0000 0.30620  0.61110  0.08503  Biso   1.000  O
  O4       1.0000 0.69380  0.38890  0.91497  Biso   1.000  O
  O5       1.0000 0.94160  0.00760  0.20096  Biso   1.000  O
  O6       1.0000 0.05840  0.99240  0.79904  Biso   1.000  O
  O7       1.0000 0.28630  0.24560  0.24768  Biso   1.000  O
  O8       1.0000 0.71370  0.75440  0.75232  Biso   1.000  O
  O9       1.0000 0.67190  0.59560  0.22080  Biso   1.000  O
  O10      1.0000 0.32810  0.40440  0.77920  Biso   1.000  O
  H1       1.0000 0.72300  0.51800  0.19800  Biso   1.000  H
  H2       1.0000 0.27700  0.48200  0.80200  Biso   1.000  H
  H3       1.0000 0.73300  0.70100  0.20500  Biso   1.000  H
  H4       1.0000 0.26700  0.29900  0.79500  Biso   1.000  H
  O11      1.0000 0.29620  0.23980  0.03730  Biso   1.000  O
  O12      1.0000 0.70380  0.76020  0.96270  Biso   1.000  O
  H5       1.0000 0.29200  0.12600  0.04200  Biso   1.000  H
  H6       1.0000 0.70800  0.87400  0.95800  Biso   1.000  H
  H7       1.0000 0.40600  0.28400  0.00300  Biso   1.000  H
  H8       1.0000 0.59400  0.71600  0.99700  Biso   1.000  H
  N1       1.0000 0.26390  0.66170  0.28625  Biso   1.000  N
  N2       1.0000 0.73610  0.33830  0.71375  Biso   1.000  N
  C1       1.0000 0.12930  0.07190  0.23970  Biso   1.000  C
  C2       1.0000 0.87070  0.92810  0.76030  Biso   1.000  C
  C3       1.0000 0.18360  0.94350  0.29470  Biso   1.000  C
  C4       1.0000 0.81640  0.05650  0.70530  Biso   1.000  C
  C5       1.0000 0.19170  0.98360  0.40140  Biso   1.000  C
  C6       1.0000 0.80830  0.01640  0.59860  Biso   1.000  C
  H9       1.0000 0.17060  0.09300  0.43960  Biso   1.000  H
  H10      1.0000 0.82940  0.90700  0.56040  Biso   1.000  H
  C7       1.0000 0.23140  0.86150  0.45390  Biso   1.000  C
  C8       1.0000 0.76860  0.13850  0.54610  Biso   1.000  C
  C9       1.0000 0.24090  0.89660  0.56440  Biso   1.000  C
  C10      1.0000 0.75910  0.10340  0.43560  Biso   1.000  C
  H11      1.0000 0.22540  0.00740  0.60550  Biso   1.000  H
  H12      1.0000 0.77460  0.99260  0.39450  Biso   1.000  H
  C11      1.0000 0.27260  0.76850  0.61090  Biso   1.000  C
  C12      1.0000 0.72740  0.23150  0.38910  Biso   1.000  C
  H13      1.0000 0.27710  0.79180  0.68330  Biso   1.000  H
  H14      1.0000 0.72290  0.20820  0.31670  Biso   1.000  H
  C13      1.0000 0.29850  0.60190  0.55020  Biso   1.000  C
  C14      1.0000 0.70150  0.39810  0.44980  Biso   1.000  C
  H15      1.0000 0.31720  0.51430  0.58270  Biso   1.000  H
  H16      1.0000 0.68280  0.48570  0.41730  Biso   1.000  H
  C15      1.0000 0.29660  0.56680  0.44420  Biso   1.000  C
  C16      1.0000 0.70340  0.43320  0.55580  Biso   1.000  C
  H17      1.0000 0.31830  0.45810  0.40560  Biso   1.000  H
  H18      1.0000 0.68170  0.54190  0.59440  Biso   1.000  H
  C17      1.0000 0.26200  0.69410  0.39220  Biso   1.000  C
  C18      1.0000 0.73800  0.30590  0.60780  Biso   1.000  C
  C19      1.0000 0.22710  0.78260  0.23990  Biso   1.000  C
  C20      1.0000 0.77290  0.21740  0.76010  Biso   1.000  C
  C21      1.0000 0.24560  0.74470  0.12400  Biso   1.000  C
  C22      1.0000 0.75440  0.25530  0.87600  Biso   1.000  C
  O13      1.0000 0.83820  0.30350  0.14250  Biso   1.000  O
  O14      1.0000 0.16180  0.69650  0.85750  Biso   1.000  O
  H19      1.0000 0.81500  0.26500  0.07790  Biso   1.000  H
  H20      1.0000 0.18500  0.73500  0.92210  Biso   1.000  H
  H21      1.0000 0.86000  0.22600  0.16600  Biso   1.000  H
  H22      1.0000 0.14000  0.77400  0.83400  Biso   1.000  H
