data_image0
_cell_length_a       8.866
_cell_length_b       8.9112
_cell_length_c       12.525
_cell_angle_alpha    88.41
_cell_angle_beta     69.38
_cell_angle_gamma    66.95

_symmetry_space_group_name_H-M    "P 1"
_symmetry_int_tables_number       1

loop_
  _symmetry_equiv_pos_as_xyz
  'x, y, z'

loop_
  _atom_site_label
  _atom_site_occupancy
  _atom_site_fract_x
  _atom_site_fract_y
  _atom_site_fract_z
  _atom_site_thermal_displace_type
  _atom_site_B_iso_or_equiv
  _atom_site_type_symbol
  Cu1      1.0000 0.61586  0.51028  0.29698  Biso   1.000  Cu
  Cu2      1.0000 0.38414  0.48972  0.70302  Biso   1.000  Cu
  O1       1.0000 0.93910  0.22850  0.26104  Biso   1.000  O
  O2       1.0000 0.06090  0.77150  0.73896  Biso   1.000  O
  O3       1.0000 0.65491  0.30045  0.36794  Biso   1.000  O
  O4       1.0000 0.34509  0.69955  0.63206  Biso   1.000  O
  O5       1.0000 0.34300  0.69020  0.33775  Biso   1.000  O
  O6       1.0000 0.65700  0.30980  0.66225  Biso   1.000  O
  O7       1.0000 0.19720  0.55450  0.45179  Biso   1.000  O
  O8       1.0000 0.80280  0.44550  0.54821  Biso   1.000  O
  O9       1.0000 0.61760  0.62080  0.42998  Biso   1.000  O
  O10      1.0000 0.38240  0.37920  0.57002  Biso   1.000  O
  O11      1.0000 0.03046  0.93949  0.35242  Biso   1.000  O
  O12      1.0000 0.96954  0.06051  0.64758  Biso   1.000  O
  N1       1.0000 0.63010  0.40900  0.15292  Biso   1.000  N
  N2       1.0000 0.36990  0.59100  0.84708  Biso   1.000  N
  N3       1.0000 0.72380  0.64160  0.18494  Biso   1.000  N
  N4       1.0000 0.27620  0.35840  0.81506  Biso   1.000  N
  C1       1.0000 0.81870  0.20130  0.33236  Biso   1.000  C
  C2       1.0000 0.18130  0.79870  0.66764  Biso   1.000  C
  C3       1.0000 0.85670  0.04600  0.38402  Biso   1.000  C
  C4       1.0000 0.14330  0.95400  0.61598  Biso   1.000  C
  C5       1.0000 0.86610  0.83070  0.47900  Biso   1.000  C
  C6       1.0000 0.13390  0.16930  0.52100  Biso   1.000  C
  H1       1.0000 0.83250  0.75910  0.52750  Biso   1.000  H
  H2       1.0000 0.16750  0.24090  0.47250  Biso   1.000  H
  C7       1.0000 0.03250  0.80850  0.41202  Biso   1.000  C
  C8       1.0000 0.96750  0.19150  0.58798  Biso   1.000  C
  C9       1.0000 0.20650  0.67400  0.39870  Biso   1.000  C
  C10      1.0000 0.79350  0.32600  0.60130  Biso   1.000  C
  C11      1.0000 0.70410  0.46580  0.05592  Biso   1.000  C
  C12      1.0000 0.29590  0.53420  0.94408  Biso   1.000  C
  C13      1.0000 0.75180  0.60110  0.07474  Biso   1.000  C
  C14      1.0000 0.24820  0.39890  0.92526  Biso   1.000  C
  C15      1.0000 0.73060  0.39910  0.94913  Biso   1.000  C
  C16      1.0000 0.26940  0.60090  0.05087  Biso   1.000  C
  H3       1.0000 0.78310  0.43800  0.88280  Biso   1.000  H
  H4       1.0000 0.21690  0.56200  0.11720  Biso   1.000  H
  C17      1.0000 0.76560  0.76120  0.21033  Biso   1.000  C
  C18      1.0000 0.23440  0.23880  0.78967  Biso   1.000  C
  H5       1.0000 0.74680  0.78820  0.28650  Biso   1.000  H
  H6       1.0000 0.25320  0.21180  0.71350  Biso   1.000  H
  C19      1.0000 0.75280  0.98480  0.46053  Biso   1.000  C
  C20      1.0000 0.24720  0.01520  0.53947  Biso   1.000  C
  H7       1.0000 0.63030  0.03400  0.49480  Biso   1.000  H
  H8       1.0000 0.36970  0.96600  0.50520  Biso   1.000  H
  C21      1.0000 0.57790  0.28890  0.14590  Biso   1.000  C
  C22      1.0000 0.42210  0.71110  0.85410  Biso   1.000  C
  H9       1.0000 0.52550  0.25170  0.21320  Biso   1.000  H
  H10      1.0000 0.47450  0.74830  0.78680  Biso   1.000  H
  C23      1.0000 0.82060  0.68290  0.98778  Biso   1.000  C
  C24      1.0000 0.17940  0.31710  0.01222  Biso   1.000  C
  H11      1.0000 0.83800  0.65490  0.91210  Biso   1.000  H
  H12      1.0000 0.16200  0.34510  0.08790  Biso   1.000  H
  C25      1.0000 0.83570  0.84590  0.12770  Biso   1.000  C
  C26      1.0000 0.16430  0.15410  0.87230  Biso   1.000  C
  H13      1.0000 0.86410  0.92840  0.14750  Biso   1.000  H
  H14      1.0000 0.13590  0.07160  0.85250  Biso   1.000  H
  C27      1.0000 0.67850  0.27420  0.94210  Biso   1.000  C
  C28      1.0000 0.32150  0.72580  0.05790  Biso   1.000  C
  H15      1.0000 0.69610  0.22760  0.87090  Biso   1.000  H
  H16      1.0000 0.30390  0.77240  0.12910  Biso   1.000  H
  C29      1.0000 0.86270  0.80600  0.01520  Biso   1.000  C
  C30      1.0000 0.13730  0.19400  0.98480  Biso   1.000  C
  H17      1.0000 0.90920  0.86190  0.95800  Biso   1.000  H
  H18      1.0000 0.09080  0.13810  0.04200  Biso   1.000  H
  C31      1.0000 0.59970  0.21840  0.04170  Biso   1.000  C
  C32      1.0000 0.40030  0.78160  0.95830  Biso   1.000  C
  H19      1.0000 0.56220  0.13530  0.03850  Biso   1.000  H
  H20      1.0000 0.43780  0.86470  0.96150  Biso   1.000  H
  H21      1.0000 0.67600  0.56500  0.45400  Biso   1.000  H
  H22      1.0000 0.32400  0.43500  0.54600  Biso   1.000  H
  H23      1.0000 0.51900  0.66000  0.48300  Biso   1.000  H
  H24      1.0000 0.48100  0.34000  0.51700  Biso   1.000  H
  O13      1.0000 0.10980  0.42370  0.28400  Biso   1.000  O
  O14      1.0000 0.89020  0.57630  0.71600  Biso   1.000  O
  H25      1.0000 0.10800  0.45700  0.33900  Biso   1.000  H
  H26      1.0000 0.89200  0.54300  0.66100  Biso   1.000  H
  H27      1.0000 0.05400  0.37400  0.29600  Biso   1.000  H
  H28      1.0000 0.94600  0.62600  0.70400  Biso   1.000  H
  O15      1.0000 0.36570  0.01010  0.22060  Biso   1.000  O
  O16      1.0000 0.63430  0.98990  0.77940  Biso   1.000  O
  H29      1.0000 0.34000  0.94900  0.25300  Biso   1.000  H
  H30      1.0000 0.66000  0.05100  0.74700  Biso   1.000  H
  H31      1.0000 0.29900  0.09100  0.23500  Biso   1.000  H
  H32      1.0000 0.70100  0.90900  0.76500  Biso   1.000  H
