data_image0
_cell_length_a       29.6255
_cell_length_b       6.8582
_cell_length_c       14.8264
_cell_angle_alpha    90
_cell_angle_beta     94.728
_cell_angle_gamma    90

_symmetry_space_group_name_H-M    "P 1"
_symmetry_int_tables_number       1

loop_
  _symmetry_equiv_pos_as_xyz
  'x, y, z'

loop_
  _atom_site_label
  _atom_site_occupancy
  _atom_site_fract_x
  _atom_site_fract_y
  _atom_site_fract_z
  _atom_site_thermal_displace_type
  _atom_site_B_iso_or_equiv
  _atom_site_type_symbol
  Cu1      1.0000 0.50000  0.15958  0.75000  Biso   1.000  Cu
  Cu2      1.0000 0.00000  0.65958  0.75000  Biso   1.000  Cu
  Cu3      1.0000 0.50000  0.84042  0.25000  Biso   1.000  Cu
  Cu4      1.0000 0.00000  0.34042  0.25000  Biso   1.000  Cu
  O1       1.0000 0.43940  0.11230  0.69567  Biso   1.000  O
  O2       1.0000 0.93940  0.61230  0.69567  Biso   1.000  O
  O3       1.0000 0.56060  0.11230  0.80433  Biso   1.000  O
  O4       1.0000 0.06060  0.61230  0.80433  Biso   1.000  O
  O5       1.0000 0.56060  0.88770  0.30433  Biso   1.000  O
  O6       1.0000 0.06060  0.38770  0.30433  Biso   1.000  O
  O7       1.0000 0.43940  0.88770  0.19567  Biso   1.000  O
  O8       1.0000 0.93940  0.38770  0.19567  Biso   1.000  O
  O9       1.0000 0.43602  0.82340  0.76371  Biso   1.000  O
  O10      1.0000 0.93602  0.32340  0.76371  Biso   1.000  O
  O11      1.0000 0.56398  0.82340  0.73629  Biso   1.000  O
  O12      1.0000 0.06398  0.32340  0.73629  Biso   1.000  O
  O13      1.0000 0.56398  0.17660  0.23629  Biso   1.000  O
  O14      1.0000 0.06398  0.67660  0.23629  Biso   1.000  O
  O15      1.0000 0.43602  0.17660  0.26371  Biso   1.000  O
  O16      1.0000 0.93602  0.67660  0.26371  Biso   1.000  O
  O17      1.0000 0.14263  0.02070  0.50325  Biso   1.000  O
  O18      1.0000 0.64263  0.52070  0.50325  Biso   1.000  O
  O19      1.0000 0.85737  0.02070  0.99675  Biso   1.000  O
  O20      1.0000 0.35737  0.52070  0.99675  Biso   1.000  O
  O21      1.0000 0.85737  0.97930  0.49675  Biso   1.000  O
  O22      1.0000 0.35737  0.47930  0.49675  Biso   1.000  O
  O23      1.0000 0.14263  0.97930  0.00325  Biso   1.000  O
  O24      1.0000 0.64263  0.47930  0.00325  Biso   1.000  O
  O25      1.0000 0.50000  0.52260  0.75000  Biso   1.000  O
  O26      1.0000 0.00000  0.02260  0.75000  Biso   1.000  O
  O27      1.0000 0.50000  0.47740  0.25000  Biso   1.000  O
  O28      1.0000 0.00000  0.97740  0.25000  Biso   1.000  O
  O29      1.0000 0.11363  0.36900  0.58013  Biso   1.000  O
  O30      1.0000 0.61363  0.86900  0.58013  Biso   1.000  O
  O31      1.0000 0.88637  0.36900  0.91987  Biso   1.000  O
  O32      1.0000 0.38637  0.86900  0.91987  Biso   1.000  O
  O33      1.0000 0.88637  0.63100  0.41987  Biso   1.000  O
  O34      1.0000 0.38637  0.13100  0.41987  Biso   1.000  O
  O35      1.0000 0.11363  0.63100  0.08013  Biso   1.000  O
  O36      1.0000 0.61363  0.13100  0.08013  Biso   1.000  O
  N1       1.0000 0.15983  0.73430  0.57653  Biso   1.000  N
  N2       1.0000 0.65983  0.23430  0.57653  Biso   1.000  N
  N3       1.0000 0.84017  0.73430  0.92347  Biso   1.000  N
  N4       1.0000 0.34017  0.23430  0.92347  Biso   1.000  N
  N5       1.0000 0.84017  0.26570  0.42347  Biso   1.000  N
  N6       1.0000 0.34017  0.76570  0.42347  Biso   1.000  N
  N7       1.0000 0.15983  0.26570  0.07653  Biso   1.000  N
  N8       1.0000 0.65983  0.76570  0.07653  Biso   1.000  N
  N9       1.0000 0.02186  0.70810  0.62447  Biso   1.000  N
  N10      1.0000 0.52186  0.20810  0.62447  Biso   1.000  N
  N11      1.0000 0.97814  0.70810  0.87553  Biso   1.000  N
  N12      1.0000 0.47814  0.20810  0.87553  Biso   1.000  N
  N13      1.0000 0.97814  0.29190  0.37553  Biso   1.000  N
  N14      1.0000 0.47814  0.79190  0.37553  Biso   1.000  N
  N15      1.0000 0.02186  0.29190  0.12447  Biso   1.000  N
  N16      1.0000 0.52186  0.79190  0.12447  Biso   1.000  N
  C1       1.0000 0.41869  0.95670  0.71535  Biso   1.000  C
  C2       1.0000 0.91869  0.45670  0.71535  Biso   1.000  C
  C3       1.0000 0.58131  0.95670  0.78465  Biso   1.000  C
  C4       1.0000 0.08131  0.45670  0.78465  Biso   1.000  C
  C5       1.0000 0.58131  0.04330  0.28465  Biso   1.000  C
  C6       1.0000 0.08131  0.54330  0.28465  Biso   1.000  C
  C7       1.0000 0.41869  0.04330  0.21535  Biso   1.000  C
  C8       1.0000 0.91869  0.54330  0.21535  Biso   1.000  C
  C9       1.0000 0.36998  0.94350  0.67842  Biso   1.000  C
  C10      1.0000 0.86998  0.44350  0.67842  Biso   1.000  C
  C11      1.0000 0.63002  0.94350  0.82158  Biso   1.000  C
  C12      1.0000 0.13002  0.44350  0.82158  Biso   1.000  C
  C13      1.0000 0.63002  0.05650  0.32158  Biso   1.000  C
  C14      1.0000 0.13002  0.55650  0.32158  Biso   1.000  C
  C15      1.0000 0.36998  0.05650  0.17842  Biso   1.000  C
  C16      1.0000 0.86998  0.55650  0.17842  Biso   1.000  C
  C17      1.0000 0.34545  0.77700  0.69110  Biso   1.000  C
  C18      1.0000 0.84545  0.27700  0.69110  Biso   1.000  C
  C19      1.0000 0.65455  0.77700  0.80890  Biso   1.000  C
  C20      1.0000 0.15455  0.27700  0.80890  Biso   1.000  C
  C21      1.0000 0.65455  0.22300  0.30890  Biso   1.000  C
  C22      1.0000 0.15455  0.72300  0.30890  Biso   1.000  C
  C23      1.0000 0.34545  0.22300  0.19110  Biso   1.000  C
  C24      1.0000 0.84545  0.72300  0.19110  Biso   1.000  C
  H1       1.0000 0.35970  0.67120  0.72070  Biso   1.000  H
  H2       1.0000 0.85970  0.17120  0.72070  Biso   1.000  H
  H3       1.0000 0.64030  0.67120  0.77930  Biso   1.000  H
  H4       1.0000 0.14030  0.17120  0.77930  Biso   1.000  H
  H5       1.0000 0.64030  0.32880  0.27930  Biso   1.000  H
  H6       1.0000 0.14030  0.82880  0.27930  Biso   1.000  H
  H7       1.0000 0.35970  0.32880  0.22070  Biso   1.000  H
  H8       1.0000 0.85970  0.82880  0.22070  Biso   1.000  H
  C25      1.0000 0.29901  0.76280  0.66017  Biso   1.000  C
  C26      1.0000 0.79901  0.26280  0.66017  Biso   1.000  C
  C27      1.0000 0.70099  0.76280  0.83983  Biso   1.000  C
  C28      1.0000 0.20099  0.26280  0.83983  Biso   1.000  C
  C29      1.0000 0.70099  0.23720  0.33983  Biso   1.000  C
  C30      1.0000 0.20099  0.73720  0.33983  Biso   1.000  C
  C31      1.0000 0.29901  0.23720  0.16017  Biso   1.000  C
  C32      1.0000 0.79901  0.73720  0.16017  Biso   1.000  C
  C33      1.0000 0.27238  0.59580  0.67428  Biso   1.000  C
  C34      1.0000 0.77238  0.09580  0.67428  Biso   1.000  C
  C35      1.0000 0.72762  0.59580  0.82572  Biso   1.000  C
  C36      1.0000 0.22762  0.09580  0.82572  Biso   1.000  C
  C37      1.0000 0.72762  0.40420  0.32572  Biso   1.000  C
  C38      1.0000 0.22762  0.90420  0.32572  Biso   1.000  C
  C39      1.0000 0.27238  0.40420  0.17428  Biso   1.000  C
  C40      1.0000 0.77238  0.90420  0.17428  Biso   1.000  C
  H9       1.0000 0.28570  0.48800  0.70370  Biso   1.000  H
  H10      1.0000 0.78570  0.98800  0.70370  Biso   1.000  H
  H11      1.0000 0.71430  0.48800  0.79630  Biso   1.000  H
  H12      1.0000 0.21430  0.98800  0.79630  Biso   1.000  H
  H13      1.0000 0.71430  0.51200  0.29630  Biso   1.000  H
  H14      1.0000 0.21430  0.01200  0.29630  Biso   1.000  H
  H15      1.0000 0.28570  0.51200  0.20370  Biso   1.000  H
  H16      1.0000 0.78570  0.01200  0.20370  Biso   1.000  H
  C41      1.0000 0.22799  0.59110  0.64557  Biso   1.000  C
  C42      1.0000 0.72799  0.09110  0.64557  Biso   1.000  C
  C43      1.0000 0.77201  0.59110  0.85443  Biso   1.000  C
  C44      1.0000 0.27201  0.09110  0.85443  Biso   1.000  C
  C45      1.0000 0.77201  0.40890  0.35443  Biso   1.000  C
  C46      1.0000 0.27201  0.90890  0.35443  Biso   1.000  C
  C47      1.0000 0.22799  0.40890  0.14557  Biso   1.000  C
  C48      1.0000 0.72799  0.90890  0.14557  Biso   1.000  C
  H17      1.0000 0.21110  0.47990  0.65550  Biso   1.000  H
  H18      1.0000 0.71110  0.97990  0.65550  Biso   1.000  H
  H19      1.0000 0.78890  0.47990  0.84450  Biso   1.000  H
  H20      1.0000 0.28890  0.97990  0.84450  Biso   1.000  H
  H21      1.0000 0.78890  0.52010  0.34450  Biso   1.000  H
  H22      1.0000 0.28890  0.02010  0.34450  Biso   1.000  H
  H23      1.0000 0.21110  0.52010  0.15550  Biso   1.000  H
  H24      1.0000 0.71110  0.02010  0.15550  Biso   1.000  H
  C49      1.0000 0.20668  0.75250  0.60056  Biso   1.000  C
  C50      1.0000 0.70668  0.25250  0.60056  Biso   1.000  C
  C51      1.0000 0.79332  0.75250  0.89944  Biso   1.000  C
  C52      1.0000 0.29332  0.25250  0.89944  Biso   1.000  C
  C53      1.0000 0.79332  0.24750  0.39944  Biso   1.000  C
  C54      1.0000 0.29332  0.74750  0.39944  Biso   1.000  C
  C55      1.0000 0.20668  0.24750  0.10056  Biso   1.000  C
  C56      1.0000 0.70668  0.74750  0.10056  Biso   1.000  C
  C57      1.0000 0.23130  0.91680  0.58502  Biso   1.000  C
  C58      1.0000 0.73130  0.41680  0.58502  Biso   1.000  C
  C59      1.0000 0.76870  0.91680  0.91498  Biso   1.000  C
  C60      1.0000 0.26870  0.41680  0.91498  Biso   1.000  C
  C61      1.0000 0.76870  0.08320  0.41498  Biso   1.000  C
  C62      1.0000 0.26870  0.58320  0.41498  Biso   1.000  C
  C63      1.0000 0.23130  0.08320  0.08502  Biso   1.000  C
  C64      1.0000 0.73130  0.58320  0.08502  Biso   1.000  C
  H25      1.0000 0.21740  0.02250  0.55500  Biso   1.000  H
  H26      1.0000 0.71740  0.52250  0.55500  Biso   1.000  H
  H27      1.0000 0.78260  0.02250  0.94500  Biso   1.000  H
  H28      1.0000 0.28260  0.52250  0.94500  Biso   1.000  H
  H29      1.0000 0.78260  0.97750  0.44500  Biso   1.000  H
  H30      1.0000 0.28260  0.47750  0.44500  Biso   1.000  H
  H31      1.0000 0.21740  0.97750  0.05500  Biso   1.000  H
  H32      1.0000 0.71740  0.47750  0.05500  Biso   1.000  H
  C65      1.0000 0.27774  0.92540  0.61459  Biso   1.000  C
  C66      1.0000 0.77774  0.42540  0.61459  Biso   1.000  C
  C67      1.0000 0.72226  0.92540  0.88541  Biso   1.000  C
  C68      1.0000 0.22226  0.42540  0.88541  Biso   1.000  C
  C69      1.0000 0.72226  0.07460  0.38541  Biso   1.000  C
  C70      1.0000 0.22226  0.57460  0.38541  Biso   1.000  C
  C71      1.0000 0.27774  0.07460  0.11459  Biso   1.000  C
  C72      1.0000 0.77774  0.57460  0.11459  Biso   1.000  C
  C73      1.0000 0.30397  0.09330  0.60178  Biso   1.000  C
  C74      1.0000 0.80397  0.59330  0.60178  Biso   1.000  C
  C75      1.0000 0.69603  0.09330  0.89822  Biso   1.000  C
  C76      1.0000 0.19603  0.59330  0.89822  Biso   1.000  C
  C77      1.0000 0.69603  0.90670  0.39822  Biso   1.000  C
  C78      1.0000 0.19603  0.40670  0.39822  Biso   1.000  C
  C79      1.0000 0.30397  0.90670  0.10178  Biso   1.000  C
  C80      1.0000 0.80397  0.40670  0.10178  Biso   1.000  C
  H33      1.0000 0.29060  0.20010  0.57160  Biso   1.000  H
  H34      1.0000 0.79060  0.70010  0.57160  Biso   1.000  H
  H35      1.0000 0.70940  0.20010  0.92840  Biso   1.000  H
  H36      1.0000 0.20940  0.70010  0.92840  Biso   1.000  H
  H37      1.0000 0.70940  0.79990  0.42840  Biso   1.000  H
  H38      1.0000 0.20940  0.29990  0.42840  Biso   1.000  H
  H39      1.0000 0.29060  0.79990  0.07160  Biso   1.000  H
  H40      1.0000 0.79060  0.29990  0.07160  Biso   1.000  H
  C81      1.0000 0.34869  0.10230  0.63273  Biso   1.000  C
  C82      1.0000 0.84869  0.60230  0.63273  Biso   1.000  C
  C83      1.0000 0.65131  0.10230  0.86727  Biso   1.000  C
  C84      1.0000 0.15131  0.60230  0.86727  Biso   1.000  C
  C85      1.0000 0.65131  0.89770  0.36727  Biso   1.000  C
  C86      1.0000 0.15131  0.39770  0.36727  Biso   1.000  C
  C87      1.0000 0.34869  0.89770  0.13273  Biso   1.000  C
  C88      1.0000 0.84869  0.39770  0.13273  Biso   1.000  C
  H41      1.0000 0.36520  0.21480  0.62340  Biso   1.000  H
  H42      1.0000 0.86520  0.71480  0.62340  Biso   1.000  H
  H43      1.0000 0.63480  0.21480  0.87660  Biso   1.000  H
  H44      1.0000 0.13480  0.71480  0.87660  Biso   1.000  H
  H45      1.0000 0.63480  0.78520  0.37660  Biso   1.000  H
  H46      1.0000 0.13480  0.28520  0.37660  Biso   1.000  H
  H47      1.0000 0.36520  0.78520  0.12340  Biso   1.000  H
  H48      1.0000 0.86520  0.28520  0.12340  Biso   1.000  H
  C89      1.0000 0.13114  0.86630  0.53628  Biso   1.000  C
  C90      1.0000 0.63114  0.36630  0.53628  Biso   1.000  C
  C91      1.0000 0.86886  0.86630  0.96372  Biso   1.000  C
  C92      1.0000 0.36886  0.36630  0.96372  Biso   1.000  C
  C93      1.0000 0.86886  0.13370  0.46372  Biso   1.000  C
  C94      1.0000 0.36886  0.63370  0.46372  Biso   1.000  C
  C95      1.0000 0.13114  0.13370  0.03628  Biso   1.000  C
  C96      1.0000 0.63114  0.63370  0.03628  Biso   1.000  C
  C97      1.0000 0.08218  0.81300  0.53737  Biso   1.000  C
  C98      1.0000 0.58218  0.31300  0.53737  Biso   1.000  C
  C99      1.0000 0.91782  0.81300  0.96263  Biso   1.000  C
  C100     1.0000 0.41782  0.31300  0.96263  Biso   1.000  C
  C101     1.0000 0.91782  0.18700  0.46263  Biso   1.000  C
  C102     1.0000 0.41782  0.68700  0.46263  Biso   1.000  C
  C103     1.0000 0.08218  0.18700  0.03737  Biso   1.000  C
  C104     1.0000 0.58218  0.68700  0.03737  Biso   1.000  C
  C105     1.0000 0.05252  0.82350  0.45994  Biso   1.000  C
  C106     1.0000 0.55252  0.32350  0.45994  Biso   1.000  C
  C107     1.0000 0.94748  0.82350  0.04006  Biso   1.000  C
  C108     1.0000 0.44748  0.32350  0.04006  Biso   1.000  C
  C109     1.0000 0.94748  0.17650  0.54006  Biso   1.000  C
  C110     1.0000 0.44748  0.67650  0.54006  Biso   1.000  C
  C111     1.0000 0.05252  0.17650  0.95994  Biso   1.000  C
  C112     1.0000 0.55252  0.67650  0.95994  Biso   1.000  C
  H49      1.0000 0.06240  0.86590  0.40530  Biso   1.000  H
  H50      1.0000 0.56240  0.36590  0.40530  Biso   1.000  H
  H51      1.0000 0.93760  0.86590  0.09470  Biso   1.000  H
  H52      1.0000 0.43760  0.36590  0.09470  Biso   1.000  H
  H53      1.0000 0.93760  0.13410  0.59470  Biso   1.000  H
  H54      1.0000 0.43760  0.63410  0.59470  Biso   1.000  H
  H55      1.0000 0.06240  0.13410  0.90530  Biso   1.000  H
  H56      1.0000 0.56240  0.63410  0.90530  Biso   1.000  H
  C113     1.0000 0.00809  0.76950  0.46597  Biso   1.000  C
  C114     1.0000 0.50809  0.26950  0.46597  Biso   1.000  C
  C115     1.0000 0.99191  0.76950  0.03403  Biso   1.000  C
  C116     1.0000 0.49191  0.26950  0.03403  Biso   1.000  C
  C117     1.0000 0.99191  0.23050  0.53403  Biso   1.000  C
  C118     1.0000 0.49191  0.73050  0.53403  Biso   1.000  C
  C119     1.0000 0.00809  0.23050  0.96597  Biso   1.000  C
  C120     1.0000 0.50809  0.73050  0.96597  Biso   1.000  C
  H57      1.0000 0.98770  0.77050  0.41470  Biso   1.000  H
  H58      1.0000 0.48770  0.27050  0.41470  Biso   1.000  H
  H59      1.0000 0.01230  0.77050  0.08530  Biso   1.000  H
  H60      1.0000 0.51230  0.27050  0.08530  Biso   1.000  H
  H61      1.0000 0.01230  0.22950  0.58530  Biso   1.000  H
  H62      1.0000 0.51230  0.72950  0.58530  Biso   1.000  H
  H63      1.0000 0.98770  0.22950  0.91470  Biso   1.000  H
  H64      1.0000 0.48770  0.72950  0.91470  Biso   1.000  H
  C121     1.0000 0.99396  0.71410  0.54859  Biso   1.000  C
  C122     1.0000 0.49396  0.21410  0.54859  Biso   1.000  C
  C123     1.0000 0.00604  0.71410  0.95141  Biso   1.000  C
  C124     1.0000 0.50604  0.21410  0.95141  Biso   1.000  C
  C125     1.0000 0.00604  0.28590  0.45141  Biso   1.000  C
  C126     1.0000 0.50604  0.78590  0.45141  Biso   1.000  C
  C127     1.0000 0.99396  0.28590  0.04859  Biso   1.000  C
  C128     1.0000 0.49396  0.78590  0.04859  Biso   1.000  C
  H65      1.0000 0.96380  0.67930  0.55180  Biso   1.000  H
  H66      1.0000 0.46380  0.17930  0.55180  Biso   1.000  H
  H67      1.0000 0.03620  0.67930  0.94820  Biso   1.000  H
  H68      1.0000 0.53620  0.17930  0.94820  Biso   1.000  H
  H69      1.0000 0.03620  0.32070  0.44820  Biso   1.000  H
  H70      1.0000 0.53620  0.82070  0.44820  Biso   1.000  H
  H71      1.0000 0.96380  0.32070  0.05180  Biso   1.000  H
  H72      1.0000 0.46380  0.82070  0.05180  Biso   1.000  H
  C129     1.0000 0.06539  0.75710  0.61731  Biso   1.000  C
  C130     1.0000 0.56539  0.25710  0.61731  Biso   1.000  C
  C131     1.0000 0.93461  0.75710  0.88269  Biso   1.000  C
  C132     1.0000 0.43461  0.25710  0.88269  Biso   1.000  C
  C133     1.0000 0.93461  0.24290  0.38269  Biso   1.000  C
  C134     1.0000 0.43461  0.74290  0.38269  Biso   1.000  C
  C135     1.0000 0.06539  0.24290  0.11731  Biso   1.000  C
  C136     1.0000 0.56539  0.74290  0.11731  Biso   1.000  C
  H73      1.0000 0.08520  0.75290  0.66920  Biso   1.000  H
  H74      1.0000 0.58520  0.25290  0.66920  Biso   1.000  H
  H75      1.0000 0.91480  0.75290  0.83080  Biso   1.000  H
  H76      1.0000 0.41480  0.25290  0.83080  Biso   1.000  H
  H77      1.0000 0.91480  0.24710  0.33080  Biso   1.000  H
  H78      1.0000 0.41480  0.74710  0.33080  Biso   1.000  H
  H79      1.0000 0.08520  0.24710  0.16920  Biso   1.000  H
  H80      1.0000 0.58520  0.74710  0.16920  Biso   1.000  H
  H81      1.0000 0.14780  0.63200  0.58800  Biso   1.000  H
  H82      1.0000 0.64780  0.13200  0.58800  Biso   1.000  H
  H83      1.0000 0.85220  0.63200  0.91200  Biso   1.000  H
  H84      1.0000 0.35220  0.13200  0.91200  Biso   1.000  H
  H85      1.0000 0.85220  0.36800  0.41200  Biso   1.000  H
  H86      1.0000 0.35220  0.86800  0.41200  Biso   1.000  H
  H87      1.0000 0.14780  0.36800  0.08800  Biso   1.000  H
  H88      1.0000 0.64780  0.86800  0.08800  Biso   1.000  H
  H89      1.0000 0.47570  0.59900  0.75400  Biso   1.000  H
  H90      1.0000 0.97570  0.09900  0.75400  Biso   1.000  H
  H91      1.0000 0.52430  0.59900  0.74600  Biso   1.000  H
  H92      1.0000 0.02430  0.09900  0.74600  Biso   1.000  H
  H93      1.0000 0.52430  0.40100  0.24600  Biso   1.000  H
  H94      1.0000 0.02430  0.90100  0.24600  Biso   1.000  H
  H95      1.0000 0.47570  0.40100  0.25400  Biso   1.000  H
  H96      1.0000 0.97570  0.90100  0.25400  Biso   1.000  H
  H97      1.0000 0.10360  0.33800  0.62300  Biso   1.000  H
  H98      1.0000 0.60360  0.83800  0.62300  Biso   1.000  H
  H99      1.0000 0.89640  0.33800  0.87700  Biso   1.000  H
  H100     1.0000 0.39640  0.83800  0.87700  Biso   1.000  H
  H101     1.0000 0.89640  0.66200  0.37700  Biso   1.000  H
  H102     1.0000 0.39640  0.16200  0.37700  Biso   1.000  H
  H103     1.0000 0.10360  0.66200  0.12300  Biso   1.000  H
  H104     1.0000 0.60360  0.16200  0.12300  Biso   1.000  H
  H105     1.0000 0.12230  0.27300  0.56100  Biso   1.000  H
  H106     1.0000 0.62230  0.77300  0.56100  Biso   1.000  H
  H107     1.0000 0.87770  0.27300  0.93900  Biso   1.000  H
  H108     1.0000 0.37770  0.77300  0.93900  Biso   1.000  H
  H109     1.0000 0.87770  0.72700  0.43900  Biso   1.000  H
  H110     1.0000 0.37770  0.22700  0.43900  Biso   1.000  H
  H111     1.0000 0.12230  0.72700  0.06100  Biso   1.000  H
  H112     1.0000 0.62230  0.22700  0.06100  Biso   1.000  H
