data_image0
_cell_length_a       8.8621
_cell_length_b       8.9016
_cell_length_c       12.523
_cell_angle_alpha    88.33
_cell_angle_beta     69.31
_cell_angle_gamma    66.85

_symmetry_space_group_name_H-M    "P 1"
_symmetry_int_tables_number       1

loop_
  _symmetry_equiv_pos_as_xyz
  'x, y, z'

loop_
  _atom_site_label
  _atom_site_occupancy
  _atom_site_fract_x
  _atom_site_fract_y
  _atom_site_fract_z
  _atom_site_thermal_displace_type
  _atom_site_B_iso_or_equiv
  _atom_site_type_symbol
  Cu1      1.0000 0.11580  0.01038  0.29697  Biso   1.000  Cu
  Cu2      1.0000 0.88420  0.98962  0.70303  Biso   1.000  Cu
  O1       1.0000 0.15473  0.80049  0.36822  Biso   1.000  O
  O2       1.0000 0.84527  0.19951  0.63178  Biso   1.000  O
  O3       1.0000 0.43890  0.72870  0.26090  Biso   1.000  O
  O4       1.0000 0.56110  0.27130  0.73910  Biso   1.000  O
  O5       1.0000 0.53028  0.43934  0.35228  Biso   1.000  O
  O6       1.0000 0.46972  0.56066  0.64772  Biso   1.000  O
  O7       1.0000 0.69680  0.05480  0.45196  Biso   1.000  O
  O8       1.0000 0.30320  0.94520  0.54804  Biso   1.000  O
  O9       1.0000 0.84330  0.19001  0.33789  Biso   1.000  O
  O10      1.0000 0.15670  0.80999  0.66211  Biso   1.000  O
  N1       1.0000 0.13010  0.90880  0.15292  Biso   1.000  N
  N2       1.0000 0.86990  0.09120  0.84708  Biso   1.000  N
  N3       1.0000 0.22420  0.14130  0.18474  Biso   1.000  N
  N4       1.0000 0.77580  0.85870  0.81526  Biso   1.000  N
  C1       1.0000 0.31910  0.70130  0.33247  Biso   1.000  C
  C2       1.0000 0.68090  0.29870  0.66753  Biso   1.000  C
  C3       1.0000 0.35690  0.54580  0.38399  Biso   1.000  C
  C4       1.0000 0.64310  0.45420  0.61601  Biso   1.000  C
  C5       1.0000 0.25250  0.48450  0.46097  Biso   1.000  C
  C6       1.0000 0.74750  0.51550  0.53903  Biso   1.000  C
  H1       1.0000 0.12990  0.53390  0.49560  Biso   1.000  H
  H2       1.0000 0.87010  0.46610  0.50440  Biso   1.000  H
  C7       1.0000 0.36600  0.33030  0.47860  Biso   1.000  C
  C8       1.0000 0.63400  0.66970  0.52140  Biso   1.000  C
  H3       1.0000 0.33270  0.25790  0.52650  Biso   1.000  H
  H4       1.0000 0.66730  0.74210  0.47350  Biso   1.000  H
  C9       1.0000 0.53190  0.30880  0.41239  Biso   1.000  C
  C10      1.0000 0.46810  0.69120  0.58761  Biso   1.000  C
  C11      1.0000 0.70640  0.17390  0.39860  Biso   1.000  C
  C12      1.0000 0.29360  0.82610  0.60140  Biso   1.000  C
  C13      1.0000 0.07760  0.78870  0.14630  Biso   1.000  C
  C14      1.0000 0.92240  0.21130  0.85370  Biso   1.000  C
  H5       1.0000 0.02500  0.75160  0.21360  Biso   1.000  H
  H6       1.0000 0.97500  0.24840  0.78640  Biso   1.000  H
  C15      1.0000 0.09940  0.71830  0.04160  Biso   1.000  C
  C16      1.0000 0.90060  0.28170  0.95840  Biso   1.000  C
  H7       1.0000 0.06120  0.63570  0.03850  Biso   1.000  H
  H8       1.0000 0.93880  0.36430  0.96150  Biso   1.000  H
  C17      1.0000 0.17900  0.77320  0.94210  Biso   1.000  C
  C18      1.0000 0.82100  0.22680  0.05790  Biso   1.000  C
  H9       1.0000 0.19790  0.72570  0.87080  Biso   1.000  H
  H10      1.0000 0.80210  0.27430  0.12920  Biso   1.000  H
  C19      1.0000 0.23060  0.89920  0.94902  Biso   1.000  C
  C20      1.0000 0.76940  0.10080  0.05098  Biso   1.000  C
  H11      1.0000 0.28280  0.93860  0.88280  Biso   1.000  H
  H12      1.0000 0.71720  0.06140  0.11720  Biso   1.000  H
  C21      1.0000 0.20330  0.96560  0.05623  Biso   1.000  C
  C22      1.0000 0.79670  0.03440  0.94377  Biso   1.000  C
  C23      1.0000 0.25150  0.10180  0.07481  Biso   1.000  C
  C24      1.0000 0.74850  0.89820  0.92519  Biso   1.000  C
  C25      1.0000 0.32090  0.18290  0.98753  Biso   1.000  C
  C26      1.0000 0.67910  0.81710  0.01247  Biso   1.000  C
  H13      1.0000 0.33890  0.15430  0.91180  Biso   1.000  H
  H14      1.0000 0.66110  0.84570  0.08820  Biso   1.000  H
  C27      1.0000 0.36260  0.30650  0.01480  Biso   1.000  C
  C28      1.0000 0.63740  0.69350  0.98520  Biso   1.000  C
  H15      1.0000 0.40860  0.36290  0.95760  Biso   1.000  H
  H16      1.0000 0.59140  0.63710  0.04240  Biso   1.000  H
  C29      1.0000 0.33590  0.34600  0.12760  Biso   1.000  C
  C30      1.0000 0.66410  0.65400  0.87240  Biso   1.000  C
  H17      1.0000 0.36480  0.42840  0.14720  Biso   1.000  H
  H18      1.0000 0.63520  0.57160  0.85280  Biso   1.000  H
  C31      1.0000 0.26590  0.26170  0.21050  Biso   1.000  C
  C32      1.0000 0.73410  0.73830  0.78950  Biso   1.000  C
  H19      1.0000 0.24680  0.28890  0.28670  Biso   1.000  H
  H20      1.0000 0.75320  0.71110  0.71330  Biso   1.000  H
  O11      1.0000 0.11770  0.12059  0.43017  Biso   1.000  O
  O12      1.0000 0.88230  0.87941  0.56983  Biso   1.000  O
  H21      1.0000 0.01400  0.16400  0.48340  Biso   1.000  H
  H22      1.0000 0.98600  0.83600  0.51660  Biso   1.000  H
  H23      1.0000 0.19100  0.05600  0.45800  Biso   1.000  H
  H24      1.0000 0.80900  0.94400  0.54200  Biso   1.000  H
  O13      1.0000 0.86520  0.51010  0.22050  Biso   1.000  O
  O14      1.0000 0.13480  0.48990  0.77950  Biso   1.000  O
  H25      1.0000 0.83200  0.45100  0.27200  Biso   1.000  H
  H26      1.0000 0.16800  0.54900  0.72800  Biso   1.000  H
  H27      1.0000 0.76700  0.59900  0.24100  Biso   1.000  H
  H28      1.0000 0.23300  0.40100  0.75900  Biso   1.000  H
  O15      1.0000 0.61050  0.92370  0.28400  Biso   1.000  O
  O16      1.0000 0.38950  0.07630  0.71600  Biso   1.000  O
  H29      1.0000 0.61100  0.95200  0.34900  Biso   1.000  H
  H30      1.0000 0.38900  0.04800  0.65100  Biso   1.000  H
  H31      1.0000 0.54000  0.87600  0.29100  Biso   1.000  H
  H32      1.0000 0.46000  0.12400  0.70900  Biso   1.000  H
