data_image0
_cell_length_a       8.383
_cell_length_b       10.234
_cell_length_c       11.098
_cell_angle_alpha    90.69
_cell_angle_beta     98.36
_cell_angle_gamma    91.6

_symmetry_space_group_name_H-M    "P 1"
_symmetry_int_tables_number       1

loop_
  _symmetry_equiv_pos_as_xyz
  'x, y, z'

loop_
  _atom_site_label
  _atom_site_occupancy
  _atom_site_fract_x
  _atom_site_fract_y
  _atom_site_fract_z
  _atom_site_thermal_displace_type
  _atom_site_B_iso_or_equiv
  _atom_site_type_symbol
  Cu1      1.0000 0.97518  0.52706  0.11169  Biso   1.000  Cu
  Cu2      1.0000 0.02482  0.47294  0.88831  Biso   1.000  Cu
  O1       1.0000 0.08380  0.69660  0.09100  Biso   1.000  O
  O2       1.0000 0.91620  0.30340  0.90900  Biso   1.000  O
  O3       1.0000 0.87760  0.34940  0.09940  Biso   1.000  O
  O4       1.0000 0.12240  0.65060  0.90060  Biso   1.000  O
  C1       1.0000 0.13280  0.72440  0.99280  Biso   1.000  C
  C2       1.0000 0.86720  0.27560  0.00720  Biso   1.000  C
  C3       1.0000 0.21280  0.85720  0.98430  Biso   1.000  C
  C4       1.0000 0.78720  0.14280  0.01570  Biso   1.000  C
  H1       1.0000 0.13170  0.92170  0.96890  Biso   1.000  H
  H2       1.0000 0.86830  0.07830  0.03110  Biso   1.000  H
  H3       1.0000 0.27640  0.85620  0.91910  Biso   1.000  H
  H4       1.0000 0.72360  0.14380  0.08090  Biso   1.000  H
  H5       1.0000 0.28110  0.87800  0.05960  Biso   1.000  H
  H6       1.0000 0.71890  0.12200  0.94040  Biso   1.000  H
  O5       1.0000 0.18940  0.45050  0.16344  Biso   1.000  O
  O6       1.0000 0.81060  0.54950  0.83656  Biso   1.000  O
  O7       1.0000 0.77140  0.59520  0.02610  Biso   1.000  O
  O8       1.0000 0.22860  0.40480  0.97390  Biso   1.000  O
  C5       1.0000 0.27150  0.40610  0.08660  Biso   1.000  C
  C6       1.0000 0.72850  0.59390  0.91340  Biso   1.000  C
  C7       1.0000 0.43150  0.35020  0.13410  Biso   1.000  C
  C8       1.0000 0.56850  0.64980  0.86590  Biso   1.000  C
  H7       1.0000 0.44210  0.26810  0.09360  Biso   1.000  H
  H8       1.0000 0.55790  0.73190  0.90640  Biso   1.000  H
  H9       1.0000 0.43820  0.33690  0.22010  Biso   1.000  H
  H10      1.0000 0.56180  0.66310  0.77990  Biso   1.000  H
  H11      1.0000 0.51650  0.40970  0.11880  Biso   1.000  H
  H12      1.0000 0.48350  0.59030  0.88120  Biso   1.000  H
  Cu3      1.0000 0.55248  0.11510  0.46971  Biso   1.000  Cu
  Cu4      1.0000 0.44752  0.88490  0.53029  Biso   1.000  Cu
  O9       1.0000 0.33500  0.11960  0.37540  Biso   1.000  O
  O10      1.0000 0.66500  0.88040  0.62460  Biso   1.000  O
  O11      1.0000 0.75740  0.07420  0.57040  Biso   1.000  O
  O12      1.0000 0.24260  0.92580  0.42960  Biso   1.000  O
  C9       1.0000 0.22910  0.03020  0.37090  Biso   1.000  C
  C10      1.0000 0.77090  0.96980  0.62910  Biso   1.000  C
  C11      1.0000 0.07320  0.04850  0.28660  Biso   1.000  C
  C12      1.0000 0.92680  0.95150  0.71340  Biso   1.000  C
  H13      1.0000 0.06300  0.98430  0.22190  Biso   1.000  H
  H14      1.0000 0.93700  0.01570  0.77810  Biso   1.000  H
  H15      1.0000 0.07340  0.13440  0.25290  Biso   1.000  H
  H16      1.0000 0.92660  0.86560  0.74710  Biso   1.000  H
  H17      1.0000 0.98400  0.03830  0.33130  Biso   1.000  H
  H18      1.0000 0.01600  0.96170  0.66870  Biso   1.000  H
  O13      1.0000 0.46880  0.16570  0.62290  Biso   1.000  O
  O14      1.0000 0.53120  0.83430  0.37710  Biso   1.000  O
  O15      1.0000 0.62580  0.02890  0.32840  Biso   1.000  O
  O16      1.0000 0.37420  0.97110  0.67160  Biso   1.000  O
  C13      1.0000 0.40390  0.09080  0.69170  Biso   1.000  C
  C14      1.0000 0.59610  0.90920  0.30830  Biso   1.000  C
  C15      1.0000 0.35840  0.14890  0.80680  Biso   1.000  C
  C16      1.0000 0.64160  0.85110  0.19320  Biso   1.000  C
  H19      1.0000 0.24440  0.13650  0.80670  Biso   1.000  H
  H20      1.0000 0.75560  0.86350  0.19330  Biso   1.000  H
  H21      1.0000 0.38590  0.24070  0.81100  Biso   1.000  H
  H22      1.0000 0.61410  0.75930  0.18900  Biso   1.000  H
  H23      1.0000 0.41580  0.10660  0.87600  Biso   1.000  H
  H24      1.0000 0.58420  0.89340  0.12400  Biso   1.000  H
  N1       1.0000 0.91730  0.56940  0.29100  Biso   1.000  N
  N2       1.0000 0.08270  0.43060  0.70900  Biso   1.000  N
  C17      1.0000 0.82280  0.48680  0.34240  Biso   1.000  C
  C18      1.0000 0.17720  0.51320  0.65760  Biso   1.000  C
  H25      1.0000 0.78830  0.40930  0.30070  Biso   1.000  H
  H26      1.0000 0.21170  0.59070  0.69930  Biso   1.000  H
  C19      1.0000 0.77280  0.50920  0.45400  Biso   1.000  C
  C20      1.0000 0.22720  0.49080  0.54600  Biso   1.000  C
  C21      1.0000 0.82170  0.62610  0.51520  Biso   1.000  C
  C22      1.0000 0.17830  0.37390  0.48480  Biso   1.000  C
  H27      1.0000 0.78850  0.64590  0.58950  Biso   1.000  H
  H28      1.0000 0.21150  0.35410  0.41050  Biso   1.000  H
  C23      1.0000 0.92100  0.71250  0.46270  Biso   1.000  C
  C24      1.0000 0.07900  0.28750  0.53730  Biso   1.000  C
  H29      1.0000 0.95640  0.79110  0.50200  Biso   1.000  H
  H30      1.0000 0.04360  0.20890  0.49800  Biso   1.000  H
  C25      1.0000 0.96640  0.68080  0.35270  Biso   1.000  C
  C26      1.0000 0.03360  0.31920  0.64730  Biso   1.000  C
  H31      1.0000 0.03430  0.73890  0.31910  Biso   1.000  H
  H32      1.0000 0.96570  0.26110  0.68090  Biso   1.000  H
  C27      1.0000 0.67260  0.40390  0.50140  Biso   1.000  C
  C28      1.0000 0.32740  0.59610  0.49860  Biso   1.000  C
  N3       1.0000 0.64550  0.41120  0.61520  Biso   1.000  N
  N4       1.0000 0.35450  0.58880  0.38480  Biso   1.000  N
  H33      1.0000 0.69300  0.45700  0.66100  Biso   1.000  H
  H34      1.0000 0.30700  0.54300  0.33900  Biso   1.000  H
  H35      1.0000 0.59300  0.35700  0.63800  Biso   1.000  H
  H36      1.0000 0.40700  0.64300  0.36200  Biso   1.000  H
  O17      1.0000 0.61870  0.31264  0.43105  Biso   1.000  O
  O18      1.0000 0.38130  0.68736  0.56895  Biso   1.000  O
