data_image0
_cell_length_a       20.9742
_cell_length_b       7.20756
_cell_length_c       13.122
_cell_angle_alpha    90
_cell_angle_beta     90
_cell_angle_gamma    90

_symmetry_space_group_name_H-M    "P 1"
_symmetry_int_tables_number       1

loop_
  _symmetry_equiv_pos_as_xyz
  'x, y, z'

loop_
  _atom_site_label
  _atom_site_occupancy
  _atom_site_fract_x
  _atom_site_fract_y
  _atom_site_fract_z
  _atom_site_thermal_displace_type
  _atom_site_B_iso_or_equiv
  _atom_site_type_symbol
  C1       1.0000 0.14390  0.65870  0.09120  Biso   1.000  C
  C2       1.0000 0.85610  0.15870  0.40880  Biso   1.000  C
  C3       1.0000 0.35610  0.34130  0.59120  Biso   1.000  C
  C4       1.0000 0.64390  0.84130  0.90880  Biso   1.000  C
  C5       1.0000 0.85610  0.34130  0.90880  Biso   1.000  C
  C6       1.0000 0.14390  0.84130  0.59120  Biso   1.000  C
  C7       1.0000 0.64390  0.65870  0.40880  Biso   1.000  C
  C8       1.0000 0.35610  0.15870  0.09120  Biso   1.000  C
  C9       1.0000 0.19410  0.53200  0.04680  Biso   1.000  C
  C10      1.0000 0.80590  0.03200  0.45320  Biso   1.000  C
  C11      1.0000 0.30590  0.46800  0.54680  Biso   1.000  C
  C12      1.0000 0.69410  0.96800  0.95320  Biso   1.000  C
  C13      1.0000 0.80590  0.46800  0.95320  Biso   1.000  C
  C14      1.0000 0.19410  0.96800  0.54680  Biso   1.000  C
  C15      1.0000 0.69410  0.53200  0.45320  Biso   1.000  C
  C16      1.0000 0.30590  0.03200  0.04680  Biso   1.000  C
  O1       1.0000 0.08990  0.64600  0.05110  Biso   1.000  O
  O2       1.0000 0.91010  0.14600  0.44890  Biso   1.000  O
  O3       1.0000 0.41010  0.35400  0.55110  Biso   1.000  O
  O4       1.0000 0.58990  0.85400  0.94890  Biso   1.000  O
  O5       1.0000 0.91010  0.35400  0.94890  Biso   1.000  O
  O6       1.0000 0.08990  0.85400  0.55110  Biso   1.000  O
  O7       1.0000 0.58990  0.64600  0.44890  Biso   1.000  O
  O8       1.0000 0.41010  0.14600  0.05110  Biso   1.000  O
  O9       1.0000 0.16350  0.76400  0.16520  Biso   1.000  O
  O10      1.0000 0.83650  0.26400  0.33480  Biso   1.000  O
  O11      1.0000 0.33650  0.23600  0.66520  Biso   1.000  O
  O12      1.0000 0.66350  0.73600  0.83480  Biso   1.000  O
  O13      1.0000 0.83650  0.23600  0.83480  Biso   1.000  O
  O14      1.0000 0.16350  0.73600  0.66520  Biso   1.000  O
  O15      1.0000 0.66350  0.76400  0.33480  Biso   1.000  O
  O16      1.0000 0.33650  0.26400  0.16520  Biso   1.000  O
  Cu1      1.0000 0.10005  0.87402  0.24488  Biso   1.000  Cu
  Cu2      1.0000 0.89995  0.37402  0.25512  Biso   1.000  Cu
  Cu3      1.0000 0.39995  0.12598  0.74488  Biso   1.000  Cu
  Cu4      1.0000 0.60005  0.62598  0.75512  Biso   1.000  Cu
  Cu5      1.0000 0.89995  0.12598  0.75512  Biso   1.000  Cu
  Cu6      1.0000 0.10005  0.62598  0.74488  Biso   1.000  Cu
  Cu7      1.0000 0.60005  0.87402  0.25512  Biso   1.000  Cu
  Cu8      1.0000 0.39995  0.37402  0.24488  Biso   1.000  Cu
  O17      1.0000 0.03780  0.66060  0.25070  Biso   1.000  O
  O18      1.0000 0.96220  0.16060  0.24930  Biso   1.000  O
  O19      1.0000 0.46220  0.33940  0.75070  Biso   1.000  O
  O20      1.0000 0.53780  0.83940  0.74930  Biso   1.000  O
  O21      1.0000 0.96220  0.33940  0.74930  Biso   1.000  O
  O22      1.0000 0.03780  0.83940  0.75070  Biso   1.000  O
  O23      1.0000 0.53780  0.66060  0.24930  Biso   1.000  O
  O24      1.0000 0.46220  0.16060  0.25070  Biso   1.000  O
  O25      1.0000 0.02440  0.93940  0.12530  Biso   1.000  O
  O26      1.0000 0.97560  0.43940  0.37470  Biso   1.000  O
  O27      1.0000 0.47560  0.06060  0.62530  Biso   1.000  O
  O28      1.0000 0.52440  0.56060  0.87470  Biso   1.000  O
  O29      1.0000 0.97560  0.06060  0.87470  Biso   1.000  O
  O30      1.0000 0.02440  0.56060  0.62530  Biso   1.000  O
  O31      1.0000 0.52440  0.93940  0.37470  Biso   1.000  O
  O32      1.0000 0.47560  0.43940  0.12530  Biso   1.000  O
  Cu9      1.0000 0.99467  0.69610  0.12060  Biso   1.000  Cu
  Cu10     1.0000 0.00533  0.19610  0.37940  Biso   1.000  Cu
  Cu11     1.0000 0.50533  0.30390  0.62060  Biso   1.000  Cu
  Cu12     1.0000 0.49467  0.80390  0.87940  Biso   1.000  Cu
  Cu13     1.0000 0.00533  0.30390  0.87940  Biso   1.000  Cu
  Cu14     1.0000 0.99467  0.80390  0.62060  Biso   1.000  Cu
  Cu15     1.0000 0.49467  0.69610  0.37940  Biso   1.000  Cu
  Cu16     1.0000 0.50533  0.19610  0.12060  Biso   1.000  Cu
  C17      1.0000 0.13830  0.25000  0.26970  Biso   1.000  C
  C18      1.0000 0.86170  0.75000  0.23030  Biso   1.000  C
  C19      1.0000 0.36170  0.75000  0.76970  Biso   1.000  C
  C20      1.0000 0.63830  0.25000  0.73030  Biso   1.000  C
  C21      1.0000 0.86170  0.75000  0.73030  Biso   1.000  C
  C22      1.0000 0.13830  0.25000  0.76970  Biso   1.000  C
  C23      1.0000 0.63830  0.25000  0.23030  Biso   1.000  C
  C24      1.0000 0.36170  0.75000  0.26970  Biso   1.000  C
  C25      1.0000 0.18570  0.38040  0.31440  Biso   1.000  C
  C26      1.0000 0.81430  0.88040  0.18560  Biso   1.000  C
  C27      1.0000 0.31430  0.61960  0.81440  Biso   1.000  C
  C28      1.0000 0.68570  0.11960  0.68560  Biso   1.000  C
  C29      1.0000 0.81430  0.61960  0.68560  Biso   1.000  C
  C30      1.0000 0.18570  0.11960  0.81440  Biso   1.000  C
  C31      1.0000 0.68570  0.38040  0.18560  Biso   1.000  C
  C32      1.0000 0.31430  0.88040  0.31440  Biso   1.000  C
  O33      1.0000 0.15670  0.08950  0.26070  Biso   1.000  O
  O34      1.0000 0.84330  0.58950  0.23930  Biso   1.000  O
  O35      1.0000 0.34330  0.91050  0.76070  Biso   1.000  O
  O36      1.0000 0.65670  0.41050  0.73930  Biso   1.000  O
  O37      1.0000 0.84330  0.91050  0.73930  Biso   1.000  O
  O38      1.0000 0.15670  0.41050  0.76070  Biso   1.000  O
  O39      1.0000 0.65670  0.08950  0.23930  Biso   1.000  O
  O40      1.0000 0.34330  0.58950  0.26070  Biso   1.000  O
  O41      1.0000 0.08570  0.30600  0.24510  Biso   1.000  O
  O42      1.0000 0.91430  0.80600  0.25490  Biso   1.000  O
  O43      1.0000 0.41430  0.69400  0.74510  Biso   1.000  O
  O44      1.0000 0.58570  0.19400  0.75490  Biso   1.000  O
  O45      1.0000 0.91430  0.69400  0.75490  Biso   1.000  O
  O46      1.0000 0.08570  0.19400  0.74510  Biso   1.000  O
  O47      1.0000 0.58570  0.30600  0.25490  Biso   1.000  O
  O48      1.0000 0.41430  0.80600  0.24510  Biso   1.000  O
  Cu17     1.0000 0.99390  0.70540  0.36958  Biso   1.000  Cu
  Cu18     1.0000 0.00610  0.20540  0.13042  Biso   1.000  Cu
  Cu19     1.0000 0.50610  0.29460  0.86958  Biso   1.000  Cu
  Cu20     1.0000 0.49390  0.79460  0.63042  Biso   1.000  Cu
  Cu21     1.0000 0.00610  0.29460  0.63042  Biso   1.000  Cu
  Cu22     1.0000 0.99390  0.79460  0.86958  Biso   1.000  Cu
  Cu23     1.0000 0.49390  0.70540  0.13042  Biso   1.000  Cu
  Cu24     1.0000 0.50610  0.20540  0.36958  Biso   1.000  Cu
  O49      1.0000 0.04560  0.93030  0.36770  Biso   1.000  O
  O50      1.0000 0.95440  0.43030  0.13230  Biso   1.000  O
  O51      1.0000 0.45440  0.06970  0.86770  Biso   1.000  O
  O52      1.0000 0.54560  0.56970  0.63230  Biso   1.000  O
  O53      1.0000 0.95440  0.06970  0.63230  Biso   1.000  O
  O54      1.0000 0.04560  0.56970  0.86770  Biso   1.000  O
  O55      1.0000 0.54560  0.93030  0.13230  Biso   1.000  O
  O56      1.0000 0.45440  0.43030  0.36770  Biso   1.000  O
  O57      1.0000 0.94800  0.74670  0.98910  Biso   1.000  O
  O58      1.0000 0.05200  0.24670  0.51090  Biso   1.000  O
  O59      1.0000 0.55200  0.25330  0.48910  Biso   1.000  O
  O60      1.0000 0.44800  0.75330  0.01090  Biso   1.000  O
  O61      1.0000 0.05200  0.25330  0.01090  Biso   1.000  O
  O62      1.0000 0.94800  0.75330  0.48910  Biso   1.000  O
  O63      1.0000 0.44800  0.74670  0.51090  Biso   1.000  O
  O64      1.0000 0.55200  0.24670  0.98910  Biso   1.000  O
