data_image0
_cell_length_a       12.743
_cell_length_b       13.9644
_cell_length_c       14.7971
_cell_angle_alpha    84.9842
_cell_angle_beta     83.4508
_cell_angle_gamma    64.4417

_symmetry_space_group_name_H-M    "P 1"
_symmetry_int_tables_number       1

loop_
  _symmetry_equiv_pos_as_xyz
  'x, y, z'

loop_
  _atom_site_label
  _atom_site_occupancy
  _atom_site_fract_x
  _atom_site_fract_y
  _atom_site_fract_z
  _atom_site_thermal_displace_type
  _atom_site_B_iso_or_equiv
  _atom_site_type_symbol
  Cu1      1.0000 0.88551  0.46759  0.99259  Biso   1.000  Cu
  Cu2      1.0000 0.11449  0.53241  0.00741  Biso   1.000  Cu
  O1       1.0000 0.97673  0.33854  0.06524  Biso   1.000  O
  O2       1.0000 0.02327  0.66146  0.93476  Biso   1.000  O
  O3       1.0000 0.88630  0.36682  0.90975  Biso   1.000  O
  O4       1.0000 0.11370  0.63318  0.09025  Biso   1.000  O
  O5       1.0000 0.72069  0.40608  0.06639  Biso   1.000  O
  O6       1.0000 0.27931  0.59392  0.93361  Biso   1.000  O
  O7       1.0000 0.90187  0.56162  0.07461  Biso   1.000  O
  O8       1.0000 0.09813  0.43838  0.92539  Biso   1.000  O
  O9       1.0000 0.77956  0.59512  0.93490  Biso   1.000  O
  O10      1.0000 0.22044  0.40488  0.06510  Biso   1.000  O
  C1       1.0000 0.95680  0.26130  0.04550  Biso   1.000  C
  C2       1.0000 0.04320  0.73870  0.95450  Biso   1.000  C
  C3       1.0000 0.87860  0.28420  0.96774  Biso   1.000  C
  C4       1.0000 0.12140  0.71580  0.03226  Biso   1.000  C
  Cu3      1.0000 0.61429  0.53352  0.00890  Biso   1.000  Cu
  Cu4      1.0000 0.38571  0.46648  0.99110  Biso   1.000  Cu
  C5       1.0000 0.75280  0.31790  0.01265  Biso   1.000  C
  C6       1.0000 0.24720  0.68210  0.98735  Biso   1.000  C
  C7       1.0000 0.82980  0.65840  0.06270  Biso   1.000  C
  C8       1.0000 0.17020  0.34160  0.93730  Biso   1.000  C
  C9       1.0000 0.74760  0.68350  0.98837  Biso   1.000  C
  C10      1.0000 0.25240  0.31650  0.01163  Biso   1.000  C
  O11      1.0000 0.99250  0.17425  0.08819  Biso   1.000  O
  O12      1.0000 0.00750  0.82575  0.91181  Biso   1.000  O
  H1       1.0000 0.90230  0.22010  0.93350  Biso   1.000  H
  H2       1.0000 0.09770  0.77990  0.06650  Biso   1.000  H
  O13      1.0000 0.59821  0.43953  0.92669  Biso   1.000  O
  O14      1.0000 0.40179  0.56047  0.07331  Biso   1.000  O
  O15      1.0000 0.61345  0.63413  0.09121  Biso   1.000  O
  O16      1.0000 0.38655  0.36587  0.90879  Biso   1.000  O
  O17      1.0000 0.52371  0.66266  0.93568  Biso   1.000  O
  O18      1.0000 0.47629  0.33734  0.06432  Biso   1.000  O
  H3       1.0000 0.74970  0.25860  0.05170  Biso   1.000  H
  H4       1.0000 0.25030  0.74140  0.94830  Biso   1.000  H
  C11      1.0000 0.66970  0.34340  0.93880  Biso   1.000  C
  C12      1.0000 0.33030  0.65660  0.06120  Biso   1.000  C
  O19      1.0000 0.82559  0.73135  0.10856  Biso   1.000  O
  O20      1.0000 0.17441  0.26865  0.89144  Biso   1.000  O
  H5       1.0000 0.75060  0.74280  0.94930  Biso   1.000  H
  H6       1.0000 0.24940  0.25720  0.05070  Biso   1.000  H
  C13      1.0000 0.62160  0.71670  0.03340  Biso   1.000  C
  C14      1.0000 0.37840  0.28330  0.96660  Biso   1.000  C
  C15      1.0000 0.54490  0.73930  0.95480  Biso   1.000  C
  C16      1.0000 0.45510  0.26070  0.04520  Biso   1.000  C
  O21      1.0000 0.67352  0.27050  0.89255  Biso   1.000  O
  O22      1.0000 0.32648  0.72950  0.10745  Biso   1.000  O
  H7       1.0000 0.59720  0.78090  0.06760  Biso   1.000  H
  H8       1.0000 0.40280  0.21910  0.93240  Biso   1.000  H
  O23      1.0000 0.50990  0.82620  0.91167  Biso   1.000  O
  O24      1.0000 0.49010  0.17380  0.08833  Biso   1.000  O
  C17      1.0000 0.51210  0.27950  0.54060  Biso   1.000  C
  C18      1.0000 0.48790  0.72050  0.45940  Biso   1.000  C
  C19      1.0000 0.58740  0.30600  0.46329  Biso   1.000  C
  C20      1.0000 0.41260  0.69400  0.53671  Biso   1.000  C
  H9       1.0000 0.61340  0.25220  0.41740  Biso   1.000  H
  H10      1.0000 0.38660  0.74780  0.58260  Biso   1.000  H
  O25      1.0000 0.41279  0.35474  0.56385  Biso   1.000  O
  O26      1.0000 0.58721  0.64526  0.43615  Biso   1.000  O
  O27      1.0000 0.54915  0.19002  0.57887  Biso   1.000  O
  O28      1.0000 0.45085  0.80998  0.42113  Biso   1.000  O
  O29      1.0000 0.52559  0.40664  0.42213  Biso   1.000  O
  O30      1.0000 0.47441  0.59336  0.57787  Biso   1.000  O
  C21      1.0000 0.69540  0.30220  0.50540  Biso   1.000  C
  C22      1.0000 0.30460  0.69780  0.49460  Biso   1.000  C
  H11      1.0000 0.74200  0.23040  0.52990  Biso   1.000  H
  H12      1.0000 0.25800  0.76960  0.47010  Biso   1.000  H
  C23      1.0000 0.76620  0.33310  0.42720  Biso   1.000  C
  C24      1.0000 0.23380  0.66690  0.57280  Biso   1.000  C
  O31      1.0000 0.66030  0.37639  0.57450  Biso   1.000  O
  O32      1.0000 0.33970  0.62361  0.42550  Biso   1.000  O
  O33      1.0000 0.75044  0.42973  0.42273  Biso   1.000  O
  O34      1.0000 0.24956  0.57027  0.57727  Biso   1.000  O
  O35      1.0000 0.83082  0.26669  0.37069  Biso   1.000  O
  O36      1.0000 0.16918  0.73331  0.62931  Biso   1.000  O
  C25      1.0000 0.03170  0.26780  0.54230  Biso   1.000  C
  C26      1.0000 0.96830  0.73220  0.45770  Biso   1.000  C
  C27      1.0000 0.09940  0.30070  0.46367  Biso   1.000  C
  C28      1.0000 0.90060  0.69930  0.53633  Biso   1.000  C
  H13      1.0000 0.13250  0.24470  0.41940  Biso   1.000  H
  H14      1.0000 0.86750  0.75530  0.58060  Biso   1.000  H
  O37      1.0000 0.92834  0.33753  0.56545  Biso   1.000  O
  O38      1.0000 0.07166  0.66247  0.43455  Biso   1.000  O
  O39      1.0000 0.07769  0.18006  0.58288  Biso   1.000  O
  O40      1.0000 0.92231  0.81994  0.41712  Biso   1.000  O
  O41      1.0000 0.02955  0.39627  0.42028  Biso   1.000  O
  O42      1.0000 0.97045  0.60373  0.57972  Biso   1.000  O
  C29      1.0000 0.20000  0.31280  0.50436  Biso   1.000  C
  C30      1.0000 0.80000  0.68720  0.49564  Biso   1.000  C
  H15      1.0000 0.25300  0.24430  0.53060  Biso   1.000  H
  H16      1.0000 0.74700  0.75570  0.46940  Biso   1.000  H
  C31      1.0000 0.26470  0.34860  0.42643  Biso   1.000  C
  C32      1.0000 0.73530  0.65140  0.57357  Biso   1.000  C
  O43      1.0000 0.15495  0.38923  0.57207  Biso   1.000  O
  O44      1.0000 0.84505  0.61077  0.42793  Biso   1.000  O
  O45      1.0000 0.24056  0.44746  0.41982  Biso   1.000  O
  O46      1.0000 0.75944  0.55254  0.58018  Biso   1.000  O
  O47      1.0000 0.33385  0.28339  0.37010  Biso   1.000  O
  O48      1.0000 0.66615  0.71661  0.62990  Biso   1.000  O
  Cu5      1.0000 0.38380  0.48771  0.49256  Biso   1.000  Cu
  Cu6      1.0000 0.61620  0.51229  0.50744  Biso   1.000  Cu
  Cu7      1.0000 0.10985  0.52603  0.50706  Biso   1.000  Cu
  Cu8      1.0000 0.89015  0.47397  0.49294  Biso   1.000  Cu
  Li1      1.0000 0.19670  0.03440  0.57920  Biso   1.000  Li
  Li2      1.0000 0.80330  0.96560  0.42080  Biso   1.000  Li
  O49      1.0000 0.27460  0.99477  0.46020  Biso   1.000  O
  O50      1.0000 0.72540  0.00523  0.53980  Biso   1.000  O
  O51      1.0000 0.11680  0.94700  0.63080  Biso   1.000  O
  O52      1.0000 0.88320  0.05300  0.36920  Biso   1.000  O
  H17      1.0000 0.13500  0.88190  0.63200  Biso   1.000  H
  H18      1.0000 0.86500  0.11810  0.36800  Biso   1.000  H
  H19      1.0000 0.04410  0.96900  0.63200  Biso   1.000  H
  H20      1.0000 0.95590  0.03100  0.36800  Biso   1.000  H
  Li3      1.0000 0.53070  0.42750  0.29280  Biso   1.000  Li
  Li4      1.0000 0.46930  0.57250  0.70720  Biso   1.000  Li
  O53      1.0000 0.41760  0.39436  0.24404  Biso   1.000  O
  O54      1.0000 0.58240  0.60564  0.75596  Biso   1.000  O
  H21      1.0000 0.40600  0.34690  0.27510  Biso   1.000  H
  H22      1.0000 0.59400  0.65310  0.72490  Biso   1.000  H
  H23      1.0000 0.43600  0.37400  0.19150  Biso   1.000  H
  H24      1.0000 0.56400  0.62600  0.80850  Biso   1.000  H
  O55      1.0000 0.67647  0.33659  0.22692  Biso   1.000  O
  O56      1.0000 0.32353  0.66341  0.77308  Biso   1.000  O
  H25      1.0000 0.69200  0.36300  0.17790  Biso   1.000  H
  H26      1.0000 0.30800  0.63700  0.82210  Biso   1.000  H
  H27      1.0000 0.73300  0.32000  0.25650  Biso   1.000  H
  H28      1.0000 0.26700  0.68000  0.74350  Biso   1.000  H
  O57      1.0000 0.49689  0.58008  0.27958  Biso   1.000  O
  O58      1.0000 0.50311  0.41992  0.72042  Biso   1.000  O
  H29      1.0000 0.45400  0.59900  0.32670  Biso   1.000  H
  H30      1.0000 0.54600  0.40100  0.67330  Biso   1.000  H
  H31      1.0000 0.56070  0.57700  0.29100  Biso   1.000  H
  H32      1.0000 0.43930  0.42300  0.70900  Biso   1.000  H
  Li5      1.0000 0.46850  0.68130  0.17220  Biso   1.000  Li
  Li6      1.0000 0.53150  0.31870  0.82780  Biso   1.000  Li
  O59      1.0000 0.44100  0.80991  0.23133  Biso   1.000  O
  O60      1.0000 0.55900  0.19009  0.76867  Biso   1.000  O
  H33      1.0000 0.42600  0.87050  0.21100  Biso   1.000  H
  H34      1.0000 0.57400  0.12950  0.78900  Biso   1.000  H
  H35      1.0000 0.44700  0.81100  0.28600  Biso   1.000  H
  H36      1.0000 0.55300  0.18900  0.71400  Biso   1.000  H
  Li7      1.0000 0.03050  0.42270  0.29210  Biso   1.000  Li
  Li8      1.0000 0.96950  0.57730  0.70790  Biso   1.000  Li
  O61      1.0000 0.91830  0.38464  0.24674  Biso   1.000  O
  O62      1.0000 0.08170  0.61536  0.75326  Biso   1.000  O
  H37      1.0000 0.93400  0.36400  0.19500  Biso   1.000  H
  H38      1.0000 0.06600  0.63600  0.80500  Biso   1.000  H
  H39      1.0000 0.90200  0.34200  0.28050  Biso   1.000  H
  H40      1.0000 0.09800  0.65800  0.71950  Biso   1.000  H
  O63      1.0000 0.99732  0.57528  0.27988  Biso   1.000  O
  O64      1.0000 0.00268  0.42472  0.72012  Biso   1.000  O
  H41      1.0000 0.95700  0.59300  0.32910  Biso   1.000  H
  H42      1.0000 0.04300  0.40700  0.67090  Biso   1.000  H
  H43      1.0000 0.06230  0.57000  0.28900  Biso   1.000  H
  H44      1.0000 0.93770  0.43000  0.71100  Biso   1.000  H
  O65      1.0000 0.17696  0.33752  0.22635  Biso   1.000  O
  O66      1.0000 0.82304  0.66248  0.77365  Biso   1.000  O
  H45      1.0000 0.19300  0.36500  0.17770  Biso   1.000  H
  H46      1.0000 0.80700  0.63500  0.82230  Biso   1.000  H
  H47      1.0000 0.23400  0.32000  0.25620  Biso   1.000  H
  H48      1.0000 0.76600  0.68000  0.74380  Biso   1.000  H
  Li9      1.0000 0.79350  0.33680  0.65080  Biso   1.000  Li
  Li10     1.0000 0.20650  0.66320  0.34920  Biso   1.000  Li
  O67      1.0000 0.78466  0.41983  0.75098  Biso   1.000  O
  O68      1.0000 0.21534  0.58017  0.24902  Biso   1.000  O
  H49      1.0000 0.80100  0.40600  0.80470  Biso   1.000  H
  H50      1.0000 0.19900  0.59400  0.19530  Biso   1.000  H
  H51      1.0000 0.72800  0.47850  0.75300  Biso   1.000  H
  H52      1.0000 0.27200  0.52150  0.24700  Biso   1.000  H
  O69      1.0000 0.81880  0.20232  0.72102  Biso   1.000  O
  O70      1.0000 0.18120  0.79768  0.27898  Biso   1.000  O
  H53      1.0000 0.81800  0.14900  0.70100  Biso   1.000  H
  H54      1.0000 0.18200  0.85100  0.29900  Biso   1.000  H
  H55      1.0000 0.77600  0.21800  0.76820  Biso   1.000  H
  H56      1.0000 0.22400  0.78200  0.23180  Biso   1.000  H
  Li11     1.0000 0.96900  0.67690  0.17230  Biso   1.000  Li
  Li12     1.0000 0.03100  0.32310  0.82770  Biso   1.000  Li
  Li13     1.0000 0.01090  0.03300  0.08030  Biso   1.000  Li
  Li14     1.0000 0.98910  0.96700  0.91970  Biso   1.000  Li
  O71      1.0000 0.89500  0.01500  0.16710  Biso   1.000  O
  O72      1.0000 0.10500  0.98500  0.83290  Biso   1.000  O
  O73      1.0000 0.32470  0.00680  0.65935  Biso   1.000  O
  O74      1.0000 0.67530  0.99320  0.34065  Biso   1.000  O
  H57      1.0000 0.39490  0.99700  0.65600  Biso   1.000  H
  H58      1.0000 0.60510  0.00300  0.34400  Biso   1.000  H
  H59      1.0000 0.32500  0.96300  0.70200  Biso   1.000  H
  H60      1.0000 0.67500  0.03700  0.29800  Biso   1.000  H
  Li15     1.0000 0.28650  0.34340  0.65180  Biso   1.000  Li
  Li16     1.0000 0.71350  0.65660  0.34820  Biso   1.000  Li
  O75      1.0000 0.28202  0.42513  0.75085  Biso   1.000  O
  O76      1.0000 0.71798  0.57487  0.24915  Biso   1.000  O
  H61      1.0000 0.29900  0.40400  0.80330  Biso   1.000  H
  H62      1.0000 0.70100  0.59600  0.19670  Biso   1.000  H
  H63      1.0000 0.22500  0.48300  0.75300  Biso   1.000  H
  H64      1.0000 0.77500  0.51700  0.24700  Biso   1.000  H
  O77      1.0000 0.29450  0.21246  0.71432  Biso   1.000  O
  O78      1.0000 0.70550  0.78754  0.28568  Biso   1.000  O
  H65      1.0000 0.30900  0.15000  0.70700  Biso   1.000  H
  H66      1.0000 0.69100  0.85000  0.29300  Biso   1.000  H
  H67      1.0000 0.27500  0.22000  0.76950  Biso   1.000  H
  H68      1.0000 0.72500  0.78000  0.23050  Biso   1.000  H
  O79      1.0000 0.96600  0.80421  0.22841  Biso   1.000  O
  O80      1.0000 0.03400  0.19579  0.77159  Biso   1.000  O
  H69      1.0000 0.94500  0.81100  0.28370  Biso   1.000  H
  H70      1.0000 0.05500  0.18900  0.71630  Biso   1.000  H
  H71      1.0000 0.92600  0.86090  0.20300  Biso   1.000  H
  H72      1.0000 0.07400  0.13910  0.79700  Biso   1.000  H
  O81      1.0000 0.23990  0.93870  0.03850  Biso   1.000  O
  O82      1.0000 0.76010  0.06130  0.96150  Biso   1.000  O
  O83      1.0000 0.60410  0.97630  0.80860  Biso   1.000  O
  O84      1.0000 0.39590  0.02370  0.19140  Biso   1.000  O
  H73      1.0000 0.62400  0.95800  0.75500  Biso   1.000  H
  H74      1.0000 0.37600  0.04200  0.24500  Biso   1.000  H
  H75      1.0000 0.66600  0.97000  0.83000  Biso   1.000  H
  H76      1.0000 0.33400  0.03000  0.17000  Biso   1.000  H
  O85      1.0000 0.33850  0.05050  0.92900  Biso   1.000  O
  O86      1.0000 0.66150  0.94950  0.07100  Biso   1.000  O
  O87      1.0000 0.43190  0.06830  0.36560  Biso   1.000  O
  O88      1.0000 0.56810  0.93170  0.63440  Biso   1.000  O
  H77      1.0000 0.38600  0.04800  0.39700  Biso   1.000  H
  H78      1.0000 0.61400  0.95200  0.60300  Biso   1.000  H
  H79      1.0000 0.39900  0.13480  0.36800  Biso   1.000  H
  H80      1.0000 0.60100  0.86520  0.63200  Biso   1.000  H
  O89      1.0000 0.66160  0.14372  0.20210  Biso   1.000  O
  O90      1.0000 0.33840  0.85628  0.79790  Biso   1.000  O
  H81      1.0000 0.60400  0.15600  0.17600  Biso   1.000  H
  H82      1.0000 0.39600  0.84400  0.82400  Biso   1.000  H
  H83      1.0000 0.66700  0.20030  0.20600  Biso   1.000  H
  H84      1.0000 0.33300  0.79970  0.79400  Biso   1.000  H
  O91      1.0000 0.15700  0.14666  0.20711  Biso   1.000  O
  O92      1.0000 0.84300  0.85334  0.79289  Biso   1.000  O
  H85      1.0000 0.16100  0.20380  0.20800  Biso   1.000  H
  H86      1.0000 0.83900  0.79620  0.79200  Biso   1.000  H
  H87      1.0000 0.10300  0.15700  0.17600  Biso   1.000  H
  H88      1.0000 0.89700  0.84300  0.82400  Biso   1.000  H
  O93      1.0000 0.12380  0.00060  0.33660  Biso   1.000  O
  O94      1.0000 0.87620  0.99940  0.66340  Biso   1.000  O
  H89      1.0000 0.18400  0.99200  0.35900  Biso   1.000  H
  H90      1.0000 0.81600  0.00800  0.64100  Biso   1.000  H
  H91      1.0000 0.11700  0.04900  0.29700  Biso   1.000  H
  H92      1.0000 0.88300  0.95100  0.70300  Biso   1.000  H
  O95      1.0000 0.79790  0.96490  0.11020  Biso   1.000  O
  O96      1.0000 0.20210  0.03510  0.88980  Biso   1.000  O
  O97      1.0000 0.40390  0.01440  0.99290  Biso   1.000  O
  O98      1.0000 0.59610  0.98560  0.00710  Biso   1.000  O
  O99      1.0000 0.99680  0.99970  0.04430  Biso   1.000  O
  O100     1.0000 0.00320  0.00030  0.95570  Biso   1.000  O
  O101     1.0000 0.18360  0.94720  0.09810  Biso   1.000  O
  O102     1.0000 0.81640  0.05280  0.90190  Biso   1.000  O
  H93      1.0000 0.25200  0.99800  0.51510  Biso   1.000  H
  H94      1.0000 0.74800  0.00200  0.48490  Biso   1.000  H
  H95      1.0000 0.32400  0.93370  0.45000  Biso   1.000  H
  H96      1.0000 0.67600  0.06630  0.55000  Biso   1.000  H
  Li17     1.0000 0.50590  0.96600  0.91970  Biso   1.000  Li
  Li18     1.0000 0.49410  0.03400  0.08030  Biso   1.000  Li
