data_image0
_cell_length_a       10.2462
_cell_length_b       9.7235
_cell_length_c       13.8793
_cell_angle_alpha    90
_cell_angle_beta     101.76
_cell_angle_gamma    90

_symmetry_space_group_name_H-M    "P 1"
_symmetry_int_tables_number       1

loop_
  _symmetry_equiv_pos_as_xyz
  'x, y, z'

loop_
  _atom_site_label
  _atom_site_occupancy
  _atom_site_fract_x
  _atom_site_fract_y
  _atom_site_fract_z
  _atom_site_thermal_displace_type
  _atom_site_B_iso_or_equiv
  _atom_site_type_symbol
  Cu1      1.0000 0.00000  0.00000  0.00000  Biso   1.000  Cu
  Cu2      1.0000 0.50000  0.50000  0.50000  Biso   1.000  Cu
  Na1      1.0000 0.44926  0.17337  0.98967  Biso   1.000  Na
  Na2      1.0000 0.05074  0.67337  0.51033  Biso   1.000  Na
  Na3      1.0000 0.55074  0.82663  0.01033  Biso   1.000  Na
  Na4      1.0000 0.94926  0.32663  0.48967  Biso   1.000  Na
  Na5      1.0000 0.23115  0.83282  0.93188  Biso   1.000  Na
  Na6      1.0000 0.26885  0.33282  0.56812  Biso   1.000  Na
  Na7      1.0000 0.76885  0.16718  0.06812  Biso   1.000  Na
  Na8      1.0000 0.73115  0.66718  0.43188  Biso   1.000  Na
  Na9      1.0000 0.14634  0.48937  0.96954  Biso   1.000  Na
  Na10     1.0000 0.35366  0.98937  0.53046  Biso   1.000  Na
  Na11     1.0000 0.85366  0.51063  0.03046  Biso   1.000  Na
  Na12     1.0000 0.64634  0.01063  0.46954  Biso   1.000  Na
  O1       1.0000 0.12480  0.86294  0.06545  Biso   1.000  O
  O2       1.0000 0.37520  0.36294  0.43455  Biso   1.000  O
  O3       1.0000 0.87520  0.13706  0.93455  Biso   1.000  O
  O4       1.0000 0.62480  0.63706  0.56545  Biso   1.000  O
  O5       1.0000 0.09004  0.12787  0.10097  Biso   1.000  O
  O6       1.0000 0.40996  0.62787  0.39903  Biso   1.000  O
  O7       1.0000 0.90996  0.87213  0.89903  Biso   1.000  O
  O8       1.0000 0.59004  0.37213  0.60097  Biso   1.000  O
  O9       1.0000 0.37191  0.96322  0.05332  Biso   1.000  O
  O10      1.0000 0.12809  0.46322  0.44668  Biso   1.000  O
  O11      1.0000 0.62809  0.03678  0.94668  Biso   1.000  O
  O12      1.0000 0.87191  0.53678  0.55332  Biso   1.000  O
  O13      1.0000 0.42516  0.00673  0.21463  Biso   1.000  O
  O14      1.0000 0.07484  0.50673  0.28537  Biso   1.000  O
  O15      1.0000 0.57484  0.99327  0.78537  Biso   1.000  O
  O16      1.0000 0.92516  0.49327  0.71463  Biso   1.000  O
  O17      1.0000 0.89720  0.99355  0.16998  Biso   1.000  O
  O18      1.0000 0.60280  0.49355  0.33002  Biso   1.000  O
  O19      1.0000 0.10280  0.00645  0.83002  Biso   1.000  O
  O20      1.0000 0.39720  0.50645  0.66998  Biso   1.000  O
  O21      1.0000 0.03550  0.93415  0.30878  Biso   1.000  O
  O22      1.0000 0.46450  0.43415  0.19122  Biso   1.000  O
  O23      1.0000 0.96450  0.06585  0.69122  Biso   1.000  O
  O24      1.0000 0.53550  0.56585  0.80878  Biso   1.000  O
  O25      1.0000 0.59351  0.19093  0.15025  Biso   1.000  O
  O26      1.0000 0.90649  0.69093  0.34975  Biso   1.000  O
  O27      1.0000 0.40649  0.80907  0.84975  Biso   1.000  O
  O28      1.0000 0.09351  0.30907  0.65025  Biso   1.000  O
  H1       1.0000 0.56800  0.26400  0.16930  Biso   1.000  H
  H2       1.0000 0.93200  0.76400  0.33070  Biso   1.000  H
  H3       1.0000 0.43200  0.73600  0.83070  Biso   1.000  H
  H4       1.0000 0.06800  0.23600  0.66930  Biso   1.000  H
  H5       1.0000 0.55600  0.12980  0.17510  Biso   1.000  H
  H6       1.0000 0.94400  0.62980  0.32490  Biso   1.000  H
  H7       1.0000 0.44400  0.87020  0.82490  Biso   1.000  H
  H8       1.0000 0.05600  0.37020  0.67510  Biso   1.000  H
  O29      1.0000 0.06324  0.67579  0.85514  Biso   1.000  O
  O30      1.0000 0.43676  0.17579  0.64486  Biso   1.000  O
  O31      1.0000 0.93676  0.32421  0.14486  Biso   1.000  O
  O32      1.0000 0.56324  0.82421  0.35514  Biso   1.000  O
  H9       1.0000 0.01100  0.73000  0.87340  Biso   1.000  H
  H10      1.0000 0.48900  0.23000  0.62660  Biso   1.000  H
  H11      1.0000 0.98900  0.27000  0.12660  Biso   1.000  H
  H12      1.0000 0.51100  0.77000  0.37340  Biso   1.000  H
  H13      1.0000 0.01600  0.62500  0.81480  Biso   1.000  H
  H14      1.0000 0.48400  0.12500  0.68520  Biso   1.000  H
  H15      1.0000 0.98400  0.37500  0.18520  Biso   1.000  H
  H16      1.0000 0.51600  0.87500  0.31480  Biso   1.000  H
  O33      1.0000 0.27250  0.29979  0.05091  Biso   1.000  O
  O34      1.0000 0.22750  0.79979  0.44909  Biso   1.000  O
  O35      1.0000 0.72750  0.70021  0.94909  Biso   1.000  O
  O36      1.0000 0.77250  0.20021  0.55091  Biso   1.000  O
  H17      1.0000 0.31200  0.33300  0.10340  Biso   1.000  H
  H18      1.0000 0.18800  0.83300  0.39660  Biso   1.000  H
  H19      1.0000 0.68800  0.66700  0.89660  Biso   1.000  H
  H20      1.0000 0.81200  0.16700  0.60340  Biso   1.000  H
  H21      1.0000 0.22020  0.24400  0.06790  Biso   1.000  H
  H22      1.0000 0.27980  0.74400  0.43210  Biso   1.000  H
  H23      1.0000 0.77980  0.75600  0.93210  Biso   1.000  H
  H24      1.0000 0.72020  0.25600  0.56790  Biso   1.000  H
  O37      1.0000 0.06362  0.60660  0.09208  Biso   1.000  O
  O38      1.0000 0.43638  0.10660  0.40792  Biso   1.000  O
  O39      1.0000 0.93638  0.39340  0.90792  Biso   1.000  O
  O40      1.0000 0.56362  0.89340  0.59208  Biso   1.000  O
  H25      1.0000 0.08000  0.59100  0.15210  Biso   1.000  H
  H26      1.0000 0.42000  0.09100  0.34790  Biso   1.000  H
  H27      1.0000 0.92000  0.40900  0.84790  Biso   1.000  H
  H28      1.0000 0.58000  0.90900  0.65210  Biso   1.000  H
  H29      1.0000 0.08200  0.68900  0.08670  Biso   1.000  H
  H30      1.0000 0.41800  0.18900  0.41330  Biso   1.000  H
  H31      1.0000 0.91800  0.31100  0.91330  Biso   1.000  H
  H32      1.0000 0.58200  0.81100  0.58670  Biso   1.000  H
  O41      1.0000 0.31800  0.17332  0.83319  Biso   1.000  O
  O42      1.0000 0.18200  0.67332  0.66681  Biso   1.000  O
  O43      1.0000 0.68200  0.82668  0.16681  Biso   1.000  O
  O44      1.0000 0.81800  0.32668  0.33319  Biso   1.000  O
  H33      1.0000 0.25090  0.12500  0.82930  Biso   1.000  H
  H34      1.0000 0.24910  0.62500  0.67070  Biso   1.000  H
  H35      1.0000 0.74910  0.87500  0.17070  Biso   1.000  H
  H36      1.0000 0.75090  0.37500  0.32930  Biso   1.000  H
  H37      1.0000 0.34100  0.16900  0.77980  Biso   1.000  H
  H38      1.0000 0.15900  0.66900  0.72020  Biso   1.000  H
  H39      1.0000 0.65900  0.83100  0.22020  Biso   1.000  H
  H40      1.0000 0.84100  0.33100  0.27980  Biso   1.000  H
  O45      1.0000 0.28609  0.45356  0.85700  Biso   1.000  O
  O46      1.0000 0.21391  0.95356  0.64300  Biso   1.000  O
  O47      1.0000 0.71391  0.54644  0.14300  Biso   1.000  O
  O48      1.0000 0.78609  0.04644  0.35700  Biso   1.000  O
  H41      1.0000 0.28600  0.36860  0.85000  Biso   1.000  H
  H42      1.0000 0.21400  0.86860  0.65000  Biso   1.000  H
  H43      1.0000 0.71400  0.63140  0.15000  Biso   1.000  H
  H44      1.0000 0.78600  0.13140  0.35000  Biso   1.000  H
  H45      1.0000 0.31800  0.48400  0.81150  Biso   1.000  H
  H46      1.0000 0.18200  0.98400  0.68850  Biso   1.000  H
  H47      1.0000 0.68200  0.51600  0.18850  Biso   1.000  H
  H48      1.0000 0.81800  0.01600  0.31150  Biso   1.000  H
  O49      1.0000 0.61055  0.37495  0.97733  Biso   1.000  O
  O50      1.0000 0.88945  0.87495  0.52267  Biso   1.000  O
  O51      1.0000 0.38945  0.62505  0.02267  Biso   1.000  O
  O52      1.0000 0.11055  0.12505  0.47733  Biso   1.000  O
  H49      1.0000 0.59500  0.42100  0.92630  Biso   1.000  H
  H50      1.0000 0.90500  0.92100  0.57370  Biso   1.000  H
  H51      1.0000 0.40500  0.57900  0.07370  Biso   1.000  H
  H52      1.0000 0.09500  0.07900  0.42630  Biso   1.000  H
  H53      1.0000 0.61800  0.43200  0.02260  Biso   1.000  H
  H54      1.0000 0.88200  0.93200  0.47740  Biso   1.000  H
  H55      1.0000 0.38200  0.56800  0.97740  Biso   1.000  H
  H56      1.0000 0.11800  0.06800  0.52260  Biso   1.000  H
  C1       1.0000 0.34429  0.96701  0.13732  Biso   1.000  C
  C2       1.0000 0.15571  0.46701  0.36268  Biso   1.000  C
  C3       1.0000 0.65571  0.03299  0.86268  Biso   1.000  C
  C4       1.0000 0.84429  0.53299  0.63732  Biso   1.000  C
  C5       1.0000 0.20510  0.91841  0.15104  Biso   1.000  C
  C6       1.0000 0.29490  0.41841  0.34896  Biso   1.000  C
  C7       1.0000 0.79490  0.08159  0.84896  Biso   1.000  C
  C8       1.0000 0.70510  0.58159  0.65104  Biso   1.000  C
  H57      1.0000 0.21750  0.84710  0.20400  Biso   1.000  H
  H58      1.0000 0.28250  0.34710  0.29600  Biso   1.000  H
  H59      1.0000 0.78250  0.15290  0.79600  Biso   1.000  H
  H60      1.0000 0.71750  0.65290  0.70400  Biso   1.000  H
  C9       1.0000 0.13058  0.04249  0.18397  Biso   1.000  C
  C10      1.0000 0.36942  0.54249  0.31603  Biso   1.000  C
  C11      1.0000 0.86942  0.95751  0.81603  Biso   1.000  C
  C12      1.0000 0.63058  0.45751  0.68397  Biso   1.000  C
  H61      1.0000 0.19160  0.09440  0.23700  Biso   1.000  H
  H62      1.0000 0.30840  0.59440  0.26300  Biso   1.000  H
  H63      1.0000 0.80840  0.90560  0.76300  Biso   1.000  H
  H64      1.0000 0.69160  0.40560  0.73700  Biso   1.000  H
  C13      1.0000 0.01168  0.98631  0.22357  Biso   1.000  C
  C14      1.0000 0.48832  0.48631  0.27643  Biso   1.000  C
  C15      1.0000 0.98832  0.01369  0.77643  Biso   1.000  C
  C16      1.0000 0.51168  0.51369  0.72357  Biso   1.000  C
