data_image0
_cell_length_a       17.8091
_cell_length_b       25.5978
_cell_length_c       5.7377
_cell_angle_alpha    90
_cell_angle_beta     98.1557
_cell_angle_gamma    90

_symmetry_space_group_name_H-M    "P 1"
_symmetry_int_tables_number       1

loop_
  _symmetry_equiv_pos_as_xyz
  'x, y, z'

loop_
  _atom_site_label
  _atom_site_occupancy
  _atom_site_fract_x
  _atom_site_fract_y
  _atom_site_fract_z
  _atom_site_thermal_displace_type
  _atom_site_B_iso_or_equiv
  _atom_site_type_symbol
  Cu1      1.0000 0.91647  0.47821  0.04994  Biso   1.000  Cu
  Cu2      1.0000 0.08353  0.47821  0.45006  Biso   1.000  Cu
  Cu3      1.0000 0.41647  0.97821  0.04994  Biso   1.000  Cu
  Cu4      1.0000 0.58353  0.97821  0.45006  Biso   1.000  Cu
  Cu5      1.0000 0.08353  0.52179  0.95006  Biso   1.000  Cu
  Cu6      1.0000 0.91647  0.52179  0.54994  Biso   1.000  Cu
  Cu7      1.0000 0.58353  0.02179  0.95006  Biso   1.000  Cu
  Cu8      1.0000 0.41647  0.02179  0.54994  Biso   1.000  Cu
  O1       1.0000 0.00000  0.50940  0.25000  Biso   1.000  O
  O2       1.0000 0.50000  0.00940  0.25000  Biso   1.000  O
  O3       1.0000 0.00000  0.49060  0.75000  Biso   1.000  O
  O4       1.0000 0.50000  0.99060  0.75000  Biso   1.000  O
  O5       1.0000 0.95921  0.40820  0.08080  Biso   1.000  O
  O6       1.0000 0.04079  0.40820  0.41920  Biso   1.000  O
  O7       1.0000 0.45921  0.90820  0.08080  Biso   1.000  O
  O8       1.0000 0.54079  0.90820  0.41920  Biso   1.000  O
  O9       1.0000 0.04079  0.59180  0.91920  Biso   1.000  O
  O10      1.0000 0.95921  0.59180  0.58080  Biso   1.000  O
  O11      1.0000 0.54079  0.09180  0.91920  Biso   1.000  O
  O12      1.0000 0.45921  0.09180  0.58080  Biso   1.000  O
  C1       1.0000 0.00000  0.38586  0.25000  Biso   1.000  C
  C2       1.0000 0.50000  0.88586  0.25000  Biso   1.000  C
  C3       1.0000 0.00000  0.61414  0.75000  Biso   1.000  C
  C4       1.0000 0.50000  0.11414  0.75000  Biso   1.000  C
  C5       1.0000 0.00000  0.32755  0.25000  Biso   1.000  C
  C6       1.0000 0.50000  0.82755  0.25000  Biso   1.000  C
  C7       1.0000 0.00000  0.67245  0.75000  Biso   1.000  C
  C8       1.0000 0.50000  0.17245  0.75000  Biso   1.000  C
  C9       1.0000 0.04429  0.30094  0.43410  Biso   1.000  C
  C10      1.0000 0.95571  0.30094  0.06590  Biso   1.000  C
  C11      1.0000 0.54429  0.80094  0.43410  Biso   1.000  C
  C12      1.0000 0.45571  0.80094  0.06590  Biso   1.000  C
  C13      1.0000 0.95571  0.69906  0.56590  Biso   1.000  C
  C14      1.0000 0.04429  0.69906  0.93410  Biso   1.000  C
  C15      1.0000 0.45571  0.19906  0.56590  Biso   1.000  C
  C16      1.0000 0.54429  0.19906  0.93410  Biso   1.000  C
  H1       1.0000 0.07350  0.31950  0.55880  Biso   1.000  H
  H2       1.0000 0.92650  0.31950  0.94120  Biso   1.000  H
  H3       1.0000 0.57350  0.81950  0.55880  Biso   1.000  H
  H4       1.0000 0.42650  0.81950  0.94120  Biso   1.000  H
  H5       1.0000 0.92650  0.68050  0.44120  Biso   1.000  H
  H6       1.0000 0.07350  0.68050  0.05880  Biso   1.000  H
  H7       1.0000 0.42650  0.18050  0.44120  Biso   1.000  H
  H8       1.0000 0.57350  0.18050  0.05880  Biso   1.000  H
  C17      1.0000 0.04441  0.24653  0.42930  Biso   1.000  C
  C18      1.0000 0.95559  0.24653  0.07070  Biso   1.000  C
  C19      1.0000 0.54441  0.74653  0.42930  Biso   1.000  C
  C20      1.0000 0.45559  0.74653  0.07070  Biso   1.000  C
  C21      1.0000 0.95559  0.75347  0.57070  Biso   1.000  C
  C22      1.0000 0.04441  0.75347  0.92930  Biso   1.000  C
  C23      1.0000 0.45559  0.25347  0.57070  Biso   1.000  C
  C24      1.0000 0.54441  0.25347  0.92930  Biso   1.000  C
  C25      1.0000 0.00000  0.21903  0.25000  Biso   1.000  C
  C26      1.0000 0.50000  0.71903  0.25000  Biso   1.000  C
  C27      1.0000 0.00000  0.78097  0.75000  Biso   1.000  C
  C28      1.0000 0.50000  0.28097  0.75000  Biso   1.000  C
  H9       1.0000 0.00000  0.18190  0.25000  Biso   1.000  H
  H10      1.0000 0.50000  0.68190  0.25000  Biso   1.000  H
  H11      1.0000 0.00000  0.81810  0.75000  Biso   1.000  H
  H12      1.0000 0.50000  0.31810  0.75000  Biso   1.000  H
  O13      1.0000 0.08718  0.21566  0.59260  Biso   1.000  O
  O14      1.0000 0.91282  0.21566  0.90740  Biso   1.000  O
  O15      1.0000 0.58718  0.71566  0.59260  Biso   1.000  O
  O16      1.0000 0.41282  0.71566  0.90740  Biso   1.000  O
  O17      1.0000 0.91282  0.78434  0.40740  Biso   1.000  O
  O18      1.0000 0.08718  0.78434  0.09260  Biso   1.000  O
  O19      1.0000 0.41282  0.28434  0.40740  Biso   1.000  O
  O20      1.0000 0.58718  0.28434  0.09260  Biso   1.000  O
  C29      1.0000 0.13808  0.24036  0.77850  Biso   1.000  C
  C30      1.0000 0.86192  0.24036  0.72150  Biso   1.000  C
  C31      1.0000 0.63808  0.74036  0.77850  Biso   1.000  C
  C32      1.0000 0.36192  0.74036  0.72150  Biso   1.000  C
  C33      1.0000 0.86192  0.75964  0.22150  Biso   1.000  C
  C34      1.0000 0.13808  0.75964  0.27850  Biso   1.000  C
  C35      1.0000 0.36192  0.25964  0.22150  Biso   1.000  C
  C36      1.0000 0.63808  0.25964  0.27850  Biso   1.000  C
  H13      1.0000 0.10950  0.25530  0.89880  Biso   1.000  H
  H14      1.0000 0.89050  0.25530  0.60120  Biso   1.000  H
  H15      1.0000 0.60950  0.75530  0.89880  Biso   1.000  H
  H16      1.0000 0.39050  0.75530  0.60120  Biso   1.000  H
  H17      1.0000 0.89050  0.74470  0.10120  Biso   1.000  H
  H18      1.0000 0.10950  0.74470  0.39880  Biso   1.000  H
  H19      1.0000 0.39050  0.24470  0.10120  Biso   1.000  H
  H20      1.0000 0.60950  0.24470  0.39880  Biso   1.000  H
  H21      1.0000 0.16700  0.26870  0.71470  Biso   1.000  H
  H22      1.0000 0.83300  0.26870  0.78530  Biso   1.000  H
  H23      1.0000 0.66700  0.76870  0.71470  Biso   1.000  H
  H24      1.0000 0.33300  0.76870  0.78530  Biso   1.000  H
  H25      1.0000 0.83300  0.73130  0.28530  Biso   1.000  H
  H26      1.0000 0.16700  0.73130  0.21470  Biso   1.000  H
  H27      1.0000 0.33300  0.23130  0.28530  Biso   1.000  H
  H28      1.0000 0.66700  0.23130  0.21470  Biso   1.000  H
  C37      1.0000 0.19047  0.19779  0.88300  Biso   1.000  C
  C38      1.0000 0.80953  0.19779  0.61700  Biso   1.000  C
  C39      1.0000 0.69047  0.69779  0.88300  Biso   1.000  C
  C40      1.0000 0.30953  0.69779  0.61700  Biso   1.000  C
  C41      1.0000 0.80953  0.80221  0.11700  Biso   1.000  C
  C42      1.0000 0.19047  0.80221  0.38300  Biso   1.000  C
  C43      1.0000 0.30953  0.30221  0.11700  Biso   1.000  C
  C44      1.0000 0.69047  0.30221  0.38300  Biso   1.000  C
  C45      1.0000 0.18126  0.17386  0.09360  Biso   1.000  C
  C46      1.0000 0.81874  0.17386  0.40640  Biso   1.000  C
  C47      1.0000 0.68126  0.67386  0.09360  Biso   1.000  C
  C48      1.0000 0.31874  0.67386  0.40640  Biso   1.000  C
  C49      1.0000 0.81874  0.82614  0.90640  Biso   1.000  C
  C50      1.0000 0.18126  0.82614  0.59360  Biso   1.000  C
  C51      1.0000 0.31874  0.32614  0.90640  Biso   1.000  C
  C52      1.0000 0.68126  0.32614  0.59360  Biso   1.000  C
  H29      1.0000 0.14300  0.18590  0.18010  Biso   1.000  H
  H30      1.0000 0.85700  0.18590  0.31990  Biso   1.000  H
  H31      1.0000 0.64300  0.68590  0.18010  Biso   1.000  H
  H32      1.0000 0.35700  0.68590  0.31990  Biso   1.000  H
  H33      1.0000 0.85700  0.81410  0.81990  Biso   1.000  H
  H34      1.0000 0.14300  0.81410  0.68010  Biso   1.000  H
  H35      1.0000 0.35700  0.31410  0.81990  Biso   1.000  H
  H36      1.0000 0.64300  0.31410  0.68010  Biso   1.000  H
  C53      1.0000 0.22767  0.13232  0.17960  Biso   1.000  C
  C54      1.0000 0.77233  0.13232  0.32040  Biso   1.000  C
  C55      1.0000 0.72767  0.63232  0.17960  Biso   1.000  C
  C56      1.0000 0.27233  0.63232  0.32040  Biso   1.000  C
  C57      1.0000 0.77233  0.86768  0.82040  Biso   1.000  C
  C58      1.0000 0.22767  0.86768  0.67960  Biso   1.000  C
  C59      1.0000 0.27233  0.36768  0.82040  Biso   1.000  C
  C60      1.0000 0.72767  0.36768  0.67960  Biso   1.000  C
  H37      1.0000 0.22200  0.11680  0.32650  Biso   1.000  H
  H38      1.0000 0.77800  0.11680  0.17350  Biso   1.000  H
  H39      1.0000 0.72200  0.61680  0.32650  Biso   1.000  H
  H40      1.0000 0.27800  0.61680  0.17350  Biso   1.000  H
  H41      1.0000 0.77800  0.88320  0.67350  Biso   1.000  H
  H42      1.0000 0.22200  0.88320  0.82650  Biso   1.000  H
  H43      1.0000 0.27800  0.38320  0.67350  Biso   1.000  H
  H44      1.0000 0.72200  0.38320  0.82650  Biso   1.000  H
  C61      1.0000 0.28240  0.11368  0.04950  Biso   1.000  C
  C62      1.0000 0.71760  0.11368  0.45050  Biso   1.000  C
  C63      1.0000 0.78240  0.61368  0.04950  Biso   1.000  C
  C64      1.0000 0.21760  0.61368  0.45050  Biso   1.000  C
  C65      1.0000 0.71760  0.88632  0.95050  Biso   1.000  C
  C66      1.0000 0.28240  0.88632  0.54950  Biso   1.000  C
  C67      1.0000 0.21760  0.38632  0.95050  Biso   1.000  C
  C68      1.0000 0.78240  0.38632  0.54950  Biso   1.000  C
  C69      1.0000 0.29240  0.13766  0.83900  Biso   1.000  C
  C70      1.0000 0.70760  0.13766  0.66100  Biso   1.000  C
  C71      1.0000 0.79240  0.63766  0.83900  Biso   1.000  C
  C72      1.0000 0.20760  0.63766  0.66100  Biso   1.000  C
  C73      1.0000 0.70760  0.86234  0.16100  Biso   1.000  C
  C74      1.0000 0.29240  0.86234  0.33900  Biso   1.000  C
  C75      1.0000 0.20760  0.36234  0.16100  Biso   1.000  C
  C76      1.0000 0.79240  0.36234  0.33900  Biso   1.000  C
  H45      1.0000 0.32970  0.12510  0.75010  Biso   1.000  H
  H46      1.0000 0.67030  0.12510  0.74990  Biso   1.000  H
  H47      1.0000 0.82970  0.62510  0.75010  Biso   1.000  H
  H48      1.0000 0.17030  0.62510  0.74990  Biso   1.000  H
  H49      1.0000 0.67030  0.87490  0.24990  Biso   1.000  H
  H50      1.0000 0.32970  0.87490  0.25010  Biso   1.000  H
  H51      1.0000 0.17030  0.37490  0.24990  Biso   1.000  H
  H52      1.0000 0.82970  0.37490  0.25010  Biso   1.000  H
  C77      1.0000 0.24730  0.18037  0.75880  Biso   1.000  C
  C78      1.0000 0.75270  0.18037  0.74120  Biso   1.000  C
  C79      1.0000 0.74730  0.68037  0.75880  Biso   1.000  C
  C80      1.0000 0.25270  0.68037  0.74120  Biso   1.000  C
  C81      1.0000 0.75270  0.81963  0.24120  Biso   1.000  C
  C82      1.0000 0.24730  0.81963  0.25880  Biso   1.000  C
  C83      1.0000 0.25270  0.31963  0.24120  Biso   1.000  C
  C84      1.0000 0.74730  0.31963  0.25880  Biso   1.000  C
  H53      1.0000 0.25550  0.19770  0.61820  Biso   1.000  H
  H54      1.0000 0.74450  0.19770  0.88180  Biso   1.000  H
  H55      1.0000 0.75550  0.69770  0.61820  Biso   1.000  H
  H56      1.0000 0.24450  0.69770  0.88180  Biso   1.000  H
  H57      1.0000 0.74450  0.80230  0.38180  Biso   1.000  H
  H58      1.0000 0.25550  0.80230  0.11820  Biso   1.000  H
  H59      1.0000 0.24450  0.30230  0.38180  Biso   1.000  H
  H60      1.0000 0.75550  0.30230  0.11820  Biso   1.000  H
  C85      1.0000 0.33077  0.06810  0.13830  Biso   1.000  C
  C86      1.0000 0.66923  0.06810  0.36170  Biso   1.000  C
  C87      1.0000 0.83077  0.56810  0.13830  Biso   1.000  C
  C88      1.0000 0.16923  0.56810  0.36170  Biso   1.000  C
  C89      1.0000 0.66923  0.93190  0.86170  Biso   1.000  C
  C90      1.0000 0.33077  0.93190  0.63830  Biso   1.000  C
  C91      1.0000 0.16923  0.43190  0.86170  Biso   1.000  C
  C92      1.0000 0.83077  0.43190  0.63830  Biso   1.000  C
  O21      1.0000 0.36882  0.04630  0.99440  Biso   1.000  O
  O22      1.0000 0.63118  0.04630  0.50560  Biso   1.000  O
  O23      1.0000 0.86882  0.54630  0.99440  Biso   1.000  O
  O24      1.0000 0.13118  0.54630  0.50560  Biso   1.000  O
  O25      1.0000 0.63118  0.95370  0.00560  Biso   1.000  O
  O26      1.0000 0.36882  0.95370  0.49440  Biso   1.000  O
  O27      1.0000 0.13118  0.45370  0.00560  Biso   1.000  O
  O28      1.0000 0.86882  0.45370  0.49440  Biso   1.000  O
  O29      1.0000 0.33061  0.05469  0.35170  Biso   1.000  O
  O30      1.0000 0.66939  0.05469  0.14830  Biso   1.000  O
  O31      1.0000 0.83061  0.55469  0.35170  Biso   1.000  O
  O32      1.0000 0.16939  0.55469  0.14830  Biso   1.000  O
  O33      1.0000 0.66939  0.94531  0.64830  Biso   1.000  O
  O34      1.0000 0.33061  0.94531  0.85170  Biso   1.000  O
  O35      1.0000 0.16939  0.44531  0.64830  Biso   1.000  O
  O36      1.0000 0.83061  0.44531  0.85170  Biso   1.000  O
