data_image0
_cell_length_a       5.0173
_cell_length_b       19.7139
_cell_length_c       21.1911
_cell_angle_alpha    90
_cell_angle_beta     90.675
_cell_angle_gamma    90

_symmetry_space_group_name_H-M    "P 1"
_symmetry_int_tables_number       1

loop_
  _symmetry_equiv_pos_as_xyz
  'x, y, z'

loop_
  _atom_site_label
  _atom_site_occupancy
  _atom_site_fract_x
  _atom_site_fract_y
  _atom_site_fract_z
  _atom_site_thermal_displace_type
  _atom_site_B_iso_or_equiv
  _atom_site_type_symbol
  Cu1      1.0000 0.05032  0.02591  0.69723  Biso   1.000  Cu
  Cu2      1.0000 0.94968  0.52590  0.80277  Biso   1.000  Cu
  Cu3      1.0000 0.94968  0.97410  0.30277  Biso   1.000  Cu
  Cu4      1.0000 0.05032  0.47409  0.19723  Biso   1.000  Cu
  C1       1.0000 0.46790  0.92121  0.76556  Biso   1.000  C
  C2       1.0000 0.53210  0.42121  0.73444  Biso   1.000  C
  C3       1.0000 0.53210  0.07879  0.23444  Biso   1.000  C
  C4       1.0000 0.46790  0.57879  0.26556  Biso   1.000  C
  C5       1.0000 0.26060  0.95019  0.80239  Biso   1.000  C
  C6       1.0000 0.73940  0.45019  0.69761  Biso   1.000  C
  C7       1.0000 0.73940  0.04981  0.19761  Biso   1.000  C
  C8       1.0000 0.26060  0.54981  0.30239  Biso   1.000  C
  C9       1.0000 0.22350  0.91991  0.86308  Biso   1.000  C
  C10      1.0000 0.77650  0.41991  0.63692  Biso   1.000  C
  C11      1.0000 0.77650  0.08009  0.13692  Biso   1.000  C
  C12      1.0000 0.22350  0.58009  0.36308  Biso   1.000  C
  C13      1.0000 0.36470  0.86423  0.88359  Biso   1.000  C
  C14      1.0000 0.63530  0.36423  0.61641  Biso   1.000  C
  C15      1.0000 0.63530  0.13577  0.11641  Biso   1.000  C
  C16      1.0000 0.36470  0.63577  0.38359  Biso   1.000  C
  H1       1.0000 0.32900  0.84460  0.92250  Biso   1.000  H
  H2       1.0000 0.67100  0.34460  0.57750  Biso   1.000  H
  H3       1.0000 0.67100  0.15540  0.07750  Biso   1.000  H
  H4       1.0000 0.32900  0.65540  0.42250  Biso   1.000  H
  C17      1.0000 0.55900  0.83806  0.84566  Biso   1.000  C
  C18      1.0000 0.44100  0.33806  0.65434  Biso   1.000  C
  C19      1.0000 0.44100  0.16194  0.15434  Biso   1.000  C
  C20      1.0000 0.55900  0.66194  0.34566  Biso   1.000  C
  C21      1.0000 0.61670  0.86713  0.78814  Biso   1.000  C
  C22      1.0000 0.38330  0.36713  0.71186  Biso   1.000  C
  C23      1.0000 0.38330  0.13287  0.21186  Biso   1.000  C
  C24      1.0000 0.61670  0.63287  0.28814  Biso   1.000  C
  H5       1.0000 0.75660  0.85020  0.76440  Biso   1.000  H
  H6       1.0000 0.24340  0.35020  0.73560  Biso   1.000  H
  H7       1.0000 0.24340  0.14980  0.23560  Biso   1.000  H
  H8       1.0000 0.75660  0.64980  0.26440  Biso   1.000  H
  C25      1.0000 0.54230  0.94915  0.70232  Biso   1.000  C
  C26      1.0000 0.45770  0.44915  0.79768  Biso   1.000  C
  C27      1.0000 0.45770  0.05085  0.29768  Biso   1.000  C
  C28      1.0000 0.54230  0.55085  0.20232  Biso   1.000  C
  C29      1.0000 0.78450  0.03957  0.56731  Biso   1.000  C
  C30      1.0000 0.21550  0.53957  0.93269  Biso   1.000  C
  C31      1.0000 0.21550  0.96043  0.43269  Biso   1.000  C
  C32      1.0000 0.78450  0.46043  0.06731  Biso   1.000  C
  H9       1.0000 0.64820  0.00980  0.57770  Biso   1.000  H
  H10      1.0000 0.35180  0.50980  0.92230  Biso   1.000  H
  H11      1.0000 0.35180  0.99020  0.42230  Biso   1.000  H
  H12      1.0000 0.64820  0.49020  0.07770  Biso   1.000  H
  C33      1.0000 0.13080  0.09883  0.57447  Biso   1.000  C
  C34      1.0000 0.86920  0.59883  0.92553  Biso   1.000  C
  C35      1.0000 0.86920  0.90117  0.42553  Biso   1.000  C
  C36      1.0000 0.13080  0.40117  0.07447  Biso   1.000  C
  H13      1.0000 0.28540  0.12000  0.58890  Biso   1.000  H
  H14      1.0000 0.71460  0.62000  0.91110  Biso   1.000  H
  H15      1.0000 0.71460  0.88000  0.41110  Biso   1.000  H
  H16      1.0000 0.28540  0.38000  0.08890  Biso   1.000  H
  C37      1.0000 0.13250  0.14586  0.46458  Biso   1.000  C
  C38      1.0000 0.86750  0.64586  0.03542  Biso   1.000  C
  C39      1.0000 0.86750  0.85414  0.53542  Biso   1.000  C
  C40      1.0000 0.13250  0.35414  0.96458  Biso   1.000  C
  H17      1.0000 0.18710  0.11500  0.43150  Biso   1.000  H
  H18      1.0000 0.81290  0.61500  0.06850  Biso   1.000  H
  H19      1.0000 0.81290  0.88500  0.56850  Biso   1.000  H
  H20      1.0000 0.18710  0.38500  0.93150  Biso   1.000  H
  H21      1.0000 0.28890  0.17080  0.47870  Biso   1.000  H
  H22      1.0000 0.71110  0.67080  0.02130  Biso   1.000  H
  H23      1.0000 0.71110  0.82920  0.52130  Biso   1.000  H
  H24      1.0000 0.28890  0.32920  0.97870  Biso   1.000  H
  C41      1.0000 0.93090  0.19502  0.43800  Biso   1.000  C
  C42      1.0000 0.06910  0.69502  0.06200  Biso   1.000  C
  C43      1.0000 0.06910  0.80498  0.56200  Biso   1.000  C
  C44      1.0000 0.93090  0.30498  0.93800  Biso   1.000  C
  C45      1.0000 0.78650  0.17787  0.38571  Biso   1.000  C
  C46      1.0000 0.21350  0.67787  0.11429  Biso   1.000  C
  C47      1.0000 0.21350  0.82213  0.61429  Biso   1.000  C
  C48      1.0000 0.78650  0.32213  0.88571  Biso   1.000  C
  H25      1.0000 0.81160  0.13570  0.36710  Biso   1.000  H
  H26      1.0000 0.18840  0.63570  0.13290  Biso   1.000  H
  H27      1.0000 0.18840  0.86430  0.63290  Biso   1.000  H
  H28      1.0000 0.81160  0.36430  0.86710  Biso   1.000  H
  C49      1.0000 0.60290  0.22250  0.35990  Biso   1.000  C
  C50      1.0000 0.39710  0.72250  0.14010  Biso   1.000  C
  C51      1.0000 0.39710  0.77750  0.64010  Biso   1.000  C
  C52      1.0000 0.60290  0.27750  0.85990  Biso   1.000  C
  H29      1.0000 0.50370  0.20940  0.32460  Biso   1.000  H
  H30      1.0000 0.49630  0.70940  0.17540  Biso   1.000  H
  H31      1.0000 0.49630  0.79060  0.67540  Biso   1.000  H
  H32      1.0000 0.50370  0.29060  0.82460  Biso   1.000  H
  C53      1.0000 0.56380  0.28543  0.38504  Biso   1.000  C
  C54      1.0000 0.43620  0.78543  0.11496  Biso   1.000  C
  C55      1.0000 0.43620  0.71457  0.61496  Biso   1.000  C
  C56      1.0000 0.56380  0.21457  0.88504  Biso   1.000  C
  C57      1.0000 0.70980  0.30269  0.43750  Biso   1.000  C
  C58      1.0000 0.29020  0.80269  0.06250  Biso   1.000  C
  C59      1.0000 0.29020  0.69731  0.56250  Biso   1.000  C
  C60      1.0000 0.70980  0.19731  0.93750  Biso   1.000  C
  H33      1.0000 0.68700  0.34520  0.45570  Biso   1.000  H
  H34      1.0000 0.31300  0.84520  0.04430  Biso   1.000  H
  H35      1.0000 0.31300  0.65480  0.54430  Biso   1.000  H
  H36      1.0000 0.68700  0.15480  0.95570  Biso   1.000  H
  C61      1.0000 0.89130  0.25765  0.46392  Biso   1.000  C
  C62      1.0000 0.10870  0.75765  0.03608  Biso   1.000  C
  C63      1.0000 0.10870  0.74235  0.53608  Biso   1.000  C
  C64      1.0000 0.89130  0.24235  0.96392  Biso   1.000  C
  H37      1.0000 0.98760  0.27020  0.49980  Biso   1.000  H
  H38      1.0000 0.01240  0.77020  0.00020  Biso   1.000  H
  H39      1.0000 0.01240  0.72980  0.50020  Biso   1.000  H
  H40      1.0000 0.98760  0.22980  0.99980  Biso   1.000  H
  C65      1.0000 0.38190  0.33544  0.35237  Biso   1.000  C
  C66      1.0000 0.61810  0.83544  0.14763  Biso   1.000  C
  C67      1.0000 0.61810  0.66456  0.64763  Biso   1.000  C
  C68      1.0000 0.38190  0.16456  0.85237  Biso   1.000  C
  H41      1.0000 0.21350  0.31380  0.34180  Biso   1.000  H
  H42      1.0000 0.78650  0.81380  0.15820  Biso   1.000  H
  H43      1.0000 0.78650  0.68620  0.65820  Biso   1.000  H
  H44      1.0000 0.21350  0.18620  0.84180  Biso   1.000  H
  H45      1.0000 0.34650  0.37340  0.38020  Biso   1.000  H
  H46      1.0000 0.65350  0.87340  0.11980  Biso   1.000  H
  H47      1.0000 0.65350  0.62660  0.61980  Biso   1.000  H
  H48      1.0000 0.34650  0.12660  0.88020  Biso   1.000  H
  C69      1.0000 0.65860  0.35515  0.20322  Biso   1.000  C
  C70      1.0000 0.34140  0.85515  0.29678  Biso   1.000  C
  C71      1.0000 0.34140  0.64485  0.79678  Biso   1.000  C
  C72      1.0000 0.65860  0.14485  0.70322  Biso   1.000  C
  H49      1.0000 0.68800  0.34220  0.16170  Biso   1.000  H
  H50      1.0000 0.31200  0.84220  0.33830  Biso   1.000  H
  H51      1.0000 0.31200  0.65780  0.83830  Biso   1.000  H
  H52      1.0000 0.68800  0.15780  0.66170  Biso   1.000  H
  C73      1.0000 0.68940  0.40828  0.28884  Biso   1.000  C
  C74      1.0000 0.31060  0.90828  0.21116  Biso   1.000  C
  C75      1.0000 0.31060  0.59172  0.71116  Biso   1.000  C
  C76      1.0000 0.68940  0.09172  0.78884  Biso   1.000  C
  H53      1.0000 0.73890  0.43840  0.32060  Biso   1.000  H
  H54      1.0000 0.26110  0.93840  0.17940  Biso   1.000  H
  H55      1.0000 0.26110  0.56160  0.67940  Biso   1.000  H
  H56      1.0000 0.73890  0.06160  0.82060  Biso   1.000  H
  N1       1.0000 0.98390  0.05688  0.60818  Biso   1.000  N
  N2       1.0000 0.01610  0.55688  0.89182  Biso   1.000  N
  N3       1.0000 0.01610  0.94312  0.39182  Biso   1.000  N
  N4       1.0000 0.98390  0.44312  0.10818  Biso   1.000  N
  N5       1.0000 0.80170  0.06858  0.51197  Biso   1.000  N
  N6       1.0000 0.19830  0.56858  0.98803  Biso   1.000  N
  N7       1.0000 0.19830  0.93142  0.48803  Biso   1.000  N
  N8       1.0000 0.80170  0.43142  0.01197  Biso   1.000  N
  N9       1.0000 0.02730  0.10634  0.51767  Biso   1.000  N
  N10      1.0000 0.97270  0.60634  0.98233  Biso   1.000  N
  N11      1.0000 0.97270  0.89366  0.48233  Biso   1.000  N
  N12      1.0000 0.02730  0.39366  0.01767  Biso   1.000  N
  N13      1.0000 0.51040  0.35980  0.29444  Biso   1.000  N
  N14      1.0000 0.48960  0.85980  0.20556  Biso   1.000  N
  N15      1.0000 0.48960  0.64020  0.70556  Biso   1.000  N
  N16      1.0000 0.51040  0.14020  0.79444  Biso   1.000  N
  N17      1.0000 0.48850  0.32418  0.23966  Biso   1.000  N
  N18      1.0000 0.51150  0.82418  0.26034  Biso   1.000  N
  N19      1.0000 0.51150  0.67582  0.76034  Biso   1.000  N
  N20      1.0000 0.48850  0.17582  0.73966  Biso   1.000  N
  N21      1.0000 0.78840  0.40772  0.23120  Biso   1.000  N
  N22      1.0000 0.21160  0.90772  0.26880  Biso   1.000  N
  N23      1.0000 0.21160  0.59228  0.76880  Biso   1.000  N
  N24      1.0000 0.78840  0.09228  0.73120  Biso   1.000  N
  N25      1.0000 0.02880  0.94680  0.90708  Biso   1.000  N
  N26      1.0000 0.97120  0.44680  0.59292  Biso   1.000  N
  N27      1.0000 0.97120  0.05320  0.09292  Biso   1.000  N
  N28      1.0000 0.02880  0.55320  0.40708  Biso   1.000  N
  N29      1.0000 0.70920  0.77961  0.86817  Biso   1.000  N
  N30      1.0000 0.29080  0.27961  0.63183  Biso   1.000  N
  N31      1.0000 0.29080  0.22039  0.13183  Biso   1.000  N
  N32      1.0000 0.70920  0.72039  0.36817  Biso   1.000  N
  O1       1.0000 0.76730  0.93554  0.68171  Biso   1.000  O
  O2       1.0000 0.23270  0.43554  0.81829  Biso   1.000  O
  O3       1.0000 0.23270  0.06446  0.31829  Biso   1.000  O
  O4       1.0000 0.76730  0.56446  0.18171  Biso   1.000  O
  O5       1.0000 0.37770  0.98573  0.67124  Biso   1.000  O
  O6       1.0000 0.62230  0.48573  0.82876  Biso   1.000  O
  O7       1.0000 0.62230  0.01427  0.32876  Biso   1.000  O
  O8       1.0000 0.37770  0.51427  0.17124  Biso   1.000  O
  O9       1.0000 0.11570  0.00032  0.78391  Biso   1.000  O
  O10      1.0000 0.88430  0.50032  0.71609  Biso   1.000  O
  O11      1.0000 0.88430  0.99968  0.21609  Biso   1.000  O
  O12      1.0000 0.11570  0.49968  0.28391  Biso   1.000  O
  O13      1.0000 0.95620  0.00448  0.90261  Biso   1.000  O
  O14      1.0000 0.04380  0.50448  0.59739  Biso   1.000  O
  O15      1.0000 0.04380  0.99552  0.09739  Biso   1.000  O
  O16      1.0000 0.95620  0.49552  0.40261  Biso   1.000  O
  O17      1.0000 0.94460  0.90997  0.94804  Biso   1.000  O
  O18      1.0000 0.05540  0.40997  0.55196  Biso   1.000  O
  O19      1.0000 0.05540  0.09003  0.05196  Biso   1.000  O
  O20      1.0000 0.94460  0.59003  0.44804  Biso   1.000  O
  O21      1.0000 0.61850  0.74751  0.91285  Biso   1.000  O
  O22      1.0000 0.38150  0.24751  0.58715  Biso   1.000  O
  O23      1.0000 0.38150  0.25249  0.08715  Biso   1.000  O
  O24      1.0000 0.61850  0.75249  0.41285  Biso   1.000  O
  O25      1.0000 0.91630  0.76490  0.84175  Biso   1.000  O
  O26      1.0000 0.08370  0.26490  0.65825  Biso   1.000  O
  O27      1.0000 0.08370  0.23510  0.15825  Biso   1.000  O
  O28      1.0000 0.91630  0.73510  0.34175  Biso   1.000  O
  O29      1.0000 0.48260  0.03440  0.97110  Biso   1.000  O
  O30      1.0000 0.51740  0.53440  0.52890  Biso   1.000  O
  O31      1.0000 0.51740  0.96560  0.02890  Biso   1.000  O
  O32      1.0000 0.48260  0.46560  0.47110  Biso   1.000  O
