data_image0
_cell_length_a       15.7724
_cell_length_b       21.0412
_cell_length_c       16.7687
_cell_angle_alpha    90
_cell_angle_beta     96.915
_cell_angle_gamma    90

_symmetry_space_group_name_H-M    "P 1"
_symmetry_int_tables_number       1

loop_
  _symmetry_equiv_pos_as_xyz
  'x, y, z'

loop_
  _atom_site_label
  _atom_site_occupancy
  _atom_site_fract_x
  _atom_site_fract_y
  _atom_site_fract_z
  _atom_site_thermal_displace_type
  _atom_site_B_iso_or_equiv
  _atom_site_type_symbol
  Cu1      1.0000 0.36858  0.23621  0.86913  Biso   1.000  Cu
  Cu2      1.0000 0.13142  0.73621  0.63087  Biso   1.000  Cu
  Cu3      1.0000 0.63142  0.76379  0.13087  Biso   1.000  Cu
  Cu4      1.0000 0.86858  0.26379  0.36913  Biso   1.000  Cu
  Cu5      1.0000 0.49988  0.11328  0.70198  Biso   1.000  Cu
  Cu6      1.0000 0.00012  0.61328  0.79802  Biso   1.000  Cu
  Cu7      1.0000 0.50012  0.88672  0.29802  Biso   1.000  Cu
  Cu8      1.0000 0.99988  0.38672  0.20198  Biso   1.000  Cu
  Cu9      1.0000 0.38630  0.27852  0.56226  Biso   1.000  Cu
  Cu10     1.0000 0.11370  0.77852  0.93774  Biso   1.000  Cu
  Cu11     1.0000 0.61370  0.72148  0.43774  Biso   1.000  Cu
  Cu12     1.0000 0.88630  0.22148  0.06226  Biso   1.000  Cu
  Cu13     1.0000 0.52598  0.38751  0.74677  Biso   1.000  Cu
  Cu14     1.0000 0.97402  0.88751  0.75323  Biso   1.000  Cu
  Cu15     1.0000 0.47402  0.61249  0.25323  Biso   1.000  Cu
  Cu16     1.0000 0.02598  0.11249  0.24677  Biso   1.000  Cu
  C1       1.0000 0.25380  0.13410  0.91280  Biso   1.000  C
  C2       1.0000 0.24620  0.63410  0.58720  Biso   1.000  C
  C3       1.0000 0.74620  0.86590  0.08720  Biso   1.000  C
  C4       1.0000 0.75380  0.36590  0.41280  Biso   1.000  C
  H1       1.0000 0.20560  0.15560  0.88950  Biso   1.000  H
  H2       1.0000 0.29440  0.65560  0.61050  Biso   1.000  H
  H3       1.0000 0.79440  0.84440  0.11050  Biso   1.000  H
  H4       1.0000 0.70560  0.34440  0.38950  Biso   1.000  H
  C5       1.0000 0.37980  0.11200  0.95280  Biso   1.000  C
  C6       1.0000 0.12020  0.61200  0.54720  Biso   1.000  C
  C7       1.0000 0.62020  0.88800  0.04720  Biso   1.000  C
  C8       1.0000 0.87980  0.38800  0.45280  Biso   1.000  C
  H5       1.0000 0.43900  0.11350  0.96320  Biso   1.000  H
  H6       1.0000 0.06100  0.61350  0.53680  Biso   1.000  H
  H7       1.0000 0.56100  0.88650  0.03680  Biso   1.000  H
  H8       1.0000 0.93900  0.38650  0.46320  Biso   1.000  H
  C9       1.0000 0.36080  0.99450  0.99250  Biso   1.000  C
  C10      1.0000 0.13920  0.49450  0.50750  Biso   1.000  C
  C11      1.0000 0.63920  0.00550  0.00750  Biso   1.000  C
  C12      1.0000 0.86080  0.50550  0.49250  Biso   1.000  C
  H9       1.0000 0.32420  0.96560  0.95890  Biso   1.000  H
  H10      1.0000 0.17580  0.46560  0.54110  Biso   1.000  H
  H11      1.0000 0.67580  0.03440  0.04110  Biso   1.000  H
  H12      1.0000 0.82420  0.53440  0.45890  Biso   1.000  H
  H13      1.0000 0.41890  0.98830  0.98070  Biso   1.000  H
  H14      1.0000 0.08110  0.48830  0.51930  Biso   1.000  H
  H15      1.0000 0.58110  0.01170  0.01930  Biso   1.000  H
  H16      1.0000 0.91890  0.51170  0.48070  Biso   1.000  H
  C13      1.0000 0.35590  0.97950  0.07740  Biso   1.000  C
  C14      1.0000 0.14410  0.47950  0.42260  Biso   1.000  C
  C15      1.0000 0.64410  0.02050  0.92260  Biso   1.000  C
  C16      1.0000 0.85590  0.52050  0.57740  Biso   1.000  C
  H17      1.0000 0.39420  0.00750  0.11050  Biso   1.000  H
  H18      1.0000 0.10580  0.50750  0.38950  Biso   1.000  H
  H19      1.0000 0.60580  0.99250  0.88950  Biso   1.000  H
  H20      1.0000 0.89420  0.49250  0.61050  Biso   1.000  H
  H21      1.0000 0.37580  0.93630  0.08770  Biso   1.000  H
  H22      1.0000 0.12420  0.43630  0.41230  Biso   1.000  H
  H23      1.0000 0.62420  0.06370  0.91230  Biso   1.000  H
  H24      1.0000 0.87580  0.56370  0.58770  Biso   1.000  H
  C17      1.0000 0.26390  0.98580  0.10400  Biso   1.000  C
  C18      1.0000 0.23610  0.48580  0.39600  Biso   1.000  C
  C19      1.0000 0.73610  0.01420  0.89600  Biso   1.000  C
  C20      1.0000 0.76390  0.51420  0.60400  Biso   1.000  C
  H25      1.0000 0.24380  0.02850  0.09050  Biso   1.000  H
  H26      1.0000 0.25620  0.52850  0.40950  Biso   1.000  H
  H27      1.0000 0.75620  0.97150  0.90950  Biso   1.000  H
  H28      1.0000 0.74380  0.47150  0.59050  Biso   1.000  H
  H29      1.0000 0.26970  0.98240  0.16210  Biso   1.000  H
  H30      1.0000 0.23030  0.48240  0.33790  Biso   1.000  H
  H31      1.0000 0.73030  0.01760  0.83790  Biso   1.000  H
  H32      1.0000 0.76970  0.51760  0.66210  Biso   1.000  H
  C21      1.0000 0.07640  0.87700  0.05570  Biso   1.000  C
  C22      1.0000 0.42360  0.37700  0.44430  Biso   1.000  C
  C23      1.0000 0.92360  0.12300  0.94430  Biso   1.000  C
  C24      1.0000 0.57640  0.62300  0.55570  Biso   1.000  C
  H33      1.0000 0.02380  0.85970  0.06340  Biso   1.000  H
  H34      1.0000 0.47620  0.35970  0.43660  Biso   1.000  H
  H35      1.0000 0.97620  0.14030  0.93660  Biso   1.000  H
  H36      1.0000 0.52380  0.64030  0.56340  Biso   1.000  H
  C25      1.0000 0.19930  0.88740  0.02060  Biso   1.000  C
  C26      1.0000 0.30070  0.38740  0.47940  Biso   1.000  C
  C27      1.0000 0.80070  0.11260  0.97940  Biso   1.000  C
  C28      1.0000 0.69930  0.61260  0.52060  Biso   1.000  C
  H37      1.0000 0.24920  0.87950  0.99800  Biso   1.000  H
  H38      1.0000 0.25080  0.37950  0.50200  Biso   1.000  H
  H39      1.0000 0.75080  0.12050  0.00200  Biso   1.000  H
  H40      1.0000 0.74920  0.62050  0.49800  Biso   1.000  H
  C29      1.0000 0.52580  0.09920  0.52750  Biso   1.000  C
  C30      1.0000 0.97420  0.59920  0.97250  Biso   1.000  C
  C31      1.0000 0.47420  0.90080  0.47250  Biso   1.000  C
  C32      1.0000 0.02580  0.40080  0.02750  Biso   1.000  C
  H41      1.0000 0.48800  0.13190  0.51090  Biso   1.000  H
  H42      1.0000 0.01200  0.63190  0.98910  Biso   1.000  H
  H43      1.0000 0.51200  0.86810  0.48910  Biso   1.000  H
  H44      1.0000 0.98800  0.36810  0.01090  Biso   1.000  H
  C33      1.0000 0.59630  0.03260  0.59920  Biso   1.000  C
  C34      1.0000 0.90370  0.53260  0.90080  Biso   1.000  C
  C35      1.0000 0.40370  0.96740  0.40080  Biso   1.000  C
  C36      1.0000 0.09630  0.46740  0.09920  Biso   1.000  C
  H45      1.0000 0.61960  0.00790  0.64240  Biso   1.000  H
  H46      1.0000 0.88040  0.50790  0.85760  Biso   1.000  H
  H47      1.0000 0.38040  0.99210  0.35760  Biso   1.000  H
  H48      1.0000 0.11960  0.49210  0.14240  Biso   1.000  H
  C37      1.0000 0.67740  0.98490  0.49550  Biso   1.000  C
  C38      1.0000 0.82260  0.48490  0.00450  Biso   1.000  C
  C39      1.0000 0.32260  0.01510  0.50450  Biso   1.000  C
  C40      1.0000 0.17740  0.51510  0.99550  Biso   1.000  C
  H49      1.0000 0.64610  0.95910  0.45400  Biso   1.000  H
  H50      1.0000 0.85390  0.45910  0.04600  Biso   1.000  H
  H51      1.0000 0.35390  0.04090  0.54600  Biso   1.000  H
  H52      1.0000 0.14610  0.54090  0.95400  Biso   1.000  H
  H53      1.0000 0.70120  0.95660  0.53810  Biso   1.000  H
  H54      1.0000 0.79880  0.45660  0.96190  Biso   1.000  H
  H55      1.0000 0.29880  0.04340  0.46190  Biso   1.000  H
  H56      1.0000 0.20120  0.54340  0.03810  Biso   1.000  H
  C41      1.0000 0.74870  0.01710  0.46130  Biso   1.000  C
  C42      1.0000 0.75130  0.51710  0.03870  Biso   1.000  C
  C43      1.0000 0.25130  0.98290  0.53870  Biso   1.000  C
  C44      1.0000 0.24870  0.48290  0.96130  Biso   1.000  C
  H57      1.0000 0.77030  0.98830  0.42330  Biso   1.000  H
  H58      1.0000 0.72970  0.48830  0.07670  Biso   1.000  H
  H59      1.0000 0.22970  0.01170  0.57670  Biso   1.000  H
  H60      1.0000 0.27030  0.51170  0.92330  Biso   1.000  H
  H61      1.0000 0.72570  0.05390  0.43140  Biso   1.000  H
  H62      1.0000 0.77430  0.55390  0.06860  Biso   1.000  H
  H63      1.0000 0.27430  0.94610  0.56860  Biso   1.000  H
  H64      1.0000 0.22570  0.44610  0.93140  Biso   1.000  H
  C45      1.0000 0.82150  0.03830  0.51880  Biso   1.000  C
  C46      1.0000 0.67850  0.53830  0.98120  Biso   1.000  C
  C47      1.0000 0.17850  0.96170  0.48120  Biso   1.000  C
  C48      1.0000 0.32150  0.46170  0.01880  Biso   1.000  C
  H65      1.0000 0.85830  0.06510  0.49080  Biso   1.000  H
  H66      1.0000 0.64170  0.56510  0.00920  Biso   1.000  H
  H67      1.0000 0.14170  0.93490  0.50920  Biso   1.000  H
  H68      1.0000 0.35830  0.43490  0.99080  Biso   1.000  H
  H69      1.0000 0.80000  0.06380  0.56010  Biso   1.000  H
  H70      1.0000 0.70000  0.56380  0.93990  Biso   1.000  H
  H71      1.0000 0.20000  0.93620  0.43990  Biso   1.000  H
  H72      1.0000 0.30000  0.43620  0.06010  Biso   1.000  H
  C49      1.0000 0.95580  0.90910  0.57180  Biso   1.000  C
  C50      1.0000 0.54420  0.40910  0.92820  Biso   1.000  C
  C51      1.0000 0.04420  0.09090  0.42820  Biso   1.000  C
  C52      1.0000 0.45580  0.59090  0.07180  Biso   1.000  C
  H73      1.0000 0.99180  0.87590  0.56140  Biso   1.000  H
  H74      1.0000 0.50820  0.37590  0.93860  Biso   1.000  H
  H75      1.0000 0.00820  0.12410  0.43860  Biso   1.000  H
  H76      1.0000 0.49180  0.62410  0.06140  Biso   1.000  H
  C53      1.0000 0.88540  0.97250  0.63410  Biso   1.000  C
  C54      1.0000 0.61460  0.47250  0.86590  Biso   1.000  C
  C55      1.0000 0.11460  0.02750  0.36590  Biso   1.000  C
  C56      1.0000 0.38540  0.52750  0.13410  Biso   1.000  C
  H77      1.0000 0.86120  0.99410  0.67410  Biso   1.000  H
  H78      1.0000 0.63880  0.49410  0.82590  Biso   1.000  H
  H79      1.0000 0.13880  0.00590  0.32590  Biso   1.000  H
  H80      1.0000 0.36120  0.50590  0.17410  Biso   1.000  H
  C57      1.0000 0.61220  0.19983  0.83610  Biso   1.000  C
  C58      1.0000 0.88780  0.69983  0.66390  Biso   1.000  C
  C59      1.0000 0.38780  0.80017  0.16390  Biso   1.000  C
  C60      1.0000 0.11220  0.30017  0.33610  Biso   1.000  C
  C61      1.0000 0.65590  0.16000  0.78540  Biso   1.000  C
  C62      1.0000 0.84410  0.66000  0.71460  Biso   1.000  C
  C63      1.0000 0.34410  0.84000  0.21460  Biso   1.000  C
  C64      1.0000 0.15590  0.34000  0.28540  Biso   1.000  C
  C65      1.0000 0.74430  0.17250  0.78540  Biso   1.000  C
  C66      1.0000 0.75570  0.67250  0.71460  Biso   1.000  C
  C67      1.0000 0.25570  0.82750  0.21460  Biso   1.000  C
  C68      1.0000 0.24430  0.32750  0.28540  Biso   1.000  C
  C69      1.0000 0.78720  0.22000  0.82690  Biso   1.000  C
  C70      1.0000 0.71280  0.72000  0.67310  Biso   1.000  C
  C71      1.0000 0.21280  0.78000  0.17310  Biso   1.000  C
  C72      1.0000 0.28720  0.28000  0.32690  Biso   1.000  C
  H81      1.0000 0.84490  0.22720  0.82350  Biso   1.000  H
  H82      1.0000 0.65510  0.72720  0.67650  Biso   1.000  H
  H83      1.0000 0.15510  0.77280  0.17650  Biso   1.000  H
  H84      1.0000 0.34490  0.27280  0.32350  Biso   1.000  H
  C73      1.0000 0.74200  0.25741  0.87450  Biso   1.000  C
  C74      1.0000 0.75800  0.75741  0.62550  Biso   1.000  C
  C75      1.0000 0.25800  0.74259  0.12550  Biso   1.000  C
  C76      1.0000 0.24200  0.24259  0.37450  Biso   1.000  C
  C77      1.0000 0.65700  0.24756  0.87930  Biso   1.000  C
  C78      1.0000 0.84300  0.74756  0.62070  Biso   1.000  C
  C79      1.0000 0.34300  0.75244  0.12070  Biso   1.000  C
  C80      1.0000 0.15700  0.25244  0.37930  Biso   1.000  C
  H85      1.0000 0.62880  0.27360  0.91240  Biso   1.000  H
  H86      1.0000 0.87120  0.77360  0.58760  Biso   1.000  H
  H87      1.0000 0.37120  0.72640  0.08760  Biso   1.000  H
  H88      1.0000 0.12880  0.22640  0.41240  Biso   1.000  H
  C81      1.0000 0.52060  0.19310  0.84340  Biso   1.000  C
  C82      1.0000 0.97940  0.69310  0.65660  Biso   1.000  C
  C83      1.0000 0.47940  0.80690  0.15660  Biso   1.000  C
  C84      1.0000 0.02060  0.30690  0.34340  Biso   1.000  C
  C85      1.0000 0.25940  0.17995  0.63980  Biso   1.000  C
  C86      1.0000 0.24060  0.67995  0.86020  Biso   1.000  C
  C87      1.0000 0.74060  0.82005  0.36020  Biso   1.000  C
  C88      1.0000 0.75940  0.32005  0.13980  Biso   1.000  C
  C89      1.0000 0.22480  0.23914  0.60770  Biso   1.000  C
  C90      1.0000 0.27520  0.73914  0.89230  Biso   1.000  C
  C91      1.0000 0.77520  0.76086  0.39230  Biso   1.000  C
  C92      1.0000 0.72480  0.26086  0.10770  Biso   1.000  C
  C93      1.0000 0.13490  0.24805  0.61270  Biso   1.000  C
  C94      1.0000 0.36510  0.74805  0.88730  Biso   1.000  C
  C95      1.0000 0.86510  0.75195  0.38730  Biso   1.000  C
  C96      1.0000 0.63490  0.25195  0.11270  Biso   1.000  C
  C97      1.0000 0.08620  0.20320  0.64230  Biso   1.000  C
  C98      1.0000 0.41380  0.70320  0.85770  Biso   1.000  C
  C99      1.0000 0.91380  0.79680  0.35770  Biso   1.000  C
  C100     1.0000 0.58620  0.29680  0.14230  Biso   1.000  C
  H89      1.0000 0.02810  0.21000  0.64380  Biso   1.000  H
  H90      1.0000 0.47190  0.71000  0.85620  Biso   1.000  H
  H91      1.0000 0.97190  0.79000  0.35620  Biso   1.000  H
  H92      1.0000 0.52810  0.29000  0.14380  Biso   1.000  H
  C101     1.0000 0.12400  0.14720  0.67040  Biso   1.000  C
  C102     1.0000 0.37600  0.64720  0.82960  Biso   1.000  C
  C103     1.0000 0.87600  0.85280  0.32960  Biso   1.000  C
  C104     1.0000 0.62400  0.35280  0.17040  Biso   1.000  C
  C105     1.0000 0.20950  0.13700  0.67140  Biso   1.000  C
  C106     1.0000 0.29050  0.63700  0.82860  Biso   1.000  C
  C107     1.0000 0.79050  0.86300  0.32860  Biso   1.000  C
  C108     1.0000 0.70950  0.36300  0.17140  Biso   1.000  C
  H93      1.0000 0.23370  0.09990  0.69410  Biso   1.000  H
  H94      1.0000 0.26630  0.59990  0.80590  Biso   1.000  H
  H95      1.0000 0.76630  0.90010  0.30590  Biso   1.000  H
  H96      1.0000 0.73370  0.40010  0.19410  Biso   1.000  H
  C109     1.0000 0.35150  0.16380  0.64330  Biso   1.000  C
  C110     1.0000 0.14850  0.66380  0.85670  Biso   1.000  C
  C111     1.0000 0.64850  0.83620  0.35670  Biso   1.000  C
  C112     1.0000 0.85150  0.33620  0.14330  Biso   1.000  C
  C113     1.0000 0.63750  0.30463  0.62760  Biso   1.000  C
  C114     1.0000 0.86250  0.80463  0.87240  Biso   1.000  C
  C115     1.0000 0.36250  0.69537  0.37240  Biso   1.000  C
  C116     1.0000 0.13750  0.19537  0.12760  Biso   1.000  C
  C117     1.0000 0.68160  0.34511  0.68580  Biso   1.000  C
  C118     1.0000 0.81840  0.84511  0.81420  Biso   1.000  C
  C119     1.0000 0.31840  0.65489  0.31420  Biso   1.000  C
  C120     1.0000 0.18160  0.15489  0.18580  Biso   1.000  C
  C121     1.0000 0.77290  0.34485  0.68620  Biso   1.000  C
  C122     1.0000 0.72710  0.84485  0.81380  Biso   1.000  C
  C123     1.0000 0.22710  0.65515  0.31380  Biso   1.000  C
  C124     1.0000 0.27290  0.15515  0.18620  Biso   1.000  C
  C125     1.0000 0.81550  0.30630  0.63900  Biso   1.000  C
  C126     1.0000 0.68450  0.80630  0.86100  Biso   1.000  C
  C127     1.0000 0.18450  0.69370  0.36100  Biso   1.000  C
  C128     1.0000 0.31550  0.19370  0.13900  Biso   1.000  C
  H97      1.0000 0.87470  0.30780  0.64170  Biso   1.000  H
  H98      1.0000 0.62530  0.80780  0.85830  Biso   1.000  H
  H99      1.0000 0.12530  0.69220  0.35830  Biso   1.000  H
  H100     1.0000 0.37470  0.19220  0.14170  Biso   1.000  H
  C129     1.0000 0.76890  0.26540  0.58770  Biso   1.000  C
  C130     1.0000 0.73110  0.76540  0.91230  Biso   1.000  C
  C131     1.0000 0.23110  0.73460  0.41230  Biso   1.000  C
  C132     1.0000 0.26890  0.23460  0.08770  Biso   1.000  C
  C133     1.0000 0.68080  0.26510  0.58180  Biso   1.000  C
  C134     1.0000 0.81920  0.76510  0.91820  Biso   1.000  C
  C135     1.0000 0.31920  0.73490  0.41820  Biso   1.000  C
  C136     1.0000 0.18080  0.23490  0.08180  Biso   1.000  C
  H101     1.0000 0.65020  0.23740  0.54600  Biso   1.000  H
  H102     1.0000 0.84980  0.73740  0.95400  Biso   1.000  H
  H103     1.0000 0.34980  0.76260  0.45400  Biso   1.000  H
  H104     1.0000 0.15020  0.26260  0.04600  Biso   1.000  H
  C137     1.0000 0.54320  0.30350  0.61120  Biso   1.000  C
  C138     1.0000 0.95680  0.80350  0.88880  Biso   1.000  C
  C139     1.0000 0.45680  0.69650  0.38880  Biso   1.000  C
  C140     1.0000 0.04320  0.19650  0.11120  Biso   1.000  C
  C141     1.0000 0.27120  0.36074  0.78500  Biso   1.000  C
  C142     1.0000 0.22880  0.86074  0.71500  Biso   1.000  C
  C143     1.0000 0.72880  0.63926  0.21500  Biso   1.000  C
  C144     1.0000 0.77120  0.13926  0.28500  Biso   1.000  C
  C145     1.0000 0.22130  0.31010  0.81220  Biso   1.000  C
  C146     1.0000 0.27870  0.81010  0.68780  Biso   1.000  C
  C147     1.0000 0.77870  0.68990  0.18780  Biso   1.000  C
  C148     1.0000 0.72130  0.18990  0.31220  Biso   1.000  C
  C149     1.0000 0.13140  0.32320  0.81090  Biso   1.000  C
  C150     1.0000 0.36860  0.82320  0.68910  Biso   1.000  C
  C151     1.0000 0.86860  0.67680  0.18910  Biso   1.000  C
  C152     1.0000 0.63140  0.17680  0.31090  Biso   1.000  C
  C153     1.0000 0.09630  0.37990  0.78620  Biso   1.000  C
  C154     1.0000 0.40370  0.87990  0.71380  Biso   1.000  C
  C155     1.0000 0.90370  0.62010  0.21380  Biso   1.000  C
  C156     1.0000 0.59630  0.12010  0.28620  Biso   1.000  C
  H105     1.0000 0.03820  0.38690  0.78710  Biso   1.000  H
  H106     1.0000 0.46180  0.88690  0.71290  Biso   1.000  H
  H107     1.0000 0.96180  0.61310  0.21290  Biso   1.000  H
  H108     1.0000 0.53820  0.11310  0.28710  Biso   1.000  H
  C157     1.0000 0.14680  0.42727  0.75970  Biso   1.000  C
  C158     1.0000 0.35320  0.92727  0.74030  Biso   1.000  C
  C159     1.0000 0.85320  0.57273  0.24030  Biso   1.000  C
  C160     1.0000 0.64680  0.07273  0.25970  Biso   1.000  C
  C161     1.0000 0.23350  0.41752  0.75870  Biso   1.000  C
  C162     1.0000 0.26650  0.91752  0.74130  Biso   1.000  C
  C163     1.0000 0.76650  0.58248  0.24130  Biso   1.000  C
  C164     1.0000 0.73350  0.08248  0.25870  Biso   1.000  C
  H109     1.0000 0.26680  0.44950  0.74010  Biso   1.000  H
  H110     1.0000 0.23320  0.94950  0.75990  Biso   1.000  H
  H111     1.0000 0.73320  0.55050  0.25990  Biso   1.000  H
  H112     1.0000 0.76680  0.05050  0.24010  Biso   1.000  H
  C165     1.0000 0.36450  0.35510  0.78480  Biso   1.000  C
  C166     1.0000 0.13550  0.85510  0.71520  Biso   1.000  C
  C167     1.0000 0.63550  0.64490  0.21520  Biso   1.000  C
  C168     1.0000 0.86450  0.14490  0.28480  Biso   1.000  C
  N1       1.0000 0.33310  0.15742  0.91730  Biso   1.000  N
  N2       1.0000 0.16690  0.65742  0.58270  Biso   1.000  N
  N3       1.0000 0.66690  0.84258  0.08270  Biso   1.000  N
  N4       1.0000 0.83310  0.34258  0.41730  Biso   1.000  N
  N5       1.0000 0.25160  0.07730  0.94510  Biso   1.000  N
  N6       1.0000 0.24840  0.57730  0.55490  Biso   1.000  N
  N7       1.0000 0.74840  0.92270  0.05490  Biso   1.000  N
  N8       1.0000 0.75160  0.42270  0.44510  Biso   1.000  N
  N9       1.0000 0.33330  0.06353  0.97230  Biso   1.000  N
  N10      1.0000 0.16670  0.56353  0.52770  Biso   1.000  N
  N11      1.0000 0.66670  0.93647  0.02770  Biso   1.000  N
  N12      1.0000 0.83330  0.43647  0.47230  Biso   1.000  N
  N13      1.0000 0.18910  0.93660  0.06820  Biso   1.000  N
  N14      1.0000 0.31090  0.43660  0.43180  Biso   1.000  N
  N15      1.0000 0.81090  0.06340  0.93180  Biso   1.000  N
  N16      1.0000 0.68910  0.56340  0.56820  Biso   1.000  N
  N17      1.0000 0.10840  0.93070  0.08910  Biso   1.000  N
  N18      1.0000 0.39160  0.43070  0.41090  Biso   1.000  N
  N19      1.0000 0.89160  0.06930  0.91090  Biso   1.000  N
  N20      1.0000 0.60840  0.56930  0.58910  Biso   1.000  N
  N21      1.0000 0.13140  0.85130  0.00900  Biso   1.000  N
  N22      1.0000 0.36860  0.35130  0.49100  Biso   1.000  N
  N23      1.0000 0.86860  0.14870  0.99100  Biso   1.000  N
  N24      1.0000 0.63140  0.64870  0.50900  Biso   1.000  N
  N25      1.0000 0.53640  0.07709  0.60360  Biso   1.000  N
  N26      1.0000 0.96360  0.57709  0.89640  Biso   1.000  N
  N27      1.0000 0.46360  0.92291  0.39640  Biso   1.000  N
  N28      1.0000 0.03640  0.42291  0.10360  Biso   1.000  N
  N29      1.0000 0.57310  0.07095  0.47870  Biso   1.000  N
  N30      1.0000 0.92690  0.57095  0.02130  Biso   1.000  N
  N31      1.0000 0.42690  0.92905  0.52130  Biso   1.000  N
  N32      1.0000 0.07310  0.42905  0.97870  Biso   1.000  N
  N33      1.0000 0.61760  0.02838  0.52780  Biso   1.000  N
  N34      1.0000 0.88240  0.52838  0.97220  Biso   1.000  N
  N35      1.0000 0.38240  0.97162  0.47220  Biso   1.000  N
  N36      1.0000 0.11760  0.47162  0.02780  Biso   1.000  N
  N37      1.0000 0.87260  0.98551  0.55750  Biso   1.000  N
  N38      1.0000 0.62740  0.48551  0.94250  Biso   1.000  N
  N39      1.0000 0.12740  0.01449  0.44250  Biso   1.000  N
  N40      1.0000 0.37260  0.51449  0.05750  Biso   1.000  N
  N41      1.0000 0.91750  0.94550  0.51510  Biso   1.000  N
  N42      1.0000 0.58250  0.44550  0.98490  Biso   1.000  N
  N43      1.0000 0.08250  0.05450  0.48490  Biso   1.000  N
  N44      1.0000 0.41750  0.55450  0.01510  Biso   1.000  N
  N45      1.0000 0.93870  0.92356  0.64570  Biso   1.000  N
  N46      1.0000 0.56130  0.42356  0.85430  Biso   1.000  N
  N47      1.0000 0.06130  0.07644  0.35430  Biso   1.000  N
  N48      1.0000 0.43870  0.57644  0.14570  Biso   1.000  N
  N49      1.0000 0.79070  0.13260  0.73230  Biso   1.000  N
  N50      1.0000 0.70930  0.63260  0.76770  Biso   1.000  N
  N51      1.0000 0.20930  0.86740  0.26770  Biso   1.000  N
  N52      1.0000 0.29070  0.36740  0.23230  Biso   1.000  N
  N53      1.0000 0.78660  0.30710  0.92410  Biso   1.000  N
  N54      1.0000 0.71340  0.80710  0.57590  Biso   1.000  N
  N55      1.0000 0.21340  0.69290  0.07590  Biso   1.000  N
  N56      1.0000 0.28660  0.19290  0.42410  Biso   1.000  N
  N57      1.0000 0.09440  0.30794  0.58610  Biso   1.000  N
  N58      1.0000 0.40560  0.80794  0.91390  Biso   1.000  N
  N59      1.0000 0.90560  0.69206  0.41390  Biso   1.000  N
  N60      1.0000 0.59440  0.19206  0.08610  Biso   1.000  N
  N61      1.0000 0.08310  0.10490  0.72760  Biso   1.000  N
  N62      1.0000 0.41690  0.60490  0.77240  Biso   1.000  N
  N63      1.0000 0.91690  0.89510  0.27240  Biso   1.000  N
  N64      1.0000 0.58310  0.39510  0.22760  Biso   1.000  N
  N65      1.0000 0.82290  0.38730  0.74010  Biso   1.000  N
  N66      1.0000 0.67710  0.88730  0.75990  Biso   1.000  N
  N67      1.0000 0.17710  0.61270  0.25990  Biso   1.000  N
  N68      1.0000 0.32290  0.11270  0.24010  Biso   1.000  N
  N69      1.0000 0.81220  0.22190  0.53890  Biso   1.000  N
  N70      1.0000 0.68780  0.72190  0.96110  Biso   1.000  N
  N71      1.0000 0.18780  0.77810  0.46110  Biso   1.000  N
  N72      1.0000 0.31220  0.27810  0.03890  Biso   1.000  N
  N73      1.0000 0.07340  0.27490  0.83520  Biso   1.000  N
  N74      1.0000 0.42660  0.77490  0.66480  Biso   1.000  N
  N75      1.0000 0.92660  0.72510  0.16480  Biso   1.000  N
  N76      1.0000 0.57340  0.22510  0.33520  Biso   1.000  N
  N77      1.0000 0.10900  0.48751  0.73280  Biso   1.000  N
  N78      1.0000 0.39100  0.98751  0.76720  Biso   1.000  N
  N79      1.0000 0.89100  0.51249  0.26720  Biso   1.000  N
  N80      1.0000 0.60900  0.01249  0.23280  Biso   1.000  N
  O1       1.0000 0.49078  0.22116  0.89994  Biso   1.000  O
  O2       1.0000 0.00922  0.72116  0.60006  Biso   1.000  O
  O3       1.0000 0.50922  0.77884  0.10006  Biso   1.000  O
  O4       1.0000 0.99078  0.27884  0.39994  Biso   1.000  O
  O5       1.0000 0.47224  0.16121  0.79253  Biso   1.000  O
  O6       1.0000 0.02776  0.66121  0.70747  Biso   1.000  O
  O7       1.0000 0.52776  0.83879  0.20747  Biso   1.000  O
  O8       1.0000 0.97224  0.33879  0.29253  Biso   1.000  O
  O9       1.0000 0.61852  0.11517  0.74190  Biso   1.000  O
  O10      1.0000 0.88148  0.61517  0.75810  Biso   1.000  O
  O11      1.0000 0.38148  0.88483  0.25810  Biso   1.000  O
  O12      1.0000 0.11852  0.38483  0.24190  Biso   1.000  O
  O13      1.0000 0.77980  0.07829  0.72910  Biso   1.000  O
  O14      1.0000 0.72020  0.57829  0.77090  Biso   1.000  O
  O15      1.0000 0.22020  0.92171  0.27090  Biso   1.000  O
  O16      1.0000 0.27980  0.42171  0.22910  Biso   1.000  O
  O17      1.0000 0.84350  0.15932  0.69760  Biso   1.000  O
  O18      1.0000 0.65650  0.65932  0.80240  Biso   1.000  O
  O19      1.0000 0.15650  0.84068  0.30240  Biso   1.000  O
  O20      1.0000 0.34350  0.34068  0.19760  Biso   1.000  O
  O21      1.0000 0.86550  0.30561  0.93410  Biso   1.000  O
  O22      1.0000 0.63450  0.80561  0.56590  Biso   1.000  O
  O23      1.0000 0.13450  0.69439  0.06590  Biso   1.000  O
  O24      1.0000 0.36550  0.19439  0.43410  Biso   1.000  O
  O25      1.0000 0.74330  0.34590  0.95570  Biso   1.000  O
  O26      1.0000 0.75670  0.84590  0.54430  Biso   1.000  O
  O27      1.0000 0.25670  0.65410  0.04430  Biso   1.000  O
  O28      1.0000 0.24330  0.15410  0.45570  Biso   1.000  O
  O29      1.0000 0.37578  0.10933  0.66763  Biso   1.000  O
  O30      1.0000 0.12422  0.60933  0.83237  Biso   1.000  O
  O31      1.0000 0.62422  0.89067  0.33237  Biso   1.000  O
  O32      1.0000 0.87578  0.39067  0.16763  Biso   1.000  O
  O33      1.0000 0.40545  0.20351  0.62380  Biso   1.000  O
  O34      1.0000 0.09455  0.70351  0.87620  Biso   1.000  O
  O35      1.0000 0.59455  0.79649  0.37620  Biso   1.000  O
  O36      1.0000 0.90545  0.29649  0.12380  Biso   1.000  O
  O37      1.0000 0.26843  0.28134  0.57649  Biso   1.000  O
  O38      1.0000 0.23157  0.78134  0.92351  Biso   1.000  O
  O39      1.0000 0.73157  0.71866  0.42351  Biso   1.000  O
  O40      1.0000 0.76843  0.21866  0.07649  Biso   1.000  O
  O41      1.0000 0.12400  0.34248  0.54060  Biso   1.000  O
  O42      1.0000 0.37600  0.84248  0.95940  Biso   1.000  O
  O43      1.0000 0.87600  0.65752  0.45940  Biso   1.000  O
  O44      1.0000 0.62400  0.15752  0.04060  Biso   1.000  O
  O45      1.0000 0.02830  0.32160  0.61300  Biso   1.000  O
  O46      1.0000 0.47170  0.82160  0.88700  Biso   1.000  O
  O47      1.0000 0.97170  0.67840  0.38700  Biso   1.000  O
  O48      1.0000 0.52830  0.17840  0.11300  Biso   1.000  O
  O49      1.0000 0.00540  0.11870  0.73510  Biso   1.000  O
  O50      1.0000 0.49460  0.61870  0.76490  Biso   1.000  O
  O51      1.0000 0.99460  0.88130  0.26490  Biso   1.000  O
  O52      1.0000 0.50540  0.38130  0.23510  Biso   1.000  O
  O53      1.0000 0.11500  0.05860  0.75630  Biso   1.000  O
  O54      1.0000 0.38500  0.55860  0.74370  Biso   1.000  O
  O55      1.0000 0.88500  0.94140  0.24370  Biso   1.000  O
  O56      1.0000 0.61500  0.44140  0.25630  Biso   1.000  O
  O57      1.0000 0.50903  0.27514  0.55000  Biso   1.000  O
  O58      1.0000 0.99097  0.77514  0.95000  Biso   1.000  O
  O59      1.0000 0.49097  0.72486  0.45000  Biso   1.000  O
  O60      1.0000 0.00903  0.22486  0.05000  Biso   1.000  O
  O61      1.0000 0.49640  0.33125  0.65790  Biso   1.000  O
  O62      1.0000 0.00360  0.83125  0.84210  Biso   1.000  O
  O63      1.0000 0.50360  0.66875  0.34210  Biso   1.000  O
  O64      1.0000 0.99640  0.16875  0.15790  Biso   1.000  O
  O65      1.0000 0.64607  0.38157  0.73260  Biso   1.000  O
  O66      1.0000 0.85393  0.88157  0.76740  Biso   1.000  O
  O67      1.0000 0.35393  0.61843  0.26740  Biso   1.000  O
  O68      1.0000 0.14607  0.11843  0.23260  Biso   1.000  O
  O69      1.0000 0.80250  0.40750  0.79670  Biso   1.000  O
  O70      1.0000 0.69750  0.90750  0.70330  Biso   1.000  O
  O71      1.0000 0.19750  0.59250  0.20330  Biso   1.000  O
  O72      1.0000 0.30250  0.09250  0.29670  Biso   1.000  O
  O73      1.0000 0.88670  0.40940  0.71680  Biso   1.000  O
  O74      1.0000 0.61330  0.90940  0.78320  Biso   1.000  O
  O75      1.0000 0.11330  0.59060  0.28320  Biso   1.000  O
  O76      1.0000 0.38670  0.09060  0.21680  Biso   1.000  O
  O77      1.0000 0.88770  0.22745  0.53600  Biso   1.000  O
  O78      1.0000 0.61230  0.72745  0.96400  Biso   1.000  O
  O79      1.0000 0.11230  0.77255  0.46400  Biso   1.000  O
  O80      1.0000 0.38770  0.27255  0.03600  Biso   1.000  O
  O81      1.0000 0.76860  0.18092  0.50150  Biso   1.000  O
  O82      1.0000 0.73140  0.68092  0.99850  Biso   1.000  O
  O83      1.0000 0.23140  0.81908  0.49850  Biso   1.000  O
  O84      1.0000 0.26860  0.31908  0.00150  Biso   1.000  O
  O85      1.0000 0.40280  0.39930  0.75307  Biso   1.000  O
  O86      1.0000 0.09720  0.89930  0.74693  Biso   1.000  O
  O87      1.0000 0.59720  0.60070  0.24693  Biso   1.000  O
  O88      1.0000 0.90280  0.10070  0.25307  Biso   1.000  O
  O89      1.0000 0.40673  0.30911  0.81880  Biso   1.000  O
  O90      1.0000 0.09327  0.80911  0.68120  Biso   1.000  O
  O91      1.0000 0.59327  0.69089  0.18120  Biso   1.000  O
  O92      1.0000 0.90673  0.19089  0.31880  Biso   1.000  O
  O93      1.0000 0.25154  0.25570  0.83650  Biso   1.000  O
  O94      1.0000 0.24846  0.75570  0.66350  Biso   1.000  O
  O95      1.0000 0.74846  0.74430  0.16350  Biso   1.000  O
  O96      1.0000 0.75154  0.24430  0.33650  Biso   1.000  O
  O97      1.0000 0.09710  0.23170  0.87250  Biso   1.000  O
  O98      1.0000 0.40290  0.73170  0.62750  Biso   1.000  O
  O99      1.0000 0.90290  0.76830  0.12750  Biso   1.000  O
  O100     1.0000 0.59710  0.26830  0.37250  Biso   1.000  O
  O101     1.0000 0.00010  0.27830  0.81010  Biso   1.000  O
  O102     1.0000 0.49990  0.77830  0.68990  Biso   1.000  O
  O103     1.0000 0.99990  0.72170  0.18990  Biso   1.000  O
  O104     1.0000 0.50010  0.22170  0.31010  Biso   1.000  O
  O105     1.0000 0.03610  0.49917  0.74790  Biso   1.000  O
  O106     1.0000 0.46390  0.99917  0.75210  Biso   1.000  O
  O107     1.0000 0.96390  0.50083  0.25210  Biso   1.000  O
  O108     1.0000 0.53610  0.00083  0.24790  Biso   1.000  O
  O109     1.0000 0.15070  0.52317  0.69710  Biso   1.000  O
  O110     1.0000 0.34930  0.02317  0.80290  Biso   1.000  O
  O111     1.0000 0.84930  0.47683  0.30290  Biso   1.000  O
  O112     1.0000 0.65070  0.97683  0.19710  Biso   1.000  O
  O113     1.0000 0.50980  0.48112  0.67450  Biso   1.000  O
  O114     1.0000 0.99020  0.98112  0.82550  Biso   1.000  O
  O115     1.0000 0.49020  0.51888  0.32550  Biso   1.000  O
  O116     1.0000 0.00980  0.01888  0.17450  Biso   1.000  O
  C169     1.0000 0.18130  0.04030  0.94750  Biso   1.000  C
  C170     1.0000 0.31870  0.54030  0.55250  Biso   1.000  C
  C171     1.0000 0.81870  0.95970  0.05250  Biso   1.000  C
  C172     1.0000 0.68130  0.45970  0.44750  Biso   1.000  C
  H113     1.0000 0.19280  0.99740  0.93050  Biso   1.000  H
  H114     1.0000 0.30720  0.49740  0.56950  Biso   1.000  H
  H115     1.0000 0.80720  0.00260  0.06950  Biso   1.000  H
  H116     1.0000 0.69280  0.50260  0.43050  Biso   1.000  H
  H117     1.0000 0.13380  0.05720  0.91170  Biso   1.000  H
  H118     1.0000 0.36620  0.55720  0.58830  Biso   1.000  H
  H119     1.0000 0.86620  0.94280  0.08830  Biso   1.000  H
  H120     1.0000 0.63380  0.44280  0.41170  Biso   1.000  H
  C173     1.0000 0.16050  0.03990  0.03060  Biso   1.000  C
  C174     1.0000 0.33950  0.53990  0.46940  Biso   1.000  C
  C175     1.0000 0.83950  0.96010  0.96940  Biso   1.000  C
  C176     1.0000 0.66050  0.46010  0.53060  Biso   1.000  C
  H121     1.0000 0.17350  0.08160  0.05360  Biso   1.000  H
  H122     1.0000 0.32650  0.58160  0.44640  Biso   1.000  H
  H123     1.0000 0.82650  0.91840  0.94640  Biso   1.000  H
  H124     1.0000 0.67350  0.41840  0.55360  Biso   1.000  H
  H125     1.0000 0.09950  0.03340  0.02920  Biso   1.000  H
  H126     1.0000 0.40050  0.53340  0.47080  Biso   1.000  H
  H127     1.0000 0.90050  0.96660  0.97080  Biso   1.000  H
  H128     1.0000 0.59950  0.46660  0.52920  Biso   1.000  H
  C177     1.0000 0.20250  0.99440  0.08180  Biso   1.000  C
  C178     1.0000 0.29750  0.49440  0.41820  Biso   1.000  C
  C179     1.0000 0.79750  0.00560  0.91820  Biso   1.000  C
  C180     1.0000 0.70250  0.50560  0.58180  Biso   1.000  C
  H129     1.0000 0.26340  0.00150  0.08260  Biso   1.000  H
  H130     1.0000 0.23660  0.50150  0.41740  Biso   1.000  H
  H131     1.0000 0.73660  0.99850  0.91740  Biso   1.000  H
  H132     1.0000 0.76340  0.49850  0.58260  Biso   1.000  H
  H133     1.0000 0.18870  0.00300  0.13550  Biso   1.000  H
  H134     1.0000 0.31130  0.50300  0.36450  Biso   1.000  H
  H135     1.0000 0.81130  0.99700  0.86450  Biso   1.000  H
  H136     1.0000 0.68870  0.49700  0.63550  Biso   1.000  H
  N81      1.0000 0.06190  0.09390  0.68340  Biso   1.000  N
  N82      1.0000 0.43810  0.59390  0.81660  Biso   1.000  N
  N83      1.0000 0.93810  0.90610  0.31660  Biso   1.000  N
  N84      1.0000 0.56190  0.40610  0.18340  Biso   1.000  N
  O117     1.0000 0.98870  0.09750  0.65970  Biso   1.000  O
  O118     1.0000 0.51130  0.59750  0.84030  Biso   1.000  O
  O119     1.0000 0.01130  0.90250  0.34030  Biso   1.000  O
  O120     1.0000 0.48870  0.40250  0.15970  Biso   1.000  O
  O121     1.0000 0.09570  0.04510  0.70810  Biso   1.000  O
  O122     1.0000 0.40430  0.54510  0.79190  Biso   1.000  O
  O123     1.0000 0.90430  0.95490  0.29190  Biso   1.000  O
  O124     1.0000 0.59570  0.45490  0.20810  Biso   1.000  O
