data_image0
_cell_length_a       16.836
_cell_length_b       21.2727
_cell_length_c       15.8167
_cell_angle_alpha    90
_cell_angle_beta     90
_cell_angle_gamma    90

_symmetry_space_group_name_H-M    "P 1"
_symmetry_int_tables_number       1

loop_
  _symmetry_equiv_pos_as_xyz
  'x, y, z'

loop_
  _atom_site_label
  _atom_site_occupancy
  _atom_site_fract_x
  _atom_site_fract_y
  _atom_site_fract_z
  _atom_site_thermal_displace_type
  _atom_site_B_iso_or_equiv
  _atom_site_type_symbol
  Cu1      1.0000 0.07178  0.27745  0.08736  Biso   1.000  Cu
  Cu2      1.0000 0.42822  0.72255  0.08736  Biso   1.000  Cu
  Cu3      1.0000 0.07178  0.22255  0.41264  Biso   1.000  Cu
  Cu4      1.0000 0.42822  0.77745  0.41264  Biso   1.000  Cu
  Cu5      1.0000 0.92822  0.72255  0.91264  Biso   1.000  Cu
  Cu6      1.0000 0.57178  0.27745  0.91264  Biso   1.000  Cu
  Cu7      1.0000 0.92822  0.77745  0.58736  Biso   1.000  Cu
  Cu8      1.0000 0.57178  0.22255  0.58736  Biso   1.000  Cu
  Cu9      1.0000 0.96572  0.38303  0.27255  Biso   1.000  Cu
  Cu10     1.0000 0.53428  0.61697  0.27255  Biso   1.000  Cu
  Cu11     1.0000 0.96572  0.11697  0.22745  Biso   1.000  Cu
  Cu12     1.0000 0.53428  0.88303  0.22745  Biso   1.000  Cu
  Cu13     1.0000 0.03428  0.61697  0.72745  Biso   1.000  Cu
  Cu14     1.0000 0.46572  0.38303  0.72745  Biso   1.000  Cu
  Cu15     1.0000 0.03428  0.88303  0.77255  Biso   1.000  Cu
  Cu16     1.0000 0.46572  0.11697  0.77255  Biso   1.000  Cu
  C1       1.0000 0.04498  0.38546  0.96640  Biso   1.000  C
  C2       1.0000 0.45502  0.61454  0.96640  Biso   1.000  C
  C3       1.0000 0.04498  0.11454  0.53360  Biso   1.000  C
  C4       1.0000 0.45502  0.88546  0.53360  Biso   1.000  C
  C5       1.0000 0.95502  0.61454  0.03360  Biso   1.000  C
  C6       1.0000 0.54498  0.38546  0.03360  Biso   1.000  C
  C7       1.0000 0.95502  0.88546  0.46640  Biso   1.000  C
  C8       1.0000 0.54498  0.11454  0.46640  Biso   1.000  C
  H1       1.0000 0.00790  0.36340  0.93450  Biso   1.000  H
  H2       1.0000 0.49210  0.63660  0.93450  Biso   1.000  H
  H3       1.0000 0.00790  0.13660  0.56550  Biso   1.000  H
  H4       1.0000 0.49210  0.86340  0.56550  Biso   1.000  H
  H5       1.0000 0.99210  0.63660  0.06550  Biso   1.000  H
  H6       1.0000 0.50790  0.36340  0.06550  Biso   1.000  H
  H7       1.0000 0.99210  0.86340  0.43450  Biso   1.000  H
  H8       1.0000 0.50790  0.13660  0.43450  Biso   1.000  H
  C9       1.0000 0.12845  0.40664  0.06010  Biso   1.000  C
  C10      1.0000 0.37155  0.59336  0.06010  Biso   1.000  C
  C11      1.0000 0.12845  0.09336  0.43990  Biso   1.000  C
  C12      1.0000 0.37155  0.90664  0.43990  Biso   1.000  C
  C13      1.0000 0.87155  0.59336  0.93990  Biso   1.000  C
  C14      1.0000 0.62845  0.40664  0.93990  Biso   1.000  C
  C15      1.0000 0.87155  0.90664  0.56010  Biso   1.000  C
  C16      1.0000 0.62845  0.09336  0.56010  Biso   1.000  C
  H9       1.0000 0.16280  0.40430  0.10600  Biso   1.000  H
  H10      1.0000 0.33720  0.59570  0.10600  Biso   1.000  H
  H11      1.0000 0.16280  0.09570  0.39400  Biso   1.000  H
  H12      1.0000 0.33720  0.90430  0.39400  Biso   1.000  H
  H13      1.0000 0.83720  0.59570  0.89400  Biso   1.000  H
  H14      1.0000 0.66280  0.40430  0.89400  Biso   1.000  H
  H15      1.0000 0.83720  0.90430  0.60600  Biso   1.000  H
  H16      1.0000 0.66280  0.09570  0.60600  Biso   1.000  H
  C17      1.0000 0.15849  0.51741  0.01500  Biso   1.000  C
  C18      1.0000 0.34151  0.48259  0.01500  Biso   1.000  C
  C19      1.0000 0.15849  0.98259  0.48500  Biso   1.000  C
  C20      1.0000 0.34151  0.01741  0.48500  Biso   1.000  C
  C21      1.0000 0.84151  0.48259  0.98500  Biso   1.000  C
  C22      1.0000 0.65849  0.51741  0.98500  Biso   1.000  C
  C23      1.0000 0.84151  0.01741  0.51500  Biso   1.000  C
  C24      1.0000 0.65849  0.98259  0.51500  Biso   1.000  C
  H17      1.0000 0.18640  0.52150  0.06840  Biso   1.000  H
  H18      1.0000 0.31360  0.47850  0.06840  Biso   1.000  H
  H19      1.0000 0.18640  0.97850  0.43160  Biso   1.000  H
  H20      1.0000 0.31360  0.02150  0.43160  Biso   1.000  H
  H21      1.0000 0.81360  0.47850  0.93160  Biso   1.000  H
  H22      1.0000 0.68640  0.52150  0.93160  Biso   1.000  H
  H23      1.0000 0.81360  0.02150  0.56840  Biso   1.000  H
  H24      1.0000 0.68640  0.97850  0.56840  Biso   1.000  H
  H25      1.0000 0.11950  0.55090  0.01180  Biso   1.000  H
  H26      1.0000 0.38050  0.44910  0.01180  Biso   1.000  H
  H27      1.0000 0.11950  0.94910  0.48820  Biso   1.000  H
  H28      1.0000 0.38050  0.05090  0.48820  Biso   1.000  H
  H29      1.0000 0.88050  0.44910  0.98820  Biso   1.000  H
  H30      1.0000 0.61950  0.55090  0.98820  Biso   1.000  H
  H31      1.0000 0.88050  0.05090  0.51180  Biso   1.000  H
  H32      1.0000 0.61950  0.94910  0.51180  Biso   1.000  H
  C25      1.0000 0.21690  0.52406  0.94310  Biso   1.000  C
  C26      1.0000 0.28310  0.47594  0.94310  Biso   1.000  C
  C27      1.0000 0.21690  0.97594  0.55690  Biso   1.000  C
  C28      1.0000 0.28310  0.02406  0.55690  Biso   1.000  C
  C29      1.0000 0.78310  0.47594  0.05690  Biso   1.000  C
  C30      1.0000 0.71690  0.52406  0.05690  Biso   1.000  C
  C31      1.0000 0.78310  0.02406  0.44310  Biso   1.000  C
  C32      1.0000 0.71690  0.97594  0.44310  Biso   1.000  C
  H33      1.0000 0.24020  0.56570  0.94550  Biso   1.000  H
  H34      1.0000 0.25980  0.43430  0.94550  Biso   1.000  H
  H35      1.0000 0.24020  0.93430  0.55450  Biso   1.000  H
  H36      1.0000 0.25980  0.06570  0.55450  Biso   1.000  H
  H37      1.0000 0.75980  0.43430  0.05450  Biso   1.000  H
  H38      1.0000 0.74020  0.56570  0.05450  Biso   1.000  H
  H39      1.0000 0.75980  0.06570  0.44550  Biso   1.000  H
  H40      1.0000 0.74020  0.93430  0.44550  Biso   1.000  H
  H41      1.0000 0.18810  0.52080  0.89010  Biso   1.000  H
  H42      1.0000 0.31190  0.47920  0.89010  Biso   1.000  H
  H43      1.0000 0.18810  0.97920  0.60990  Biso   1.000  H
  H44      1.0000 0.31190  0.02080  0.60990  Biso   1.000  H
  H45      1.0000 0.81190  0.47920  0.10990  Biso   1.000  H
  H46      1.0000 0.68810  0.52080  0.10990  Biso   1.000  H
  H47      1.0000 0.81190  0.02080  0.39010  Biso   1.000  H
  H48      1.0000 0.68810  0.97920  0.39010  Biso   1.000  H
  C33      1.0000 0.94983  0.39583  0.46270  Biso   1.000  C
  C34      1.0000 0.55017  0.60417  0.46270  Biso   1.000  C
  C35      1.0000 0.94983  0.10417  0.03730  Biso   1.000  C
  C36      1.0000 0.55017  0.89583  0.03730  Biso   1.000  C
  C37      1.0000 0.05017  0.60417  0.53730  Biso   1.000  C
  C38      1.0000 0.44983  0.39583  0.53730  Biso   1.000  C
  C39      1.0000 0.05017  0.89583  0.96270  Biso   1.000  C
  C40      1.0000 0.44983  0.10417  0.96270  Biso   1.000  C
  H49      1.0000 0.96990  0.35590  0.47350  Biso   1.000  H
  H50      1.0000 0.53010  0.64410  0.47350  Biso   1.000  H
  H51      1.0000 0.96990  0.14410  0.02650  Biso   1.000  H
  H52      1.0000 0.53010  0.85590  0.02650  Biso   1.000  H
  H53      1.0000 0.03010  0.64410  0.52650  Biso   1.000  H
  H54      1.0000 0.46990  0.35590  0.52650  Biso   1.000  H
  H55      1.0000 0.03010  0.85590  0.97350  Biso   1.000  H
  H56      1.0000 0.46990  0.14410  0.97350  Biso   1.000  H
  C41      1.0000 0.91516  0.47643  0.39760  Biso   1.000  C
  C42      1.0000 0.58484  0.52357  0.39760  Biso   1.000  C
  C43      1.0000 0.91516  0.02357  0.10240  Biso   1.000  C
  C44      1.0000 0.58484  0.97643  0.10240  Biso   1.000  C
  C45      1.0000 0.08484  0.52357  0.60240  Biso   1.000  C
  C46      1.0000 0.41516  0.47643  0.60240  Biso   1.000  C
  C47      1.0000 0.08484  0.97643  0.89760  Biso   1.000  C
  C48      1.0000 0.41516  0.02357  0.89760  Biso   1.000  C
  H57      1.0000 0.90470  0.50600  0.35570  Biso   1.000  H
  H58      1.0000 0.59530  0.49400  0.35570  Biso   1.000  H
  H59      1.0000 0.90470  0.99400  0.14430  Biso   1.000  H
  H60      1.0000 0.59530  0.00600  0.14430  Biso   1.000  H
  H61      1.0000 0.09530  0.49400  0.64430  Biso   1.000  H
  H62      1.0000 0.40470  0.50600  0.64430  Biso   1.000  H
  H63      1.0000 0.09530  0.00600  0.85570  Biso   1.000  H
  H64      1.0000 0.40470  0.99400  0.85570  Biso   1.000  H
  C49      1.0000 0.85620  0.53561  0.51900  Biso   1.000  C
  C50      1.0000 0.64380  0.46439  0.51900  Biso   1.000  C
  C51      1.0000 0.85620  0.96439  0.98100  Biso   1.000  C
  C52      1.0000 0.64380  0.03561  0.98100  Biso   1.000  C
  C53      1.0000 0.14380  0.46439  0.48100  Biso   1.000  C
  C54      1.0000 0.35620  0.53561  0.48100  Biso   1.000  C
  C55      1.0000 0.14380  0.03561  0.01900  Biso   1.000  C
  C56      1.0000 0.35620  0.96439  0.01900  Biso   1.000  C
  H65      1.0000 0.85420  0.57100  0.48030  Biso   1.000  H
  H66      1.0000 0.64580  0.42900  0.48030  Biso   1.000  H
  H67      1.0000 0.85420  0.92900  0.01970  Biso   1.000  H
  H68      1.0000 0.64580  0.07100  0.01970  Biso   1.000  H
  H69      1.0000 0.14580  0.42900  0.51970  Biso   1.000  H
  H70      1.0000 0.35420  0.57100  0.51970  Biso   1.000  H
  H71      1.0000 0.14580  0.07100  0.98030  Biso   1.000  H
  H72      1.0000 0.35420  0.92900  0.98030  Biso   1.000  H
  H73      1.0000 0.88560  0.54880  0.56860  Biso   1.000  H
  H74      1.0000 0.61440  0.45120  0.56860  Biso   1.000  H
  H75      1.0000 0.88560  0.95120  0.93140  Biso   1.000  H
  H76      1.0000 0.61440  0.04880  0.93140  Biso   1.000  H
  H77      1.0000 0.11440  0.45120  0.43140  Biso   1.000  H
  H78      1.0000 0.38560  0.54880  0.43140  Biso   1.000  H
  H79      1.0000 0.11440  0.04880  0.06860  Biso   1.000  H
  H80      1.0000 0.38560  0.95120  0.06860  Biso   1.000  H
  C57      1.0000 0.77340  0.51890  0.54480  Biso   1.000  C
  C58      1.0000 0.72660  0.48110  0.54480  Biso   1.000  C
  C59      1.0000 0.77340  0.98110  0.95520  Biso   1.000  C
  C60      1.0000 0.72660  0.01890  0.95520  Biso   1.000  C
  C61      1.0000 0.22660  0.48110  0.45520  Biso   1.000  C
  C62      1.0000 0.27340  0.51890  0.45520  Biso   1.000  C
  C63      1.0000 0.22660  0.01890  0.04480  Biso   1.000  C
  C64      1.0000 0.27340  0.98110  0.04480  Biso   1.000  C
  H81      1.0000 0.77520  0.52920  0.60450  Biso   1.000  H
  H82      1.0000 0.72480  0.47080  0.60450  Biso   1.000  H
  H83      1.0000 0.77520  0.97080  0.89550  Biso   1.000  H
  H84      1.0000 0.72480  0.02920  0.89550  Biso   1.000  H
  H85      1.0000 0.22480  0.47080  0.39550  Biso   1.000  H
  H86      1.0000 0.27520  0.52920  0.39550  Biso   1.000  H
  H87      1.0000 0.22480  0.02920  0.10450  Biso   1.000  H
  H88      1.0000 0.27520  0.97080  0.10450  Biso   1.000  H
  H89      1.0000 0.74400  0.55330  0.51940  Biso   1.000  H
  H90      1.0000 0.75600  0.44670  0.51940  Biso   1.000  H
  H91      1.0000 0.74400  0.94670  0.98060  Biso   1.000  H
  H92      1.0000 0.75600  0.05330  0.98060  Biso   1.000  H
  H93      1.0000 0.25600  0.44670  0.48060  Biso   1.000  H
  H94      1.0000 0.24400  0.55330  0.48060  Biso   1.000  H
  H95      1.0000 0.25600  0.05330  0.01940  Biso   1.000  H
  H96      1.0000 0.24400  0.94670  0.01940  Biso   1.000  H
  C65      1.0000 0.19462  0.17546  0.17273  Biso   1.000  C
  C66      1.0000 0.30538  0.82454  0.17273  Biso   1.000  C
  C67      1.0000 0.19462  0.32454  0.32727  Biso   1.000  C
  C68      1.0000 0.30538  0.67546  0.32727  Biso   1.000  C
  C69      1.0000 0.80538  0.82454  0.82727  Biso   1.000  C
  C70      1.0000 0.69462  0.17546  0.82727  Biso   1.000  C
  C71      1.0000 0.80538  0.67546  0.67273  Biso   1.000  C
  C72      1.0000 0.69462  0.32454  0.67273  Biso   1.000  C
  C73      1.0000 0.22625  0.23308  0.13946  Biso   1.000  C
  C74      1.0000 0.27375  0.76692  0.13946  Biso   1.000  C
  C75      1.0000 0.22625  0.26692  0.36054  Biso   1.000  C
  C76      1.0000 0.27375  0.73308  0.36054  Biso   1.000  C
  C77      1.0000 0.77375  0.76692  0.86054  Biso   1.000  C
  C78      1.0000 0.72625  0.23308  0.86054  Biso   1.000  C
  C79      1.0000 0.77375  0.73308  0.63946  Biso   1.000  C
  C80      1.0000 0.72625  0.26692  0.63946  Biso   1.000  C
  C81      1.0000 0.31074  0.23781  0.13945  Biso   1.000  C
  C82      1.0000 0.18926  0.76219  0.13945  Biso   1.000  C
  C83      1.0000 0.31074  0.26219  0.36055  Biso   1.000  C
  C84      1.0000 0.18926  0.73781  0.36055  Biso   1.000  C
  C85      1.0000 0.68926  0.76219  0.86055  Biso   1.000  C
  C86      1.0000 0.81074  0.23781  0.86055  Biso   1.000  C
  C87      1.0000 0.68926  0.73781  0.63945  Biso   1.000  C
  C88      1.0000 0.81074  0.26219  0.63945  Biso   1.000  C
  C89      1.0000 0.36019  0.19052  0.16739  Biso   1.000  C
  C90      1.0000 0.13981  0.80948  0.16739  Biso   1.000  C
  C91      1.0000 0.36019  0.30948  0.33261  Biso   1.000  C
  C92      1.0000 0.13981  0.69052  0.33261  Biso   1.000  C
  C93      1.0000 0.63981  0.80948  0.83261  Biso   1.000  C
  C94      1.0000 0.86019  0.19052  0.83261  Biso   1.000  C
  C95      1.0000 0.63981  0.69052  0.66739  Biso   1.000  C
  C96      1.0000 0.86019  0.30948  0.66739  Biso   1.000  C
  H97      1.0000 0.41510  0.19540  0.16620  Biso   1.000  H
  H98      1.0000 0.08490  0.80460  0.16620  Biso   1.000  H
  H99      1.0000 0.41510  0.30460  0.33380  Biso   1.000  H
  H100     1.0000 0.08490  0.69540  0.33380  Biso   1.000  H
  H101     1.0000 0.58490  0.80460  0.83380  Biso   1.000  H
  H102     1.0000 0.91510  0.19540  0.83380  Biso   1.000  H
  H103     1.0000 0.58490  0.69540  0.66620  Biso   1.000  H
  H104     1.0000 0.91510  0.30460  0.66620  Biso   1.000  H
  C97      1.0000 0.32639  0.13622  0.19692  Biso   1.000  C
  C98      1.0000 0.17361  0.86378  0.19692  Biso   1.000  C
  C99      1.0000 0.32639  0.36378  0.30308  Biso   1.000  C
  C100     1.0000 0.17361  0.63622  0.30308  Biso   1.000  C
  C101     1.0000 0.67361  0.86378  0.80308  Biso   1.000  C
  C102     1.0000 0.82639  0.13622  0.80308  Biso   1.000  C
  C103     1.0000 0.67361  0.63622  0.69692  Biso   1.000  C
  C104     1.0000 0.82639  0.36378  0.69692  Biso   1.000  C
  C105     1.0000 0.24484  0.12895  0.20132  Biso   1.000  C
  C106     1.0000 0.25516  0.87105  0.20132  Biso   1.000  C
  C107     1.0000 0.24484  0.37105  0.29868  Biso   1.000  C
  C108     1.0000 0.25516  0.62895  0.29868  Biso   1.000  C
  C109     1.0000 0.75516  0.87105  0.79868  Biso   1.000  C
  C110     1.0000 0.74484  0.12895  0.79868  Biso   1.000  C
  C111     1.0000 0.75516  0.62895  0.70132  Biso   1.000  C
  C112     1.0000 0.74484  0.37105  0.70132  Biso   1.000  C
  H105     1.0000 0.22370  0.09220  0.22390  Biso   1.000  H
  H106     1.0000 0.27630  0.90780  0.22390  Biso   1.000  H
  H107     1.0000 0.22370  0.40780  0.27610  Biso   1.000  H
  H108     1.0000 0.27630  0.59220  0.27610  Biso   1.000  H
  H109     1.0000 0.77630  0.90780  0.77610  Biso   1.000  H
  H110     1.0000 0.72370  0.09220  0.77610  Biso   1.000  H
  H111     1.0000 0.77630  0.59220  0.72390  Biso   1.000  H
  H112     1.0000 0.72370  0.40780  0.72390  Biso   1.000  H
  C113     1.0000 0.10823  0.16372  0.17851  Biso   1.000  C
  C114     1.0000 0.39177  0.83628  0.17851  Biso   1.000  C
  C115     1.0000 0.10823  0.33628  0.32149  Biso   1.000  C
  C116     1.0000 0.39177  0.66372  0.32149  Biso   1.000  C
  C117     1.0000 0.89177  0.83628  0.82149  Biso   1.000  C
  C118     1.0000 0.60823  0.16372  0.82149  Biso   1.000  C
  C119     1.0000 0.89177  0.66372  0.67851  Biso   1.000  C
  C120     1.0000 0.60823  0.33628  0.67851  Biso   1.000  C
  C121     1.0000 0.84237  0.30285  0.14840  Biso   1.000  C
  C122     1.0000 0.65763  0.69715  0.14840  Biso   1.000  C
  C123     1.0000 0.84237  0.19715  0.35160  Biso   1.000  C
  C124     1.0000 0.65763  0.80285  0.35160  Biso   1.000  C
  C125     1.0000 0.15763  0.69715  0.85160  Biso   1.000  C
  C126     1.0000 0.34237  0.30285  0.85160  Biso   1.000  C
  C127     1.0000 0.15763  0.80285  0.64840  Biso   1.000  C
  C128     1.0000 0.34237  0.19715  0.64840  Biso   1.000  C
  C129     1.0000 0.81022  0.34593  0.20888  Biso   1.000  C
  C130     1.0000 0.68978  0.65407  0.20888  Biso   1.000  C
  C131     1.0000 0.81022  0.15407  0.29112  Biso   1.000  C
  C132     1.0000 0.68978  0.84593  0.29112  Biso   1.000  C
  C133     1.0000 0.18978  0.65407  0.79112  Biso   1.000  C
  C134     1.0000 0.31022  0.34593  0.79112  Biso   1.000  C
  C135     1.0000 0.18978  0.84593  0.70888  Biso   1.000  C
  C136     1.0000 0.31022  0.15407  0.70888  Biso   1.000  C
  C137     1.0000 0.72546  0.34695  0.21277  Biso   1.000  C
  C138     1.0000 0.77454  0.65305  0.21277  Biso   1.000  C
  C139     1.0000 0.72546  0.15305  0.28723  Biso   1.000  C
  C140     1.0000 0.77454  0.84695  0.28723  Biso   1.000  C
  C141     1.0000 0.27454  0.65305  0.78723  Biso   1.000  C
  C142     1.0000 0.22546  0.34695  0.78723  Biso   1.000  C
  C143     1.0000 0.27454  0.84695  0.71277  Biso   1.000  C
  C144     1.0000 0.22546  0.15305  0.71277  Biso   1.000  C
  C145     1.0000 0.67751  0.30709  0.16878  Biso   1.000  C
  C146     1.0000 0.82249  0.69291  0.16878  Biso   1.000  C
  C147     1.0000 0.67751  0.19291  0.33122  Biso   1.000  C
  C148     1.0000 0.82249  0.80709  0.33122  Biso   1.000  C
  C149     1.0000 0.32249  0.69291  0.83122  Biso   1.000  C
  C150     1.0000 0.17751  0.30709  0.83122  Biso   1.000  C
  C151     1.0000 0.32249  0.80709  0.66878  Biso   1.000  C
  C152     1.0000 0.17751  0.19291  0.66878  Biso   1.000  C
  H113     1.0000 0.62260  0.30880  0.17470  Biso   1.000  H
  H114     1.0000 0.87740  0.69120  0.17470  Biso   1.000  H
  H115     1.0000 0.62260  0.19120  0.32530  Biso   1.000  H
  H116     1.0000 0.87740  0.80880  0.32530  Biso   1.000  H
  H117     1.0000 0.37740  0.69120  0.82530  Biso   1.000  H
  H118     1.0000 0.12260  0.30880  0.82530  Biso   1.000  H
  H119     1.0000 0.37740  0.80880  0.67470  Biso   1.000  H
  H120     1.0000 0.12260  0.19120  0.67470  Biso   1.000  H
  C153     1.0000 0.71242  0.26419  0.11527  Biso   1.000  C
  C154     1.0000 0.78758  0.73581  0.11527  Biso   1.000  C
  C155     1.0000 0.71242  0.23581  0.38473  Biso   1.000  C
  C156     1.0000 0.78758  0.76419  0.38473  Biso   1.000  C
  C157     1.0000 0.28758  0.73581  0.88473  Biso   1.000  C
  C158     1.0000 0.21242  0.26419  0.88473  Biso   1.000  C
  C159     1.0000 0.28758  0.76419  0.61527  Biso   1.000  C
  C160     1.0000 0.21242  0.23581  0.61527  Biso   1.000  C
  C161     1.0000 0.79300  0.26238  0.10420  Biso   1.000  C
  C162     1.0000 0.70700  0.73762  0.10420  Biso   1.000  C
  C163     1.0000 0.79300  0.23762  0.39580  Biso   1.000  C
  C164     1.0000 0.70700  0.76238  0.39580  Biso   1.000  C
  C165     1.0000 0.20700  0.73762  0.89580  Biso   1.000  C
  C166     1.0000 0.29300  0.26238  0.89580  Biso   1.000  C
  C167     1.0000 0.20700  0.76238  0.60420  Biso   1.000  C
  C168     1.0000 0.29300  0.23762  0.60420  Biso   1.000  C
  H121     1.0000 0.81490  0.23360  0.06650  Biso   1.000  H
  H122     1.0000 0.68510  0.76640  0.06650  Biso   1.000  H
  H123     1.0000 0.81490  0.26640  0.43350  Biso   1.000  H
  H124     1.0000 0.68510  0.73360  0.43350  Biso   1.000  H
  H125     1.0000 0.18510  0.76640  0.93350  Biso   1.000  H
  H126     1.0000 0.31490  0.23360  0.93350  Biso   1.000  H
  H127     1.0000 0.18510  0.73360  0.56650  Biso   1.000  H
  H128     1.0000 0.31490  0.26640  0.56650  Biso   1.000  H
  C169     1.0000 0.92858  0.30056  0.13090  Biso   1.000  C
  C170     1.0000 0.57142  0.69944  0.13090  Biso   1.000  C
  C171     1.0000 0.92858  0.19944  0.36910  Biso   1.000  C
  C172     1.0000 0.57142  0.80056  0.36910  Biso   1.000  C
  C173     1.0000 0.07142  0.69944  0.86910  Biso   1.000  C
  C174     1.0000 0.42858  0.30056  0.86910  Biso   1.000  C
  C175     1.0000 0.07142  0.80056  0.63090  Biso   1.000  C
  C176     1.0000 0.42858  0.19944  0.63090  Biso   1.000  C
  N1       1.0000 0.08277  0.36027  0.03297  Biso   1.000  N
  N2       1.0000 0.41723  0.63973  0.03297  Biso   1.000  N
  N3       1.0000 0.08277  0.13973  0.46703  Biso   1.000  N
  N4       1.0000 0.41723  0.86027  0.46703  Biso   1.000  N
  N5       1.0000 0.91723  0.63973  0.96703  Biso   1.000  N
  N6       1.0000 0.58277  0.36027  0.96703  Biso   1.000  N
  N7       1.0000 0.91723  0.86027  0.53297  Biso   1.000  N
  N8       1.0000 0.58277  0.13973  0.53297  Biso   1.000  N
  N9       1.0000 0.06487  0.44403  0.95025  Biso   1.000  N
  N10      1.0000 0.43513  0.55597  0.95025  Biso   1.000  N
  N11      1.0000 0.06487  0.05597  0.54975  Biso   1.000  N
  N12      1.0000 0.43513  0.94403  0.54975  Biso   1.000  N
  N13      1.0000 0.93513  0.55597  0.04975  Biso   1.000  N
  N14      1.0000 0.56487  0.44403  0.04975  Biso   1.000  N
  N15      1.0000 0.93513  0.94403  0.45025  Biso   1.000  N
  N16      1.0000 0.56487  0.05597  0.45025  Biso   1.000  N
  N17      1.0000 0.11796  0.45675  0.01222  Biso   1.000  N
  N18      1.0000 0.38204  0.54325  0.01222  Biso   1.000  N
  N19      1.0000 0.11796  0.04325  0.48778  Biso   1.000  N
  N20      1.0000 0.38204  0.95675  0.48778  Biso   1.000  N
  N21      1.0000 0.88204  0.54325  0.98778  Biso   1.000  N
  N22      1.0000 0.61796  0.45675  0.98778  Biso   1.000  N
  N23      1.0000 0.88204  0.95675  0.51222  Biso   1.000  N
  N24      1.0000 0.61796  0.04325  0.51222  Biso   1.000  N
  N25      1.0000 0.94840  0.42107  0.38476  Biso   1.000  N
  N26      1.0000 0.55160  0.57893  0.38476  Biso   1.000  N
  N27      1.0000 0.94840  0.07893  0.11524  Biso   1.000  N
  N28      1.0000 0.55160  0.92107  0.11524  Biso   1.000  N
  N29      1.0000 0.05160  0.57893  0.61524  Biso   1.000  N
  N30      1.0000 0.44840  0.42107  0.61524  Biso   1.000  N
  N31      1.0000 0.05160  0.92107  0.88476  Biso   1.000  N
  N32      1.0000 0.44840  0.07893  0.88476  Biso   1.000  N
  N33      1.0000 0.92079  0.43190  0.52213  Biso   1.000  N
  N34      1.0000 0.57921  0.56810  0.52213  Biso   1.000  N
  N35      1.0000 0.92079  0.06810  0.97787  Biso   1.000  N
  N36      1.0000 0.57921  0.93190  0.97787  Biso   1.000  N
  N37      1.0000 0.07921  0.56810  0.47787  Biso   1.000  N
  N38      1.0000 0.42079  0.43190  0.47787  Biso   1.000  N
  N39      1.0000 0.07921  0.93190  0.02213  Biso   1.000  N
  N40      1.0000 0.42079  0.06810  0.02213  Biso   1.000  N
  N41      1.0000 0.89905  0.48368  0.47807  Biso   1.000  N
  N42      1.0000 0.60095  0.51632  0.47807  Biso   1.000  N
  N43      1.0000 0.89905  0.01632  0.02193  Biso   1.000  N
  N44      1.0000 0.60095  0.98368  0.02193  Biso   1.000  N
  N45      1.0000 0.10095  0.51632  0.52193  Biso   1.000  N
  N46      1.0000 0.39905  0.48368  0.52193  Biso   1.000  N
  N47      1.0000 0.10095  0.98368  0.97807  Biso   1.000  N
  N48      1.0000 0.39905  0.01632  0.97807  Biso   1.000  N
  N49      1.0000 0.35039  0.29602  0.11307  Biso   1.000  N
  N50      1.0000 0.14961  0.70398  0.11307  Biso   1.000  N
  N51      1.0000 0.35039  0.20398  0.38693  Biso   1.000  N
  N52      1.0000 0.14961  0.79602  0.38693  Biso   1.000  N
  N53      1.0000 0.64961  0.70398  0.88693  Biso   1.000  N
  N54      1.0000 0.85039  0.29602  0.88693  Biso   1.000  N
  N55      1.0000 0.64961  0.79602  0.61307  Biso   1.000  N
  N56      1.0000 0.85039  0.20398  0.61307  Biso   1.000  N
  N57      1.0000 0.37805  0.08575  0.22877  Biso   1.000  N
  N58      1.0000 0.12195  0.91425  0.22877  Biso   1.000  N
  N59      1.0000 0.37805  0.41425  0.27123  Biso   1.000  N
  N60      1.0000 0.12195  0.58575  0.27123  Biso   1.000  N
  N61      1.0000 0.62195  0.91425  0.77123  Biso   1.000  N
  N62      1.0000 0.87805  0.08575  0.77123  Biso   1.000  N
  N63      1.0000 0.62195  0.58575  0.72877  Biso   1.000  N
  N64      1.0000 0.87805  0.41425  0.72877  Biso   1.000  N
  N65      1.0000 0.68642  0.39301  0.26770  Biso   1.000  N
  N66      1.0000 0.81358  0.60699  0.26770  Biso   1.000  N
  N67      1.0000 0.68642  0.10699  0.23230  Biso   1.000  N
  N68      1.0000 0.81358  0.89301  0.23230  Biso   1.000  N
  N69      1.0000 0.31358  0.60699  0.73230  Biso   1.000  N
  N70      1.0000 0.18642  0.39301  0.73230  Biso   1.000  N
  N71      1.0000 0.31358  0.89301  0.76770  Biso   1.000  N
  N72      1.0000 0.18642  0.10699  0.76770  Biso   1.000  N
  N73      1.0000 0.66241  0.22145  0.06693  Biso   1.000  N
  N74      1.0000 0.83759  0.77855  0.06693  Biso   1.000  N
  N75      1.0000 0.66241  0.27855  0.43307  Biso   1.000  N
  N76      1.0000 0.83759  0.72145  0.43307  Biso   1.000  N
  N77      1.0000 0.33759  0.77855  0.93307  Biso   1.000  N
  N78      1.0000 0.16241  0.22145  0.93307  Biso   1.000  N
  N79      1.0000 0.33759  0.72145  0.56693  Biso   1.000  N
  N80      1.0000 0.16241  0.27855  0.56693  Biso   1.000  N
  O1       1.0000 0.08478  0.11602  0.21801  Biso   1.000  O
  O2       1.0000 0.41522  0.88398  0.21801  Biso   1.000  O
  O3       1.0000 0.08478  0.38398  0.28199  Biso   1.000  O
  O4       1.0000 0.41522  0.61602  0.28199  Biso   1.000  O
  O5       1.0000 0.91522  0.88398  0.78199  Biso   1.000  O
  O6       1.0000 0.58478  0.11602  0.78199  Biso   1.000  O
  O7       1.0000 0.91522  0.61602  0.71801  Biso   1.000  O
  O8       1.0000 0.58478  0.38398  0.71801  Biso   1.000  O
  O9       1.0000 0.05801  0.19962  0.14363  Biso   1.000  O
  O10      1.0000 0.44199  0.80038  0.14363  Biso   1.000  O
  O11      1.0000 0.05801  0.30038  0.35637  Biso   1.000  O
  O12      1.0000 0.44199  0.69962  0.35637  Biso   1.000  O
  O13      1.0000 0.94199  0.80038  0.85637  Biso   1.000  O
  O14      1.0000 0.55801  0.19962  0.85637  Biso   1.000  O
  O15      1.0000 0.94199  0.69962  0.64363  Biso   1.000  O
  O16      1.0000 0.55801  0.30038  0.64363  Biso   1.000  O
  O17      1.0000 0.18283  0.27880  0.11303  Biso   1.000  O
  O18      1.0000 0.31717  0.72120  0.11303  Biso   1.000  O
  O19      1.0000 0.18283  0.22120  0.38697  Biso   1.000  O
  O20      1.0000 0.31717  0.77880  0.38697  Biso   1.000  O
  O21      1.0000 0.81717  0.72120  0.88697  Biso   1.000  O
  O22      1.0000 0.68283  0.27880  0.88697  Biso   1.000  O
  O23      1.0000 0.81717  0.77880  0.61303  Biso   1.000  O
  O24      1.0000 0.68283  0.22120  0.61303  Biso   1.000  O
  O25      1.0000 0.31562  0.33421  0.07061  Biso   1.000  O
  O26      1.0000 0.18438  0.66579  0.07061  Biso   1.000  O
  O27      1.0000 0.31562  0.16579  0.42939  Biso   1.000  O
  O28      1.0000 0.18438  0.83421  0.42939  Biso   1.000  O
  O29      1.0000 0.68438  0.66579  0.92939  Biso   1.000  O
  O30      1.0000 0.81562  0.33421  0.92939  Biso   1.000  O
  O31      1.0000 0.68438  0.83421  0.57061  Biso   1.000  O
  O32      1.0000 0.81562  0.16579  0.57061  Biso   1.000  O
  O33      1.0000 0.41872  0.30401  0.13717  Biso   1.000  O
  O34      1.0000 0.08128  0.69599  0.13717  Biso   1.000  O
  O35      1.0000 0.41872  0.19599  0.36283  Biso   1.000  O
  O36      1.0000 0.08128  0.80401  0.36283  Biso   1.000  O
  O37      1.0000 0.58128  0.69599  0.86283  Biso   1.000  O
  O38      1.0000 0.91872  0.30401  0.86283  Biso   1.000  O
  O39      1.0000 0.58128  0.80401  0.63717  Biso   1.000  O
  O40      1.0000 0.91872  0.19599  0.63717  Biso   1.000  O
  O41      1.0000 0.44916  0.09377  0.22601  Biso   1.000  O
  O42      1.0000 0.05084  0.90623  0.22601  Biso   1.000  O
  O43      1.0000 0.44916  0.40623  0.27399  Biso   1.000  O
  O44      1.0000 0.05084  0.59377  0.27399  Biso   1.000  O
  O45      1.0000 0.55084  0.90623  0.77399  Biso   1.000  O
  O46      1.0000 0.94916  0.09377  0.77399  Biso   1.000  O
  O47      1.0000 0.55084  0.59377  0.72601  Biso   1.000  O
  O48      1.0000 0.94916  0.40623  0.72601  Biso   1.000  O
  O49      1.0000 0.34690  0.03778  0.25560  Biso   1.000  O
  O50      1.0000 0.15310  0.96222  0.25560  Biso   1.000  O
  O51      1.0000 0.34690  0.46222  0.24440  Biso   1.000  O
  O52      1.0000 0.15310  0.53778  0.24440  Biso   1.000  O
  O53      1.0000 0.65310  0.96222  0.74440  Biso   1.000  O
  O54      1.0000 0.84690  0.03778  0.74440  Biso   1.000  O
  O55      1.0000 0.65310  0.53778  0.75560  Biso   1.000  O
  O56      1.0000 0.84690  0.46222  0.75560  Biso   1.000  O
  O57      1.0000 0.95324  0.27290  0.06565  Biso   1.000  O
  O58      1.0000 0.54676  0.72710  0.06565  Biso   1.000  O
  O59      1.0000 0.95324  0.22710  0.43435  Biso   1.000  O
  O60      1.0000 0.54676  0.77290  0.43435  Biso   1.000  O
  O61      1.0000 0.04676  0.72710  0.93435  Biso   1.000  O
  O62      1.0000 0.45324  0.27290  0.93435  Biso   1.000  O
  O63      1.0000 0.04676  0.77290  0.56565  Biso   1.000  O
  O64      1.0000 0.45324  0.22710  0.56565  Biso   1.000  O
  O65      1.0000 0.97877  0.32613  0.17996  Biso   1.000  O
  O66      1.0000 0.52123  0.67387  0.17996  Biso   1.000  O
  O67      1.0000 0.97877  0.17387  0.32004  Biso   1.000  O
  O68      1.0000 0.52123  0.82613  0.32004  Biso   1.000  O
  O69      1.0000 0.02123  0.67387  0.82004  Biso   1.000  O
  O70      1.0000 0.47877  0.32613  0.82004  Biso   1.000  O
  O71      1.0000 0.02123  0.82613  0.67996  Biso   1.000  O
  O72      1.0000 0.47877  0.17387  0.67996  Biso   1.000  O
  O73      1.0000 0.85142  0.38162  0.25653  Biso   1.000  O
  O74      1.0000 0.64858  0.61838  0.25653  Biso   1.000  O
  O75      1.0000 0.85142  0.11838  0.24347  Biso   1.000  O
  O76      1.0000 0.64858  0.88162  0.24347  Biso   1.000  O
  O77      1.0000 0.14858  0.61838  0.74347  Biso   1.000  O
  O78      1.0000 0.35142  0.38162  0.74347  Biso   1.000  O
  O79      1.0000 0.14858  0.88162  0.75653  Biso   1.000  O
  O80      1.0000 0.35142  0.11838  0.75653  Biso   1.000  O
  O81      1.0000 0.71090  0.44493  0.27000  Biso   1.000  O
  O82      1.0000 0.78910  0.55507  0.27000  Biso   1.000  O
  O83      1.0000 0.71090  0.05507  0.23000  Biso   1.000  O
  O84      1.0000 0.78910  0.94493  0.23000  Biso   1.000  O
  O85      1.0000 0.28910  0.55507  0.73000  Biso   1.000  O
  O86      1.0000 0.21090  0.44493  0.73000  Biso   1.000  O
  O87      1.0000 0.28910  0.94493  0.77000  Biso   1.000  O
  O88      1.0000 0.21090  0.05507  0.77000  Biso   1.000  O
  O89      1.0000 0.62760  0.37632  0.30730  Biso   1.000  O
  O90      1.0000 0.87240  0.62368  0.30730  Biso   1.000  O
  O91      1.0000 0.62760  0.12368  0.19270  Biso   1.000  O
  O92      1.0000 0.87240  0.87632  0.19270  Biso   1.000  O
  O93      1.0000 0.37240  0.62368  0.69270  Biso   1.000  O
  O94      1.0000 0.12760  0.37632  0.69270  Biso   1.000  O
  O95      1.0000 0.37240  0.87632  0.80730  Biso   1.000  O
  O96      1.0000 0.12760  0.12368  0.80730  Biso   1.000  O
  O97      1.0000 0.59049  0.23075  0.06520  Biso   1.000  O
  O98      1.0000 0.90951  0.76925  0.06520  Biso   1.000  O
  O99      1.0000 0.59049  0.26925  0.43480  Biso   1.000  O
  O100     1.0000 0.90951  0.73075  0.43480  Biso   1.000  O
  O101     1.0000 0.40951  0.76925  0.93480  Biso   1.000  O
  O102     1.0000 0.09049  0.23075  0.93480  Biso   1.000  O
  O103     1.0000 0.40951  0.73075  0.56520  Biso   1.000  O
  O104     1.0000 0.09049  0.26925  0.56520  Biso   1.000  O
  O105     1.0000 0.69465  0.17875  0.02741  Biso   1.000  O
  O106     1.0000 0.80535  0.82125  0.02741  Biso   1.000  O
  O107     1.0000 0.69465  0.32125  0.47259  Biso   1.000  O
  O108     1.0000 0.80535  0.67875  0.47259  Biso   1.000  O
  O109     1.0000 0.30535  0.82125  0.97259  Biso   1.000  O
  O110     1.0000 0.19465  0.17875  0.97259  Biso   1.000  O
  O111     1.0000 0.30535  0.67875  0.52741  Biso   1.000  O
  O112     1.0000 0.19465  0.32125  0.52741  Biso   1.000  O
  O113     1.0000 0.98621  0.47359  0.19659  Biso   1.000  O
  O114     1.0000 0.51379  0.52641  0.19659  Biso   1.000  O
  O115     1.0000 0.98621  0.02641  0.30341  Biso   1.000  O
  O116     1.0000 0.51379  0.97359  0.30341  Biso   1.000  O
  O117     1.0000 0.01379  0.52641  0.80341  Biso   1.000  O
  O118     1.0000 0.48621  0.47359  0.80341  Biso   1.000  O
  O119     1.0000 0.01379  0.97359  0.69659  Biso   1.000  O
  O120     1.0000 0.48621  0.02641  0.69659  Biso   1.000  O
  H129     1.0000 0.95900  0.49510  0.16300  Biso   1.000  H
  H130     1.0000 0.54100  0.50490  0.16300  Biso   1.000  H
  H131     1.0000 0.95900  0.00490  0.33700  Biso   1.000  H
  H132     1.0000 0.54100  0.99510  0.33700  Biso   1.000  H
  H133     1.0000 0.04100  0.50490  0.83700  Biso   1.000  H
  H134     1.0000 0.45900  0.49510  0.83700  Biso   1.000  H
  H135     1.0000 0.04100  0.99510  0.66300  Biso   1.000  H
  H136     1.0000 0.45900  0.00490  0.66300  Biso   1.000  H
  H137     1.0000 0.02160  0.49370  0.22100  Biso   1.000  H
  H138     1.0000 0.47840  0.50630  0.22100  Biso   1.000  H
  H139     1.0000 0.02160  0.00630  0.27900  Biso   1.000  H
  H140     1.0000 0.47840  0.99370  0.27900  Biso   1.000  H
  H141     1.0000 0.97840  0.50630  0.77900  Biso   1.000  H
  H142     1.0000 0.52160  0.49370  0.77900  Biso   1.000  H
  H143     1.0000 0.97840  0.99370  0.72100  Biso   1.000  H
  H144     1.0000 0.52160  0.00630  0.72100  Biso   1.000  H
  C177     1.0000 0.76760  0.53130  0.49400  Biso   1.000  C
  C178     1.0000 0.73240  0.46870  0.49400  Biso   1.000  C
  C179     1.0000 0.76760  0.96870  0.00600  Biso   1.000  C
  C180     1.0000 0.73240  0.03130  0.00600  Biso   1.000  C
  C181     1.0000 0.23240  0.46870  0.50600  Biso   1.000  C
  C182     1.0000 0.26760  0.53130  0.50600  Biso   1.000  C
  C183     1.0000 0.23240  0.03130  0.99400  Biso   1.000  C
  C184     1.0000 0.26760  0.96870  0.99400  Biso   1.000  C
  H145     1.0000 0.73740  0.55750  0.53260  Biso   1.000  H
  H146     1.0000 0.76260  0.44250  0.53260  Biso   1.000  H
  H147     1.0000 0.73740  0.94250  0.96740  Biso   1.000  H
  H148     1.0000 0.76260  0.05750  0.96740  Biso   1.000  H
  H149     1.0000 0.26260  0.44250  0.46740  Biso   1.000  H
  H150     1.0000 0.23740  0.55750  0.46740  Biso   1.000  H
  H151     1.0000 0.26260  0.05750  0.03260  Biso   1.000  H
  H152     1.0000 0.23740  0.94250  0.03260  Biso   1.000  H
  H153     1.0000 0.76150  0.54890  0.43790  Biso   1.000  H
  H154     1.0000 0.73850  0.45110  0.43790  Biso   1.000  H
  H155     1.0000 0.76150  0.95110  0.06210  Biso   1.000  H
  H156     1.0000 0.73850  0.04890  0.06210  Biso   1.000  H
  H157     1.0000 0.23850  0.45110  0.56210  Biso   1.000  H
  H158     1.0000 0.26150  0.54890  0.56210  Biso   1.000  H
  H159     1.0000 0.23850  0.04890  0.93790  Biso   1.000  H
  H160     1.0000 0.26150  0.95110  0.93790  Biso   1.000  H
  O121     1.0000 0.71680  0.40640  0.33490  Biso   1.000  O
  O122     1.0000 0.78320  0.59360  0.33490  Biso   1.000  O
  O123     1.0000 0.71680  0.09360  0.16510  Biso   1.000  O
  O124     1.0000 0.78320  0.90640  0.16510  Biso   1.000  O
  O125     1.0000 0.28320  0.59360  0.66510  Biso   1.000  O
  O126     1.0000 0.21680  0.40640  0.66510  Biso   1.000  O
  O127     1.0000 0.28320  0.90640  0.83490  Biso   1.000  O
  O128     1.0000 0.21680  0.09360  0.83490  Biso   1.000  O
  O129     1.0000 0.63610  0.42370  0.23900  Biso   1.000  O
  O130     1.0000 0.86390  0.57630  0.23900  Biso   1.000  O
  O131     1.0000 0.63610  0.07630  0.26100  Biso   1.000  O
  O132     1.0000 0.86390  0.92370  0.26100  Biso   1.000  O
  O133     1.0000 0.36390  0.57630  0.76100  Biso   1.000  O
  O134     1.0000 0.13610  0.42370  0.76100  Biso   1.000  O
  O135     1.0000 0.36390  0.92370  0.73900  Biso   1.000  O
  O136     1.0000 0.13610  0.07630  0.73900  Biso   1.000  O
