data_image0
_cell_length_a       16.2118
_cell_length_b       16.2381
_cell_length_c       22.4507
_cell_angle_alpha    90
_cell_angle_beta     90
_cell_angle_gamma    90

_symmetry_space_group_name_H-M    "P 1"
_symmetry_int_tables_number       1

loop_
  _symmetry_equiv_pos_as_xyz
  'x, y, z'

loop_
  _atom_site_label
  _atom_site_occupancy
  _atom_site_fract_x
  _atom_site_fract_y
  _atom_site_fract_z
  _atom_site_thermal_displace_type
  _atom_site_B_iso_or_equiv
  _atom_site_type_symbol
  Cu1      1.0000 0.98660  0.31940  0.12128  Biso   1.000  Cu
  Cu2      1.0000 0.51340  0.18060  0.62128  Biso   1.000  Cu
  Cu3      1.0000 0.48660  0.18060  0.87872  Biso   1.000  Cu
  Cu4      1.0000 0.01340  0.31940  0.37872  Biso   1.000  Cu
  Cu5      1.0000 0.01340  0.68060  0.87872  Biso   1.000  Cu
  Cu6      1.0000 0.48660  0.81940  0.37872  Biso   1.000  Cu
  Cu7      1.0000 0.51340  0.81940  0.12128  Biso   1.000  Cu
  Cu8      1.0000 0.98660  0.68060  0.62128  Biso   1.000  Cu
  Cu9      1.0000 0.15726  0.19276  0.23444  Biso   1.000  Cu
  Cu10     1.0000 0.34274  0.30724  0.73444  Biso   1.000  Cu
  Cu11     1.0000 0.65726  0.30724  0.76556  Biso   1.000  Cu
  Cu12     1.0000 0.84274  0.19276  0.26556  Biso   1.000  Cu
  Cu13     1.0000 0.84274  0.80724  0.76556  Biso   1.000  Cu
  Cu14     1.0000 0.65726  0.69276  0.26556  Biso   1.000  Cu
  Cu15     1.0000 0.34274  0.69276  0.23444  Biso   1.000  Cu
  Cu16     1.0000 0.15726  0.80724  0.73444  Biso   1.000  Cu
  C1       1.0000 0.79790  0.33271  0.11372  Biso   1.000  C
  C2       1.0000 0.70210  0.16729  0.61372  Biso   1.000  C
  C3       1.0000 0.29790  0.16729  0.88628  Biso   1.000  C
  C4       1.0000 0.20210  0.33271  0.38628  Biso   1.000  C
  C5       1.0000 0.20210  0.66729  0.88628  Biso   1.000  C
  C6       1.0000 0.29790  0.83271  0.38628  Biso   1.000  C
  C7       1.0000 0.70210  0.83271  0.11372  Biso   1.000  C
  C8       1.0000 0.79790  0.66729  0.61372  Biso   1.000  C
  H1       1.0000 0.78790  0.28650  0.13710  Biso   1.000  H
  H2       1.0000 0.71210  0.21350  0.63710  Biso   1.000  H
  H3       1.0000 0.28790  0.21350  0.86290  Biso   1.000  H
  H4       1.0000 0.21210  0.28650  0.36290  Biso   1.000  H
  H5       1.0000 0.21210  0.71350  0.86290  Biso   1.000  H
  H6       1.0000 0.28790  0.78650  0.36290  Biso   1.000  H
  H7       1.0000 0.71210  0.78650  0.13710  Biso   1.000  H
  H8       1.0000 0.78790  0.71350  0.63710  Biso   1.000  H
  C9       1.0000 0.86130  0.42323  0.06575  Biso   1.000  C
  C10      1.0000 0.63870  0.07677  0.56575  Biso   1.000  C
  C11      1.0000 0.36130  0.07677  0.93425  Biso   1.000  C
  C12      1.0000 0.13870  0.42323  0.43425  Biso   1.000  C
  C13      1.0000 0.13870  0.57677  0.93425  Biso   1.000  C
  C14      1.0000 0.36130  0.92323  0.43425  Biso   1.000  C
  C15      1.0000 0.63870  0.92323  0.06575  Biso   1.000  C
  C16      1.0000 0.86130  0.57677  0.56575  Biso   1.000  C
  H9       1.0000 0.90220  0.45500  0.04800  Biso   1.000  H
  H10      1.0000 0.59780  0.04500  0.54800  Biso   1.000  H
  H11      1.0000 0.40220  0.04500  0.95200  Biso   1.000  H
  H12      1.0000 0.09780  0.45500  0.45200  Biso   1.000  H
  H13      1.0000 0.09780  0.54500  0.95200  Biso   1.000  H
  H14      1.0000 0.40220  0.95500  0.45200  Biso   1.000  H
  H15      1.0000 0.59780  0.95500  0.04800  Biso   1.000  H
  H16      1.0000 0.90220  0.54500  0.54800  Biso   1.000  H
  C17      1.0000 0.73720  0.50423  0.03182  Biso   1.000  C
  C18      1.0000 0.76280  0.99577  0.53182  Biso   1.000  C
  C19      1.0000 0.23720  0.99577  0.96818  Biso   1.000  C
  C20      1.0000 0.26280  0.50423  0.46818  Biso   1.000  C
  C21      1.0000 0.26280  0.49577  0.96818  Biso   1.000  C
  C22      1.0000 0.23720  0.00423  0.46818  Biso   1.000  C
  C23      1.0000 0.76280  0.00423  0.03182  Biso   1.000  C
  C24      1.0000 0.73720  0.49577  0.53182  Biso   1.000  C
  H17      1.0000 0.70860  0.53760  0.06110  Biso   1.000  H
  H18      1.0000 0.79140  0.96240  0.56110  Biso   1.000  H
  H19      1.0000 0.20860  0.96240  0.93890  Biso   1.000  H
  H20      1.0000 0.29140  0.53760  0.43890  Biso   1.000  H
  H21      1.0000 0.29140  0.46240  0.93890  Biso   1.000  H
  H22      1.0000 0.20860  0.03760  0.43890  Biso   1.000  H
  H23      1.0000 0.79140  0.03760  0.06110  Biso   1.000  H
  H24      1.0000 0.70860  0.46240  0.56110  Biso   1.000  H
  H25      1.0000 0.69620  0.48050  0.00540  Biso   1.000  H
  H26      1.0000 0.80380  0.01950  0.50540  Biso   1.000  H
  H27      1.0000 0.19620  0.01950  0.99460  Biso   1.000  H
  H28      1.0000 0.30380  0.48050  0.49460  Biso   1.000  H
  H29      1.0000 0.30380  0.51950  0.99460  Biso   1.000  H
  H30      1.0000 0.19620  0.98050  0.49460  Biso   1.000  H
  H31      1.0000 0.80380  0.98050  0.00540  Biso   1.000  H
  H32      1.0000 0.69620  0.51950  0.50540  Biso   1.000  H
  C25      1.0000 0.79470  0.55808  0.99622  Biso   1.000  C
  C26      1.0000 0.70530  0.94192  0.49622  Biso   1.000  C
  C27      1.0000 0.29470  0.94192  0.00378  Biso   1.000  C
  C28      1.0000 0.20530  0.55808  0.50378  Biso   1.000  C
  C29      1.0000 0.20530  0.44192  0.00378  Biso   1.000  C
  C30      1.0000 0.29470  0.05808  0.50378  Biso   1.000  C
  C31      1.0000 0.70530  0.05808  0.99622  Biso   1.000  C
  C32      1.0000 0.79470  0.44192  0.49622  Biso   1.000  C
  H33      1.0000 0.82740  0.52370  0.96990  Biso   1.000  H
  H34      1.0000 0.67260  0.97630  0.46990  Biso   1.000  H
  H35      1.0000 0.32740  0.97630  0.03010  Biso   1.000  H
  H36      1.0000 0.17260  0.52370  0.53010  Biso   1.000  H
  H37      1.0000 0.17260  0.47630  0.03010  Biso   1.000  H
  H38      1.0000 0.32740  0.02370  0.53010  Biso   1.000  H
  H39      1.0000 0.67260  0.02370  0.96990  Biso   1.000  H
  H40      1.0000 0.82740  0.47630  0.46990  Biso   1.000  H
  H41      1.0000 0.83230  0.58590  0.02320  Biso   1.000  H
  H42      1.0000 0.66770  0.91410  0.52320  Biso   1.000  H
  H43      1.0000 0.33230  0.91410  0.97680  Biso   1.000  H
  H44      1.0000 0.16770  0.58590  0.47680  Biso   1.000  H
  H45      1.0000 0.16770  0.41410  0.97680  Biso   1.000  H
  H46      1.0000 0.33230  0.08590  0.47680  Biso   1.000  H
  H47      1.0000 0.66770  0.08590  0.02320  Biso   1.000  H
  H48      1.0000 0.83230  0.41410  0.52320  Biso   1.000  H
  C33      1.0000 0.74880  0.62235  0.95923  Biso   1.000  C
  C34      1.0000 0.75120  0.87765  0.45923  Biso   1.000  C
  C35      1.0000 0.24880  0.87765  0.04077  Biso   1.000  C
  C36      1.0000 0.25120  0.62235  0.54077  Biso   1.000  C
  C37      1.0000 0.25120  0.37765  0.04077  Biso   1.000  C
  C38      1.0000 0.24880  0.12235  0.54077  Biso   1.000  C
  C39      1.0000 0.75120  0.12235  0.95923  Biso   1.000  C
  C40      1.0000 0.74880  0.37765  0.45923  Biso   1.000  C
  H49      1.0000 0.78720  0.64760  0.93160  Biso   1.000  H
  H50      1.0000 0.71280  0.85240  0.43160  Biso   1.000  H
  H51      1.0000 0.28720  0.85240  0.06840  Biso   1.000  H
  H52      1.0000 0.21280  0.64760  0.56840  Biso   1.000  H
  H53      1.0000 0.21280  0.35240  0.06840  Biso   1.000  H
  H54      1.0000 0.28720  0.14760  0.56840  Biso   1.000  H
  H55      1.0000 0.71280  0.14760  0.93160  Biso   1.000  H
  H56      1.0000 0.78720  0.35240  0.43160  Biso   1.000  H
  H57      1.0000 0.70650  0.59500  0.93600  Biso   1.000  H
  H58      1.0000 0.79350  0.90500  0.43600  Biso   1.000  H
  H59      1.0000 0.20650  0.90500  0.06400  Biso   1.000  H
  H60      1.0000 0.29350  0.59500  0.56400  Biso   1.000  H
  H61      1.0000 0.29350  0.40500  0.06400  Biso   1.000  H
  H62      1.0000 0.20650  0.09500  0.56400  Biso   1.000  H
  H63      1.0000 0.79350  0.09500  0.93600  Biso   1.000  H
  H64      1.0000 0.70650  0.40500  0.43600  Biso   1.000  H
  C41      1.0000 0.70910  0.68917  0.99641  Biso   1.000  C
  C42      1.0000 0.79090  0.81083  0.49641  Biso   1.000  C
  C43      1.0000 0.20910  0.81083  0.00359  Biso   1.000  C
  C44      1.0000 0.29090  0.68917  0.50359  Biso   1.000  C
  C45      1.0000 0.29090  0.31083  0.00359  Biso   1.000  C
  C46      1.0000 0.20910  0.18917  0.50359  Biso   1.000  C
  C47      1.0000 0.79090  0.18917  0.99641  Biso   1.000  C
  C48      1.0000 0.70910  0.31083  0.49641  Biso   1.000  C
  H65      1.0000 0.75180  0.72010  0.01680  Biso   1.000  H
  H66      1.0000 0.74820  0.77990  0.51680  Biso   1.000  H
  H67      1.0000 0.25180  0.77990  0.98320  Biso   1.000  H
  H68      1.0000 0.24820  0.72010  0.48320  Biso   1.000  H
  H69      1.0000 0.24820  0.27990  0.98320  Biso   1.000  H
  H70      1.0000 0.25180  0.22010  0.48320  Biso   1.000  H
  H71      1.0000 0.74820  0.22010  0.01680  Biso   1.000  H
  H72      1.0000 0.75180  0.27990  0.51680  Biso   1.000  H
  H73      1.0000 0.67430  0.66380  0.02650  Biso   1.000  H
  H74      1.0000 0.82570  0.83620  0.52650  Biso   1.000  H
  H75      1.0000 0.17430  0.83620  0.97350  Biso   1.000  H
  H76      1.0000 0.32570  0.66380  0.47350  Biso   1.000  H
  H77      1.0000 0.32570  0.33620  0.97350  Biso   1.000  H
  H78      1.0000 0.17430  0.16380  0.47350  Biso   1.000  H
  H79      1.0000 0.82570  0.16380  0.02650  Biso   1.000  H
  H80      1.0000 0.67430  0.33620  0.52650  Biso   1.000  H
  C49      1.0000 0.65700  0.74843  0.95921  Biso   1.000  C
  C50      1.0000 0.84300  0.75157  0.45921  Biso   1.000  C
  C51      1.0000 0.15700  0.75157  0.04079  Biso   1.000  C
  C52      1.0000 0.34300  0.74843  0.54079  Biso   1.000  C
  C53      1.0000 0.34300  0.25157  0.04079  Biso   1.000  C
  C54      1.0000 0.15700  0.24843  0.54079  Biso   1.000  C
  C55      1.0000 0.84300  0.24843  0.95921  Biso   1.000  C
  C56      1.0000 0.65700  0.25157  0.45921  Biso   1.000  C
  H81      1.0000 0.61430  0.71770  0.93870  Biso   1.000  H
  H82      1.0000 0.88570  0.78230  0.43870  Biso   1.000  H
  H83      1.0000 0.11430  0.78230  0.06130  Biso   1.000  H
  H84      1.0000 0.38570  0.71770  0.56130  Biso   1.000  H
  H85      1.0000 0.38570  0.28230  0.06130  Biso   1.000  H
  H86      1.0000 0.11430  0.21770  0.56130  Biso   1.000  H
  H87      1.0000 0.88570  0.21770  0.93870  Biso   1.000  H
  H88      1.0000 0.61430  0.28230  0.43870  Biso   1.000  H
  H89      1.0000 0.63020  0.78770  0.98540  Biso   1.000  H
  H90      1.0000 0.86980  0.71230  0.48540  Biso   1.000  H
  H91      1.0000 0.13020  0.71230  0.01460  Biso   1.000  H
  H92      1.0000 0.36980  0.78770  0.51460  Biso   1.000  H
  H93      1.0000 0.36980  0.21230  0.01460  Biso   1.000  H
  H94      1.0000 0.13020  0.28770  0.51460  Biso   1.000  H
  H95      1.0000 0.86980  0.28770  0.98540  Biso   1.000  H
  H96      1.0000 0.63020  0.21230  0.48540  Biso   1.000  H
  C57      1.0000 0.78540  0.88156  0.88093  Biso   1.000  C
  C58      1.0000 0.71460  0.61844  0.38093  Biso   1.000  C
  C59      1.0000 0.28540  0.61844  0.11907  Biso   1.000  C
  C60      1.0000 0.21460  0.88156  0.61907  Biso   1.000  C
  C61      1.0000 0.21460  0.11844  0.11907  Biso   1.000  C
  C62      1.0000 0.28540  0.38156  0.61907  Biso   1.000  C
  C63      1.0000 0.71460  0.38156  0.88093  Biso   1.000  C
  C64      1.0000 0.78540  0.11844  0.38093  Biso   1.000  C
  H97      1.0000 0.81750  0.92860  0.87660  Biso   1.000  H
  H98      1.0000 0.68250  0.57140  0.37660  Biso   1.000  H
  H99      1.0000 0.31750  0.57140  0.12340  Biso   1.000  H
  H100     1.0000 0.18250  0.92860  0.62340  Biso   1.000  H
  H101     1.0000 0.18250  0.07140  0.12340  Biso   1.000  H
  H102     1.0000 0.31750  0.42860  0.62340  Biso   1.000  H
  H103     1.0000 0.68250  0.42860  0.87660  Biso   1.000  H
  H104     1.0000 0.81750  0.07140  0.37660  Biso   1.000  H
  C65      1.0000 0.72775  0.76988  0.86190  Biso   1.000  C
  C66      1.0000 0.77225  0.73012  0.36190  Biso   1.000  C
  C67      1.0000 0.22775  0.73012  0.13810  Biso   1.000  C
  C68      1.0000 0.27225  0.76988  0.63810  Biso   1.000  C
  C69      1.0000 0.27225  0.23012  0.13810  Biso   1.000  C
  C70      1.0000 0.22775  0.26988  0.63810  Biso   1.000  C
  C71      1.0000 0.77225  0.26988  0.86190  Biso   1.000  C
  C72      1.0000 0.72775  0.23012  0.36190  Biso   1.000  C
  H105     1.0000 0.70950  0.72200  0.84340  Biso   1.000  H
  H106     1.0000 0.79050  0.77800  0.34340  Biso   1.000  H
  H107     1.0000 0.20950  0.77800  0.15660  Biso   1.000  H
  H108     1.0000 0.29050  0.72200  0.65660  Biso   1.000  H
  H109     1.0000 0.29050  0.27800  0.15660  Biso   1.000  H
  H110     1.0000 0.20950  0.22200  0.65660  Biso   1.000  H
  H111     1.0000 0.79050  0.22200  0.84340  Biso   1.000  H
  H112     1.0000 0.70950  0.27800  0.34340  Biso   1.000  H
  C73      1.0000 0.11054  0.43352  0.20422  Biso   1.000  C
  C74      1.0000 0.38946  0.06648  0.70422  Biso   1.000  C
  C75      1.0000 0.61054  0.06648  0.79578  Biso   1.000  C
  C76      1.0000 0.88946  0.43352  0.29578  Biso   1.000  C
  C77      1.0000 0.88946  0.56648  0.79578  Biso   1.000  C
  C78      1.0000 0.61054  0.93352  0.29578  Biso   1.000  C
  C79      1.0000 0.38946  0.93352  0.20422  Biso   1.000  C
  C80      1.0000 0.11054  0.56648  0.70422  Biso   1.000  C
  C81      1.0000 0.05971  0.47295  0.16142  Biso   1.000  C
  C82      1.0000 0.44029  0.02705  0.66142  Biso   1.000  C
  C83      1.0000 0.55971  0.02705  0.83858  Biso   1.000  C
  C84      1.0000 0.94029  0.47295  0.33858  Biso   1.000  C
  C85      1.0000 0.94029  0.52705  0.83858  Biso   1.000  C
  C86      1.0000 0.55971  0.97295  0.33858  Biso   1.000  C
  C87      1.0000 0.44029  0.97295  0.16142  Biso   1.000  C
  C88      1.0000 0.05971  0.52705  0.66142  Biso   1.000  C
  C89      1.0000 0.05796  0.56056  0.16539  Biso   1.000  C
  C90      1.0000 0.44204  0.93944  0.66539  Biso   1.000  C
  C91      1.0000 0.55796  0.93944  0.83461  Biso   1.000  C
  C92      1.0000 0.94204  0.56056  0.33461  Biso   1.000  C
  C93      1.0000 0.94204  0.43944  0.83461  Biso   1.000  C
  C94      1.0000 0.55796  0.06056  0.33461  Biso   1.000  C
  C95      1.0000 0.44204  0.06056  0.16539  Biso   1.000  C
  C96      1.0000 0.05796  0.43944  0.66539  Biso   1.000  C
  C97      1.0000 0.09598  0.60487  0.20933  Biso   1.000  C
  C98      1.0000 0.40402  0.89513  0.70933  Biso   1.000  C
  C99      1.0000 0.59598  0.89513  0.79067  Biso   1.000  C
  C100     1.0000 0.90402  0.60487  0.29067  Biso   1.000  C
  C101     1.0000 0.90402  0.39513  0.79067  Biso   1.000  C
  C102     1.0000 0.59598  0.10487  0.29067  Biso   1.000  C
  C103     1.0000 0.40402  0.10487  0.20933  Biso   1.000  C
  C104     1.0000 0.09598  0.39513  0.70933  Biso   1.000  C
  H113     1.0000 0.09090  0.66190  0.21100  Biso   1.000  H
  H114     1.0000 0.40910  0.83810  0.71100  Biso   1.000  H
  H115     1.0000 0.59090  0.83810  0.78900  Biso   1.000  H
  H116     1.0000 0.90910  0.66190  0.28900  Biso   1.000  H
  H117     1.0000 0.90910  0.33810  0.78900  Biso   1.000  H
  H118     1.0000 0.59090  0.16190  0.28900  Biso   1.000  H
  H119     1.0000 0.40910  0.16190  0.21100  Biso   1.000  H
  H120     1.0000 0.09090  0.33810  0.71100  Biso   1.000  H
  C105     1.0000 0.14236  0.56261  0.25132  Biso   1.000  C
  C106     1.0000 0.35764  0.93739  0.75132  Biso   1.000  C
  C107     1.0000 0.64236  0.93739  0.74868  Biso   1.000  C
  C108     1.0000 0.85764  0.56261  0.24868  Biso   1.000  C
  C109     1.0000 0.85764  0.43739  0.74868  Biso   1.000  C
  C110     1.0000 0.64236  0.06261  0.24868  Biso   1.000  C
  C111     1.0000 0.35764  0.06261  0.25132  Biso   1.000  C
  C112     1.0000 0.14236  0.43739  0.75132  Biso   1.000  C
  C113     1.0000 0.14967  0.47854  0.24830  Biso   1.000  C
  C114     1.0000 0.35033  0.02146  0.74830  Biso   1.000  C
  C115     1.0000 0.64967  0.02146  0.75170  Biso   1.000  C
  C116     1.0000 0.85033  0.47854  0.25170  Biso   1.000  C
  C117     1.0000 0.85033  0.52146  0.75170  Biso   1.000  C
  C118     1.0000 0.64967  0.97854  0.25170  Biso   1.000  C
  C119     1.0000 0.35033  0.97854  0.24830  Biso   1.000  C
  C120     1.0000 0.14967  0.52146  0.74830  Biso   1.000  C
  H121     1.0000 0.18160  0.45120  0.27650  Biso   1.000  H
  H122     1.0000 0.31840  0.04880  0.77650  Biso   1.000  H
  H123     1.0000 0.68160  0.04880  0.72350  Biso   1.000  H
  H124     1.0000 0.81840  0.45120  0.22350  Biso   1.000  H
  H125     1.0000 0.81840  0.54880  0.72350  Biso   1.000  H
  H126     1.0000 0.68160  0.95120  0.22350  Biso   1.000  H
  H127     1.0000 0.31840  0.95120  0.27650  Biso   1.000  H
  H128     1.0000 0.18160  0.54880  0.77650  Biso   1.000  H
  C121     1.0000 0.12300  0.34274  0.20383  Biso   1.000  C
  C122     1.0000 0.37700  0.15726  0.70383  Biso   1.000  C
  C123     1.0000 0.62300  0.15726  0.79617  Biso   1.000  C
  C124     1.0000 0.87700  0.34274  0.29617  Biso   1.000  C
  C125     1.0000 0.87700  0.65726  0.79617  Biso   1.000  C
  C126     1.0000 0.62300  0.84274  0.29617  Biso   1.000  C
  C127     1.0000 0.37700  0.84274  0.20383  Biso   1.000  C
  C128     1.0000 0.12300  0.65726  0.70383  Biso   1.000  C
  C129     1.0000 0.06953  0.07694  0.33516  Biso   1.000  C
  C130     1.0000 0.43047  0.42306  0.83516  Biso   1.000  C
  C131     1.0000 0.56953  0.42306  0.66484  Biso   1.000  C
  C132     1.0000 0.93047  0.07694  0.16484  Biso   1.000  C
  C133     1.0000 0.93047  0.92306  0.66484  Biso   1.000  C
  C134     1.0000 0.56953  0.57694  0.16484  Biso   1.000  C
  C135     1.0000 0.43047  0.57694  0.33516  Biso   1.000  C
  C136     1.0000 0.06953  0.92306  0.83516  Biso   1.000  C
  C137     1.0000 0.10237  0.03889  0.28252  Biso   1.000  C
  C138     1.0000 0.39763  0.46111  0.78252  Biso   1.000  C
  C139     1.0000 0.60237  0.46111  0.71748  Biso   1.000  C
  C140     1.0000 0.89763  0.03889  0.21748  Biso   1.000  C
  C141     1.0000 0.89763  0.96111  0.71748  Biso   1.000  C
  C142     1.0000 0.60237  0.53889  0.21748  Biso   1.000  C
  C143     1.0000 0.39763  0.53889  0.28252  Biso   1.000  C
  C144     1.0000 0.10237  0.96111  0.78252  Biso   1.000  C
  C145     1.0000 0.09874  0.95050  0.28187  Biso   1.000  C
  C146     1.0000 0.40126  0.54950  0.78187  Biso   1.000  C
  C147     1.0000 0.59874  0.54950  0.71813  Biso   1.000  C
  C148     1.0000 0.90126  0.95050  0.21813  Biso   1.000  C
  C149     1.0000 0.90126  0.04950  0.71813  Biso   1.000  C
  C150     1.0000 0.59874  0.45050  0.21813  Biso   1.000  C
  C151     1.0000 0.40126  0.45050  0.28187  Biso   1.000  C
  C152     1.0000 0.09874  0.04950  0.78187  Biso   1.000  C
  C153     1.0000 0.07233  0.90503  0.32897  Biso   1.000  C
  C154     1.0000 0.42767  0.59497  0.82897  Biso   1.000  C
  C155     1.0000 0.57233  0.59497  0.67103  Biso   1.000  C
  C156     1.0000 0.92767  0.90503  0.17103  Biso   1.000  C
  C157     1.0000 0.92767  0.09497  0.67103  Biso   1.000  C
  C158     1.0000 0.57233  0.40503  0.17103  Biso   1.000  C
  C159     1.0000 0.42767  0.40503  0.32897  Biso   1.000  C
  C160     1.0000 0.07233  0.09497  0.82897  Biso   1.000  C
  H129     1.0000 0.07390  0.84780  0.32770  Biso   1.000  H
  H130     1.0000 0.42610  0.65220  0.82770  Biso   1.000  H
  H131     1.0000 0.57390  0.65220  0.67230  Biso   1.000  H
  H132     1.0000 0.92610  0.84780  0.17230  Biso   1.000  H
  H133     1.0000 0.92610  0.15220  0.67230  Biso   1.000  H
  H134     1.0000 0.57390  0.34780  0.17230  Biso   1.000  H
  H135     1.0000 0.42610  0.34780  0.32770  Biso   1.000  H
  H136     1.0000 0.07390  0.15220  0.82770  Biso   1.000  H
  C161     1.0000 0.04335  0.94526  0.37847  Biso   1.000  C
  C162     1.0000 0.45665  0.55474  0.87847  Biso   1.000  C
  C163     1.0000 0.54335  0.55474  0.62153  Biso   1.000  C
  C164     1.0000 0.95665  0.94526  0.12153  Biso   1.000  C
  C165     1.0000 0.95665  0.05474  0.62153  Biso   1.000  C
  C166     1.0000 0.54335  0.44526  0.12153  Biso   1.000  C
  C167     1.0000 0.45665  0.44526  0.37847  Biso   1.000  C
  C168     1.0000 0.04335  0.05474  0.87847  Biso   1.000  C
  C169     1.0000 0.04069  0.02983  0.38152  Biso   1.000  C
  C170     1.0000 0.45931  0.47017  0.88152  Biso   1.000  C
  C171     1.0000 0.54069  0.47017  0.61848  Biso   1.000  C
  C172     1.0000 0.95931  0.02983  0.11848  Biso   1.000  C
  C173     1.0000 0.95931  0.97017  0.61848  Biso   1.000  C
  C174     1.0000 0.54069  0.52983  0.11848  Biso   1.000  C
  C175     1.0000 0.45931  0.52983  0.38152  Biso   1.000  C
  C176     1.0000 0.04069  0.97017  0.88152  Biso   1.000  C
  H137     1.0000 0.01920  0.05530  0.41520  Biso   1.000  H
  H138     1.0000 0.48080  0.44470  0.91520  Biso   1.000  H
  H139     1.0000 0.51920  0.44470  0.58480  Biso   1.000  H
  H140     1.0000 0.98080  0.05530  0.08480  Biso   1.000  H
  H141     1.0000 0.98080  0.94470  0.58480  Biso   1.000  H
  H142     1.0000 0.51920  0.55530  0.08480  Biso   1.000  H
  H143     1.0000 0.48080  0.55530  0.41520  Biso   1.000  H
  H144     1.0000 0.01920  0.94470  0.91520  Biso   1.000  H
  C177     1.0000 0.06443  0.16827  0.34201  Biso   1.000  C
  C178     1.0000 0.43557  0.33173  0.84201  Biso   1.000  C
  C179     1.0000 0.56443  0.33173  0.65799  Biso   1.000  C
  C180     1.0000 0.93557  0.16827  0.15799  Biso   1.000  C
  C181     1.0000 0.93557  0.83173  0.65799  Biso   1.000  C
  C182     1.0000 0.56443  0.66827  0.15799  Biso   1.000  C
  C183     1.0000 0.43557  0.66827  0.34201  Biso   1.000  C
  C184     1.0000 0.06443  0.83173  0.84201  Biso   1.000  C
  N1       1.0000 0.87461  0.35673  0.09820  Biso   1.000  N
  N2       1.0000 0.62539  0.14327  0.59820  Biso   1.000  N
  N3       1.0000 0.37461  0.14327  0.90180  Biso   1.000  N
  N4       1.0000 0.12539  0.35673  0.40180  Biso   1.000  N
  N5       1.0000 0.12539  0.64327  0.90180  Biso   1.000  N
  N6       1.0000 0.37461  0.85673  0.40180  Biso   1.000  N
  N7       1.0000 0.62539  0.85673  0.09820  Biso   1.000  N
  N8       1.0000 0.87461  0.64327  0.59820  Biso   1.000  N
  N9       1.0000 0.73859  0.37970  0.09314  Biso   1.000  N
  N10      1.0000 0.76141  0.12030  0.59314  Biso   1.000  N
  N11      1.0000 0.23859  0.12030  0.90686  Biso   1.000  N
  N12      1.0000 0.26141  0.37970  0.40686  Biso   1.000  N
  N13      1.0000 0.26141  0.62030  0.90686  Biso   1.000  N
  N14      1.0000 0.23859  0.87970  0.40686  Biso   1.000  N
  N15      1.0000 0.76141  0.87970  0.09314  Biso   1.000  N
  N16      1.0000 0.73859  0.62030  0.59314  Biso   1.000  N
  N17      1.0000 0.78159  0.43795  0.06220  Biso   1.000  N
  N18      1.0000 0.71841  0.06205  0.56220  Biso   1.000  N
  N19      1.0000 0.28159  0.06205  0.93780  Biso   1.000  N
  N20      1.0000 0.21841  0.43795  0.43780  Biso   1.000  N
  N21      1.0000 0.21841  0.56205  0.93780  Biso   1.000  N
  N22      1.0000 0.28159  0.93795  0.43780  Biso   1.000  N
  N23      1.0000 0.71841  0.93795  0.06220  Biso   1.000  N
  N24      1.0000 0.78159  0.56205  0.56220  Biso   1.000  N
  N25      1.0000 0.70677  0.79303  0.91546  Biso   1.000  N
  N26      1.0000 0.79323  0.70697  0.41546  Biso   1.000  N
  N27      1.0000 0.20677  0.70697  0.08454  Biso   1.000  N
  N28      1.0000 0.29323  0.79303  0.58454  Biso   1.000  N
  N29      1.0000 0.29323  0.20697  0.08454  Biso   1.000  N
  N30      1.0000 0.20677  0.29303  0.58454  Biso   1.000  N
  N31      1.0000 0.79323  0.29303  0.91546  Biso   1.000  N
  N32      1.0000 0.70677  0.20697  0.41546  Biso   1.000  N
  N33      1.0000 0.74370  0.86605  0.92888  Biso   1.000  N
  N34      1.0000 0.75630  0.63395  0.42888  Biso   1.000  N
  N35      1.0000 0.24370  0.63395  0.07112  Biso   1.000  N
  N36      1.0000 0.25630  0.86605  0.57112  Biso   1.000  N
  N37      1.0000 0.25630  0.13395  0.07112  Biso   1.000  N
  N38      1.0000 0.24370  0.36605  0.57112  Biso   1.000  N
  N39      1.0000 0.75630  0.36605  0.92888  Biso   1.000  N
  N40      1.0000 0.74370  0.13395  0.42888  Biso   1.000  N
  N41      1.0000 0.77839  0.82388  0.83771  Biso   1.000  N
  N42      1.0000 0.72161  0.67612  0.33771  Biso   1.000  N
  N43      1.0000 0.27839  0.67612  0.16229  Biso   1.000  N
  N44      1.0000 0.22161  0.82388  0.66229  Biso   1.000  N
  N45      1.0000 0.22161  0.17612  0.16229  Biso   1.000  N
  N46      1.0000 0.27839  0.32388  0.66229  Biso   1.000  N
  N47      1.0000 0.72161  0.32388  0.83771  Biso   1.000  N
  N48      1.0000 0.77839  0.17612  0.33771  Biso   1.000  N
  N49      1.0000 0.01054  0.60642  0.12083  Biso   1.000  N
  N50      1.0000 0.48946  0.89358  0.62083  Biso   1.000  N
  N51      1.0000 0.51054  0.89358  0.87917  Biso   1.000  N
  N52      1.0000 0.98946  0.60642  0.37917  Biso   1.000  N
  N53      1.0000 0.98946  0.39358  0.87917  Biso   1.000  N
  N54      1.0000 0.51054  0.10642  0.37917  Biso   1.000  N
  N55      1.0000 0.48946  0.10642  0.12083  Biso   1.000  N
  N56      1.0000 0.01054  0.39358  0.62083  Biso   1.000  N
  N57      1.0000 0.18628  0.60795  0.29691  Biso   1.000  N
  N58      1.0000 0.31372  0.89205  0.79691  Biso   1.000  N
  N59      1.0000 0.68628  0.89205  0.70309  Biso   1.000  N
  N60      1.0000 0.81372  0.60795  0.20309  Biso   1.000  N
  N61      1.0000 0.81372  0.39205  0.70309  Biso   1.000  N
  N62      1.0000 0.68628  0.10795  0.20309  Biso   1.000  N
  N63      1.0000 0.31372  0.10795  0.29691  Biso   1.000  N
  N64      1.0000 0.18628  0.39205  0.79691  Biso   1.000  N
  N65      1.0000 0.12416  0.90463  0.22855  Biso   1.000  N
  N66      1.0000 0.37584  0.59537  0.72855  Biso   1.000  N
  N67      1.0000 0.62416  0.59537  0.77145  Biso   1.000  N
  N68      1.0000 0.87584  0.90463  0.27145  Biso   1.000  N
  N69      1.0000 0.87584  0.09537  0.77145  Biso   1.000  N
  N70      1.0000 0.62416  0.40463  0.27145  Biso   1.000  N
  N71      1.0000 0.37584  0.40463  0.22855  Biso   1.000  N
  N72      1.0000 0.12416  0.09537  0.72855  Biso   1.000  N
  N73      1.0000 0.01660  0.89670  0.42950  Biso   1.000  N
  N74      1.0000 0.48340  0.60330  0.92950  Biso   1.000  N
  N75      1.0000 0.51660  0.60330  0.57050  Biso   1.000  N
  N76      1.0000 0.98340  0.89670  0.07050  Biso   1.000  N
  N77      1.0000 0.98340  0.10330  0.57050  Biso   1.000  N
  N78      1.0000 0.51660  0.39670  0.07050  Biso   1.000  N
  N79      1.0000 0.48340  0.39670  0.42950  Biso   1.000  N
  N80      1.0000 0.01660  0.10330  0.92950  Biso   1.000  N
  O1       1.0000 0.18087  0.31336  0.23505  Biso   1.000  O
  O2       1.0000 0.31913  0.18664  0.73505  Biso   1.000  O
  O3       1.0000 0.68087  0.18664  0.76495  Biso   1.000  O
  O4       1.0000 0.81913  0.31336  0.26495  Biso   1.000  O
  O5       1.0000 0.81913  0.68664  0.76495  Biso   1.000  O
  O6       1.0000 0.68087  0.81336  0.26495  Biso   1.000  O
  O7       1.0000 0.31913  0.81336  0.23505  Biso   1.000  O
  O8       1.0000 0.18087  0.68664  0.73505  Biso   1.000  O
  O9       1.0000 0.07770  0.29539  0.17323  Biso   1.000  O
  O10      1.0000 0.42230  0.20461  0.67323  Biso   1.000  O
  O11      1.0000 0.57770  0.20461  0.82677  Biso   1.000  O
  O12      1.0000 0.92230  0.29539  0.32677  Biso   1.000  O
  O13      1.0000 0.92230  0.70461  0.82677  Biso   1.000  O
  O14      1.0000 0.57770  0.79539  0.32677  Biso   1.000  O
  O15      1.0000 0.42230  0.79539  0.17323  Biso   1.000  O
  O16      1.0000 0.07770  0.70461  0.67323  Biso   1.000  O
  O17      1.0000 0.01753  0.43508  0.12216  Biso   1.000  O
  O18      1.0000 0.48247  0.06492  0.62216  Biso   1.000  O
  O19      1.0000 0.51753  0.06492  0.87784  Biso   1.000  O
  O20      1.0000 0.98247  0.43508  0.37784  Biso   1.000  O
  O21      1.0000 0.98247  0.56492  0.87784  Biso   1.000  O
  O22      1.0000 0.51753  0.93508  0.37784  Biso   1.000  O
  O23      1.0000 0.48247  0.93508  0.12216  Biso   1.000  O
  O24      1.0000 0.01753  0.56492  0.62216  Biso   1.000  O
  O25      1.0000 0.01326  0.58475  0.06911  Biso   1.000  O
  O26      1.0000 0.48674  0.91525  0.56911  Biso   1.000  O
  O27      1.0000 0.51326  0.91525  0.93089  Biso   1.000  O
  O28      1.0000 0.98674  0.58475  0.43089  Biso   1.000  O
  O29      1.0000 0.98674  0.41525  0.93089  Biso   1.000  O
  O30      1.0000 0.51326  0.08475  0.43089  Biso   1.000  O
  O31      1.0000 0.48674  0.08475  0.06911  Biso   1.000  O
  O32      1.0000 0.01326  0.41525  0.56911  Biso   1.000  O
  O33      1.0000 0.97356  0.66657  0.13711  Biso   1.000  O
  O34      1.0000 0.52644  0.83343  0.63711  Biso   1.000  O
  O35      1.0000 0.47356  0.83343  0.86289  Biso   1.000  O
  O36      1.0000 0.02644  0.66657  0.36289  Biso   1.000  O
  O37      1.0000 0.02644  0.33343  0.86289  Biso   1.000  O
  O38      1.0000 0.47356  0.16657  0.36289  Biso   1.000  O
  O39      1.0000 0.52644  0.16657  0.13711  Biso   1.000  O
  O40      1.0000 0.97356  0.33343  0.63711  Biso   1.000  O
  O41      1.0000 0.19529  0.68261  0.29047  Biso   1.000  O
  O42      1.0000 0.30471  0.81739  0.79047  Biso   1.000  O
  O43      1.0000 0.69529  0.81739  0.70953  Biso   1.000  O
  O44      1.0000 0.80471  0.68261  0.20953  Biso   1.000  O
  O45      1.0000 0.80471  0.31739  0.70953  Biso   1.000  O
  O46      1.0000 0.69529  0.18261  0.20953  Biso   1.000  O
  O47      1.0000 0.30471  0.18261  0.29047  Biso   1.000  O
  O48      1.0000 0.19529  0.31739  0.79047  Biso   1.000  O
  O49      1.0000 0.21377  0.56984  0.33906  Biso   1.000  O
  O50      1.0000 0.28623  0.93016  0.83906  Biso   1.000  O
  O51      1.0000 0.71377  0.93016  0.66094  Biso   1.000  O
  O52      1.0000 0.78623  0.56984  0.16094  Biso   1.000  O
  O53      1.0000 0.78623  0.43016  0.66094  Biso   1.000  O
  O54      1.0000 0.71377  0.06984  0.16094  Biso   1.000  O
  O55      1.0000 0.28623  0.06984  0.33906  Biso   1.000  O
  O56      1.0000 0.21377  0.43016  0.83906  Biso   1.000  O
  O57      1.0000 0.03076  0.19802  0.38741  Biso   1.000  O
  O58      1.0000 0.46924  0.30198  0.88741  Biso   1.000  O
  O59      1.0000 0.53076  0.30198  0.61259  Biso   1.000  O
  O60      1.0000 0.96924  0.19802  0.11259  Biso   1.000  O
  O61      1.0000 0.96924  0.80198  0.61259  Biso   1.000  O
  O62      1.0000 0.53076  0.69802  0.11259  Biso   1.000  O
  O63      1.0000 0.46924  0.69802  0.38741  Biso   1.000  O
  O64      1.0000 0.03076  0.80198  0.88741  Biso   1.000  O
  O65      1.0000 0.09271  0.21613  0.30236  Biso   1.000  O
  O66      1.0000 0.40729  0.28387  0.80236  Biso   1.000  O
  O67      1.0000 0.59271  0.28387  0.69764  Biso   1.000  O
  O68      1.0000 0.90729  0.21613  0.19764  Biso   1.000  O
  O69      1.0000 0.90729  0.78387  0.69764  Biso   1.000  O
  O70      1.0000 0.59271  0.71613  0.19764  Biso   1.000  O
  O71      1.0000 0.40729  0.71613  0.30236  Biso   1.000  O
  O72      1.0000 0.09271  0.78387  0.80236  Biso   1.000  O
  O73      1.0000 0.13206  0.07841  0.23828  Biso   1.000  O
  O74      1.0000 0.36794  0.42159  0.73828  Biso   1.000  O
  O75      1.0000 0.63206  0.42159  0.76172  Biso   1.000  O
  O76      1.0000 0.86794  0.07841  0.26172  Biso   1.000  O
  O77      1.0000 0.86794  0.92159  0.76172  Biso   1.000  O
  O78      1.0000 0.63206  0.57841  0.26172  Biso   1.000  O
  O79      1.0000 0.36794  0.57841  0.23828  Biso   1.000  O
  O80      1.0000 0.13206  0.92159  0.73828  Biso   1.000  O
  O81      1.0000 0.16658  0.93625  0.19096  Biso   1.000  O
  O82      1.0000 0.33342  0.56375  0.69096  Biso   1.000  O
  O83      1.0000 0.66658  0.56375  0.80904  Biso   1.000  O
  O84      1.0000 0.83342  0.93625  0.30904  Biso   1.000  O
  O85      1.0000 0.83342  0.06375  0.80904  Biso   1.000  O
  O86      1.0000 0.66658  0.43625  0.30904  Biso   1.000  O
  O87      1.0000 0.33342  0.43625  0.19096  Biso   1.000  O
  O88      1.0000 0.16658  0.06375  0.69096  Biso   1.000  O
  O89      1.0000 0.10014  0.83382  0.22398  Biso   1.000  O
  O90      1.0000 0.39986  0.66618  0.72398  Biso   1.000  O
  O91      1.0000 0.60014  0.66618  0.77602  Biso   1.000  O
  O92      1.0000 0.89986  0.83382  0.27602  Biso   1.000  O
  O93      1.0000 0.89986  0.16618  0.77602  Biso   1.000  O
  O94      1.0000 0.60014  0.33382  0.27602  Biso   1.000  O
  O95      1.0000 0.39986  0.33382  0.22398  Biso   1.000  O
  O96      1.0000 0.10014  0.16618  0.72398  Biso   1.000  O
  O97      1.0000 0.03376  0.82446  0.43150  Biso   1.000  O
  O98      1.0000 0.46624  0.67554  0.93150  Biso   1.000  O
  O99      1.0000 0.53376  0.67554  0.56850  Biso   1.000  O
  O100     1.0000 0.96624  0.82446  0.06850  Biso   1.000  O
  O101     1.0000 0.96624  0.17554  0.56850  Biso   1.000  O
  O102     1.0000 0.53376  0.32446  0.06850  Biso   1.000  O
  O103     1.0000 0.46624  0.32446  0.43150  Biso   1.000  O
  O104     1.0000 0.03376  0.17554  0.93150  Biso   1.000  O
  O105     1.0000 0.97330  0.93048  0.46662  Biso   1.000  O
  O106     1.0000 0.52670  0.56952  0.96662  Biso   1.000  O
  O107     1.0000 0.47330  0.56952  0.53338  Biso   1.000  O
  O108     1.0000 0.02670  0.93048  0.03338  Biso   1.000  O
  O109     1.0000 0.02670  0.06952  0.53338  Biso   1.000  O
  O110     1.0000 0.47330  0.43048  0.03338  Biso   1.000  O
  O111     1.0000 0.52670  0.43048  0.46662  Biso   1.000  O
  O112     1.0000 0.97330  0.06952  0.96662  Biso   1.000  O
  O113     1.0000 0.04360  0.30248  0.02791  Biso   1.000  O
  O114     1.0000 0.45640  0.19752  0.52791  Biso   1.000  O
  O115     1.0000 0.54360  0.19752  0.97209  Biso   1.000  O
  O116     1.0000 0.95640  0.30248  0.47209  Biso   1.000  O
  O117     1.0000 0.95640  0.69752  0.97209  Biso   1.000  O
  O118     1.0000 0.54360  0.80248  0.47209  Biso   1.000  O
  O119     1.0000 0.45640  0.80248  0.02791  Biso   1.000  O
  O120     1.0000 0.04360  0.69752  0.52791  Biso   1.000  O
  H145     1.0000 0.05200  0.25400  0.01720  Biso   1.000  H
  H146     1.0000 0.44800  0.24600  0.51720  Biso   1.000  H
  H147     1.0000 0.55200  0.24600  0.98280  Biso   1.000  H
  H148     1.0000 0.94800  0.25400  0.48280  Biso   1.000  H
  H149     1.0000 0.94800  0.74600  0.98280  Biso   1.000  H
  H150     1.0000 0.55200  0.75400  0.48280  Biso   1.000  H
  H151     1.0000 0.44800  0.75400  0.01720  Biso   1.000  H
  H152     1.0000 0.05200  0.74600  0.51720  Biso   1.000  H
  H153     1.0000 0.04100  0.33560  0.99920  Biso   1.000  H
  H154     1.0000 0.45900  0.16440  0.49920  Biso   1.000  H
  H155     1.0000 0.54100  0.16440  0.00080  Biso   1.000  H
  H156     1.0000 0.95900  0.33560  0.50080  Biso   1.000  H
  H157     1.0000 0.95900  0.66440  0.00080  Biso   1.000  H
  H158     1.0000 0.54100  0.83560  0.50080  Biso   1.000  H
  H159     1.0000 0.45900  0.83560  0.99920  Biso   1.000  H
  H160     1.0000 0.04100  0.66440  0.49920  Biso   1.000  H
