data_image0
_cell_length_a       19.261
_cell_length_b       9.123
_cell_length_c       12.441
_cell_angle_alpha    90
_cell_angle_beta     99.29
_cell_angle_gamma    90

_symmetry_space_group_name_H-M    "P 1"
_symmetry_int_tables_number       1

loop_
  _symmetry_equiv_pos_as_xyz
  'x, y, z'

loop_
  _atom_site_label
  _atom_site_occupancy
  _atom_site_fract_x
  _atom_site_fract_y
  _atom_site_fract_z
  _atom_site_thermal_displace_type
  _atom_site_B_iso_or_equiv
  _atom_site_type_symbol
  Cu1      1.0000 0.25120  0.58566  0.92085  Biso   1.000  Cu
  Cu2      1.0000 0.74880  0.08566  0.57915  Biso   1.000  Cu
  Cu3      1.0000 0.74880  0.41434  0.07915  Biso   1.000  Cu
  Cu4      1.0000 0.25120  0.91434  0.42085  Biso   1.000  Cu
  O1       1.0000 0.34230  0.68060  0.92660  Biso   1.000  O
  O2       1.0000 0.65770  0.18060  0.57340  Biso   1.000  O
  O3       1.0000 0.65770  0.31940  0.07340  Biso   1.000  O
  O4       1.0000 0.34230  0.81940  0.42660  Biso   1.000  O
  O5       1.0000 0.15817  0.48980  0.90700  Biso   1.000  O
  O6       1.0000 0.84183  0.98980  0.59300  Biso   1.000  O
  O7       1.0000 0.84183  0.51020  0.09300  Biso   1.000  O
  O8       1.0000 0.15817  0.01020  0.40700  Biso   1.000  O
  N1       1.0000 0.70050  0.61020  0.09320  Biso   1.000  N
  N2       1.0000 0.29950  0.11020  0.40680  Biso   1.000  N
  N3       1.0000 0.29950  0.38980  0.90680  Biso   1.000  N
  N4       1.0000 0.70050  0.88980  0.59320  Biso   1.000  N
  O9       1.0000 0.26852  0.59640  0.10660  Biso   1.000  O
  O10      1.0000 0.73148  0.09640  0.39340  Biso   1.000  O
  O11      1.0000 0.73148  0.40360  0.89340  Biso   1.000  O
  O12      1.0000 0.26852  0.90360  0.60660  Biso   1.000  O
  H1       1.0000 0.28310  0.67800  0.12660  Biso   1.000  H
  H2       1.0000 0.71690  0.17800  0.37340  Biso   1.000  H
  H3       1.0000 0.71690  0.32200  0.87340  Biso   1.000  H
  H4       1.0000 0.28310  0.82200  0.62660  Biso   1.000  H
  O13      1.0000 0.31593  0.67870  0.74580  Biso   1.000  O
  O14      1.0000 0.68407  0.17870  0.75420  Biso   1.000  O
  O15      1.0000 0.68407  0.32130  0.25420  Biso   1.000  O
  O16      1.0000 0.31593  0.82130  0.24580  Biso   1.000  O
  N5       1.0000 0.80275  0.27690  0.62270  Biso   1.000  N
  N6       1.0000 0.19725  0.77690  0.87730  Biso   1.000  N
  N7       1.0000 0.19725  0.72310  0.37730  Biso   1.000  N
  N8       1.0000 0.80275  0.22310  0.12270  Biso   1.000  N
  C1       1.0000 0.13968  0.40970  0.98170  Biso   1.000  C
  C2       1.0000 0.86032  0.90970  0.51830  Biso   1.000  C
  C3       1.0000 0.86032  0.59030  0.01830  Biso   1.000  C
  C4       1.0000 0.13968  0.09030  0.48170  Biso   1.000  C
  C5       1.0000 0.79521  0.41100  0.57590  Biso   1.000  C
  C6       1.0000 0.20479  0.91100  0.92410  Biso   1.000  C
  C7       1.0000 0.20479  0.58900  0.42410  Biso   1.000  C
  C8       1.0000 0.79521  0.08900  0.07590  Biso   1.000  C
  O17      1.0000 0.17887  0.37850  0.06910  Biso   1.000  O
  O18      1.0000 0.82113  0.87850  0.43090  Biso   1.000  O
  O19      1.0000 0.82113  0.62150  0.93090  Biso   1.000  O
  O20      1.0000 0.17887  0.12150  0.56910  Biso   1.000  O
  C9       1.0000 0.42950  0.76450  0.82780  Biso   1.000  C
  C10      1.0000 0.57050  0.26450  0.67220  Biso   1.000  C
  C11      1.0000 0.57050  0.23550  0.17220  Biso   1.000  C
  C12      1.0000 0.42950  0.73550  0.32780  Biso   1.000  C
  C13      1.0000 0.06661  0.34970  0.96200  Biso   1.000  C
  C14      1.0000 0.93339  0.84970  0.53800  Biso   1.000  C
  C15      1.0000 0.93339  0.65030  0.03800  Biso   1.000  C
  C16      1.0000 0.06661  0.15030  0.46200  Biso   1.000  C
  C17      1.0000 0.35714  0.70360  0.83120  Biso   1.000  C
  C18      1.0000 0.64286  0.20360  0.66880  Biso   1.000  C
  C19      1.0000 0.64286  0.29640  0.16880  Biso   1.000  C
  C20      1.0000 0.35714  0.79640  0.33120  Biso   1.000  C
  C21      1.0000 0.60778  0.77300  0.00970  Biso   1.000  C
  C22      1.0000 0.39222  0.27300  0.49030  Biso   1.000  C
  C23      1.0000 0.39222  0.22700  0.99030  Biso   1.000  C
  C24      1.0000 0.60778  0.72700  0.50970  Biso   1.000  C
  C25      1.0000 0.48226  0.75050  0.91790  Biso   1.000  C
  C26      1.0000 0.51774  0.25050  0.58210  Biso   1.000  C
  C27      1.0000 0.51774  0.24950  0.08210  Biso   1.000  C
  C28      1.0000 0.48226  0.74950  0.41790  Biso   1.000  C
  H5       1.0000 0.47200  0.70550  0.98060  Biso   1.000  H
  H6       1.0000 0.52800  0.20550  0.51940  Biso   1.000  H
  H7       1.0000 0.52800  0.29450  0.01940  Biso   1.000  H
  H8       1.0000 0.47200  0.79450  0.48060  Biso   1.000  H
  C29      1.0000 0.89566  0.37170  0.76000  Biso   1.000  C
  C30      1.0000 0.10434  0.87170  0.74000  Biso   1.000  C
  C31      1.0000 0.10434  0.62830  0.24000  Biso   1.000  C
  C32      1.0000 0.89566  0.12830  0.26000  Biso   1.000  C
  C33      1.0000 0.01729  0.39160  0.87300  Biso   1.000  C
  C34      1.0000 0.98271  0.89160  0.62700  Biso   1.000  C
  C35      1.0000 0.98271  0.60840  0.12700  Biso   1.000  C
  C36      1.0000 0.01729  0.10840  0.37300  Biso   1.000  C
  H9       1.0000 0.03010  0.45810  0.82300  Biso   1.000  H
  H10      1.0000 0.96990  0.95810  0.67700  Biso   1.000  H
  H11      1.0000 0.96990  0.54190  0.17700  Biso   1.000  H
  H12      1.0000 0.03010  0.04190  0.32300  Biso   1.000  H
  C37      1.0000 0.94846  0.33520  0.85730  Biso   1.000  C
  C38      1.0000 0.05154  0.83520  0.64270  Biso   1.000  C
  C39      1.0000 0.05154  0.66480  0.14270  Biso   1.000  C
  C40      1.0000 0.94846  0.16480  0.35730  Biso   1.000  C
  C41      1.0000 0.64792  0.64750  0.01090  Biso   1.000  C
  C42      1.0000 0.35208  0.14750  0.48910  Biso   1.000  C
  C43      1.0000 0.35208  0.35250  0.98910  Biso   1.000  C
  C44      1.0000 0.64792  0.85250  0.51090  Biso   1.000  C
  H13      1.0000 0.63850  0.58440  0.95170  Biso   1.000  H
  H14      1.0000 0.36150  0.08440  0.54830  Biso   1.000  H
  H15      1.0000 0.36150  0.41560  0.04830  Biso   1.000  H
  H16      1.0000 0.63850  0.91560  0.45170  Biso   1.000  H
  C45      1.0000 0.71472  0.70340  0.17860  Biso   1.000  C
  C46      1.0000 0.28528  0.20340  0.32140  Biso   1.000  C
  C47      1.0000 0.28528  0.29660  0.82140  Biso   1.000  C
  C48      1.0000 0.71472  0.79660  0.67860  Biso   1.000  C
  C49      1.0000 0.93110  0.23620  0.93480  Biso   1.000  C
  C50      1.0000 0.06890  0.73620  0.56520  Biso   1.000  C
  C51      1.0000 0.06890  0.76380  0.06520  Biso   1.000  C
  C52      1.0000 0.93110  0.26380  0.43480  Biso   1.000  C
  H17      1.0000 0.88580  0.19830  0.92660  Biso   1.000  H
  H18      1.0000 0.11420  0.69830  0.57340  Biso   1.000  H
  H19      1.0000 0.11420  0.80170  0.07340  Biso   1.000  H
  H20      1.0000 0.88580  0.30170  0.42660  Biso   1.000  H
  C53      1.0000 0.54999  0.80260  0.91620  Biso   1.000  C
  C54      1.0000 0.45001  0.30260  0.58380  Biso   1.000  C
  C55      1.0000 0.45001  0.19740  0.08380  Biso   1.000  C
  C56      1.0000 0.54999  0.69740  0.41620  Biso   1.000  C
  C57      1.0000 0.44420  0.83350  0.73450  Biso   1.000  C
  C58      1.0000 0.55580  0.33350  0.76550  Biso   1.000  C
  C59      1.0000 0.55580  0.16650  0.26550  Biso   1.000  C
  C60      1.0000 0.44420  0.66650  0.23450  Biso   1.000  C
  H21      1.0000 0.40970  0.84070  0.67310  Biso   1.000  H
  H22      1.0000 0.59030  0.34070  0.82690  Biso   1.000  H
  H23      1.0000 0.59030  0.15930  0.32690  Biso   1.000  H
  H24      1.0000 0.40970  0.65930  0.17310  Biso   1.000  H
  C61      1.0000 0.85208  0.26190  0.71260  Biso   1.000  C
  C62      1.0000 0.14792  0.76190  0.78740  Biso   1.000  C
  C63      1.0000 0.14792  0.73810  0.28740  Biso   1.000  C
  C64      1.0000 0.85208  0.23810  0.21260  Biso   1.000  C
  H25      1.0000 0.85700  0.16980  0.74500  Biso   1.000  H
  H26      1.0000 0.14300  0.66980  0.75500  Biso   1.000  H
  H27      1.0000 0.14300  0.83020  0.25500  Biso   1.000  H
  H28      1.0000 0.85700  0.33020  0.24500  Biso   1.000  H
  C65      1.0000 0.97960  0.19370  0.02270  Biso   1.000  C
  C66      1.0000 0.02040  0.69370  0.47730  Biso   1.000  C
  C67      1.0000 0.02040  0.80630  0.97730  Biso   1.000  C
  C68      1.0000 0.97960  0.30630  0.52270  Biso   1.000  C
  H29      1.0000 0.96690  0.12730  0.07280  Biso   1.000  H
  H30      1.0000 0.03310  0.62730  0.42720  Biso   1.000  H
  H31      1.0000 0.03310  0.87270  0.92720  Biso   1.000  H
  H32      1.0000 0.96690  0.37270  0.57280  Biso   1.000  H
  C69      1.0000 0.51070  0.89180  0.73350  Biso   1.000  C
  C70      1.0000 0.48930  0.39180  0.76650  Biso   1.000  C
  C71      1.0000 0.48930  0.10820  0.26650  Biso   1.000  C
  C72      1.0000 0.51070  0.60820  0.23350  Biso   1.000  C
  H33      1.0000 0.52020  0.94060  0.67190  Biso   1.000  H
  H34      1.0000 0.47980  0.44060  0.82810  Biso   1.000  H
  H35      1.0000 0.47980  0.05940  0.32810  Biso   1.000  H
  H36      1.0000 0.52020  0.55940  0.17190  Biso   1.000  H
  C73      1.0000 0.04720  0.24930  0.03670  Biso   1.000  C
  C74      1.0000 0.95280  0.74930  0.46330  Biso   1.000  C
  C75      1.0000 0.95280  0.75070  0.96330  Biso   1.000  C
  C76      1.0000 0.04720  0.25070  0.53670  Biso   1.000  C
  H37      1.0000 0.07990  0.21970  0.09600  Biso   1.000  H
  H38      1.0000 0.92010  0.71970  0.40400  Biso   1.000  H
  H39      1.0000 0.92010  0.78030  0.90400  Biso   1.000  H
  H40      1.0000 0.07990  0.28030  0.59600  Biso   1.000  H
  C77      1.0000 0.62260  0.86520  0.09970  Biso   1.000  C
  C78      1.0000 0.37740  0.36520  0.40030  Biso   1.000  C
  C79      1.0000 0.37740  0.13480  0.90030  Biso   1.000  C
  C80      1.0000 0.62260  0.63480  0.59970  Biso   1.000  C
  H41      1.0000 0.59660  0.95040  0.10320  Biso   1.000  H
  H42      1.0000 0.40340  0.45040  0.39680  Biso   1.000  H
  H43      1.0000 0.40340  0.04960  0.89680  Biso   1.000  H
  H44      1.0000 0.59660  0.54960  0.60320  Biso   1.000  H
  C81      1.0000 0.56300  0.87760  0.82350  Biso   1.000  C
  C82      1.0000 0.43700  0.37760  0.67650  Biso   1.000  C
  C83      1.0000 0.43700  0.12240  0.17650  Biso   1.000  C
  C84      1.0000 0.56300  0.62240  0.32350  Biso   1.000  C
  H45      1.0000 0.60710  0.91840  0.82230  Biso   1.000  H
  H46      1.0000 0.39290  0.41840  0.67770  Biso   1.000  H
  H47      1.0000 0.39290  0.08160  0.17770  Biso   1.000  H
  H48      1.0000 0.60710  0.58160  0.32230  Biso   1.000  H
  C85      1.0000 0.67580  0.83010  0.18360  Biso   1.000  C
  C86      1.0000 0.32420  0.33010  0.31640  Biso   1.000  C
  C87      1.0000 0.32420  0.16990  0.81640  Biso   1.000  C
  C88      1.0000 0.67580  0.66990  0.68360  Biso   1.000  C
  H49      1.0000 0.68570  0.89160  0.24380  Biso   1.000  H
  H50      1.0000 0.31430  0.39160  0.25620  Biso   1.000  H
  H51      1.0000 0.31430  0.10840  0.75620  Biso   1.000  H
  H52      1.0000 0.68570  0.60840  0.74380  Biso   1.000  H
  N9       1.0000 0.74646  0.42650  0.48430  Biso   1.000  N
  N10      1.0000 0.25354  0.92650  0.01570  Biso   1.000  N
  N11      1.0000 0.25354  0.57350  0.51570  Biso   1.000  N
  N12      1.0000 0.74646  0.07350  0.98430  Biso   1.000  N
  H53      1.0000 0.72180  0.35240  0.45810  Biso   1.000  H
  H54      1.0000 0.27820  0.85240  0.04190  Biso   1.000  H
  H55      1.0000 0.27820  0.64760  0.54190  Biso   1.000  H
  H56      1.0000 0.72180  0.14760  0.95810  Biso   1.000  H
  H57      1.0000 0.74040  0.51040  0.45260  Biso   1.000  H
  H58      1.0000 0.25960  0.01040  0.04740  Biso   1.000  H
  H59      1.0000 0.25960  0.48960  0.54740  Biso   1.000  H
  H60      1.0000 0.74040  0.98960  0.95260  Biso   1.000  H
  N13      1.0000 0.76736  0.66470  0.26180  Biso   1.000  N
  N14      1.0000 0.23264  0.16470  0.23820  Biso   1.000  N
  N15      1.0000 0.23264  0.33530  0.73820  Biso   1.000  N
  N16      1.0000 0.76736  0.83530  0.76180  Biso   1.000  N
  H61      1.0000 0.78990  0.58380  0.25830  Biso   1.000  H
  H62      1.0000 0.21010  0.08380  0.24170  Biso   1.000  H
  H63      1.0000 0.21010  0.41620  0.74170  Biso   1.000  H
  H64      1.0000 0.78990  0.91620  0.75830  Biso   1.000  H
  H65      1.0000 0.77780  0.72120  0.31730  Biso   1.000  H
  H66      1.0000 0.22220  0.22120  0.18270  Biso   1.000  H
  H67      1.0000 0.22220  0.27880  0.68270  Biso   1.000  H
  H68      1.0000 0.77780  0.77880  0.81730  Biso   1.000  H
  C89      1.0000 0.88730  0.50970  0.71030  Biso   1.000  C
  C90      1.0000 0.11270  0.00970  0.78970  Biso   1.000  C
  C91      1.0000 0.11270  0.49030  0.28970  Biso   1.000  C
  C92      1.0000 0.88730  0.99030  0.21030  Biso   1.000  C
  H69      1.0000 0.91530  0.58740  0.73990  Biso   1.000  H
  H70      1.0000 0.08470  0.08740  0.76010  Biso   1.000  H
  H71      1.0000 0.08470  0.41260  0.26010  Biso   1.000  H
  H72      1.0000 0.91530  0.91260  0.23990  Biso   1.000  H
  C93      1.0000 0.83830  0.53210  0.61860  Biso   1.000  C
  C94      1.0000 0.16170  0.03210  0.88140  Biso   1.000  C
  C95      1.0000 0.16170  0.46790  0.38140  Biso   1.000  C
  C96      1.0000 0.83830  0.96790  0.11860  Biso   1.000  C
  H73      1.0000 0.83330  0.62340  0.58510  Biso   1.000  H
  H74      1.0000 0.16670  0.12340  0.91490  Biso   1.000  H
  H75      1.0000 0.16670  0.37660  0.41490  Biso   1.000  H
  H76      1.0000 0.83330  0.87660  0.08510  Biso   1.000  H
  H77      1.0000 0.23050  0.55070  0.12580  Biso   1.000  H
  H78      1.0000 0.76950  0.05070  0.37420  Biso   1.000  H
  H79      1.0000 0.76950  0.44930  0.87420  Biso   1.000  H
  H80      1.0000 0.23050  0.94930  0.62580  Biso   1.000  H
