data_image0
_cell_length_a       14.4399
_cell_length_b       14.5184
_cell_length_c       15.3895
_cell_angle_alpha    97.541
_cell_angle_beta     112.786
_cell_angle_gamma    107.054

_symmetry_space_group_name_H-M    "P 1"
_symmetry_int_tables_number       1

loop_
  _symmetry_equiv_pos_as_xyz
  'x, y, z'

loop_
  _atom_site_label
  _atom_site_occupancy
  _atom_site_fract_x
  _atom_site_fract_y
  _atom_site_fract_z
  _atom_site_thermal_displace_type
  _atom_site_B_iso_or_equiv
  _atom_site_type_symbol
  Cu1      1.0000 0.24603  0.86061  0.77503  Biso   1.000  Cu
  Cu2      1.0000 0.75397  0.13939  0.22497  Biso   1.000  Cu
  Cu3      1.0000 0.01576  0.53921  0.61219  Biso   1.000  Cu
  Cu4      1.0000 0.98424  0.46079  0.38781  Biso   1.000  Cu
  Cu5      1.0000 0.91237  0.60216  0.83338  Biso   1.000  Cu
  Cu6      1.0000 0.08763  0.39784  0.16662  Biso   1.000  Cu
  Cu7      1.0000 0.97176  0.90655  0.81527  Biso   1.000  Cu
  Cu8      1.0000 0.02824  0.09345  0.18473  Biso   1.000  Cu
  C1       1.0000 0.43580  0.84400  0.74850  Biso   1.000  C
  C2       1.0000 0.56420  0.15600  0.25150  Biso   1.000  C
  H1       1.0000 0.46780  0.83470  0.81030  Biso   1.000  H
  H2       1.0000 0.53220  0.16530  0.18970  Biso   1.000  H
  C3       1.0000 0.32810  0.87230  0.62760  Biso   1.000  C
  C4       1.0000 0.67190  0.12770  0.37240  Biso   1.000  C
  H3       1.0000 0.27100  0.88650  0.58510  Biso   1.000  H
  H4       1.0000 0.72900  0.11350  0.41490  Biso   1.000  H
  C5       1.0000 0.41330  0.85100  0.51680  Biso   1.000  C
  C6       1.0000 0.58670  0.14900  0.48320  Biso   1.000  C
  H5       1.0000 0.48890  0.87900  0.53040  Biso   1.000  H
  H6       1.0000 0.51110  0.12100  0.46960  Biso   1.000  H
  H7       1.0000 0.37630  0.88930  0.47980  Biso   1.000  H
  H8       1.0000 0.62370  0.11070  0.52020  Biso   1.000  H
  C7       1.0000 0.36340  0.74320  0.45700  Biso   1.000  C
  C8       1.0000 0.63660  0.25680  0.54300  Biso   1.000  C
  H9       1.0000 0.37160  0.73940  0.39710  Biso   1.000  H
  H10      1.0000 0.62840  0.26060  0.60290  Biso   1.000  H
  H11      1.0000 0.40170  0.70550  0.49380  Biso   1.000  H
  H12      1.0000 0.59830  0.29450  0.50620  Biso   1.000  H
  C9       1.0000 0.08450  0.67380  0.36990  Biso   1.000  C
  C10      1.0000 0.91550  0.32620  0.63010  Biso   1.000  C
  H13      1.0000 0.01920  0.68190  0.33820  Biso   1.000  H
  H14      1.0000 0.98080  0.31810  0.66180  Biso   1.000  H
  C11      1.0000 0.19580  0.61160  0.44230  Biso   1.000  C
  C12      1.0000 0.80420  0.38840  0.55770  Biso   1.000  C
  H15      1.0000 0.22820  0.57020  0.47230  Biso   1.000  H
  H16      1.0000 0.77180  0.42980  0.52770  Biso   1.000  H
  C13      1.0000 0.70880  0.59410  0.84710  Biso   1.000  C
  C14      1.0000 0.29120  0.40590  0.15290  Biso   1.000  C
  H17      1.0000 0.67150  0.58290  0.77970  Biso   1.000  H
  H18      1.0000 0.32850  0.41710  0.22030  Biso   1.000  H
  C15      1.0000 0.83580  0.62250  0.98670  Biso   1.000  C
  C16      1.0000 0.16420  0.37750  0.01330  Biso   1.000  C
  H19      1.0000 0.90280  0.63520  0.03850  Biso   1.000  H
  H20      1.0000 0.09720  0.36480  0.96150  Biso   1.000  H
  C17      1.0000 0.72800  0.62650  0.08200  Biso   1.000  C
  C18      1.0000 0.27200  0.37350  0.91800  Biso   1.000  C
  H21      1.0000 0.78690  0.62070  0.13630  Biso   1.000  H
  H22      1.0000 0.21310  0.37930  0.86370  Biso   1.000  H
  H23      1.0000 0.66110  0.57350  0.06930  Biso   1.000  H
  H24      1.0000 0.33890  0.42650  0.93070  Biso   1.000  H
  C19      1.0000 0.72090  0.72720  0.10880  Biso   1.000  C
  C20      1.0000 0.27910  0.27280  0.89120  Biso   1.000  C
  H25      1.0000 0.66710  0.73570  0.05210  Biso   1.000  H
  H26      1.0000 0.33290  0.26430  0.94790  Biso   1.000  H
  H27      1.0000 0.69800  0.72970  0.16030  Biso   1.000  H
  H28      1.0000 0.30200  0.27030  0.83970  Biso   1.000  H
  C21      1.0000 0.98980  0.89090  0.22340  Biso   1.000  C
  C22      1.0000 0.01020  0.10910  0.77660  Biso   1.000  C
  H29      1.0000 0.06290  0.91020  0.26590  Biso   1.000  H
  H30      1.0000 0.93710  0.08980  0.73410  Biso   1.000  H
  C23      1.0000 0.84600  0.89480  0.12250  Biso   1.000  C
  C24      1.0000 0.15400  0.10520  0.87750  Biso   1.000  C
  H31      1.0000 0.79450  0.91410  0.07920  Biso   1.000  H
  H32      1.0000 0.20550  0.08590  0.92080  Biso   1.000  H
  C25      1.0000 0.96590  0.71930  0.51710  Biso   1.000  C
  C26      1.0000 0.03410  0.28070  0.48290  Biso   1.000  C
  C27      1.0000 0.89410  0.61860  0.46441  Biso   1.000  C
  C28      1.0000 0.10590  0.38140  0.53559  Biso   1.000  C
  C29      1.0000 0.79680  0.60640  0.38180  Biso   1.000  C
  C30      1.0000 0.20320  0.39360  0.61820  Biso   1.000  C
  C31      1.0000 0.77270  0.68580  0.35360  Biso   1.000  C
  C32      1.0000 0.22730  0.31420  0.64640  Biso   1.000  C
  H33      1.0000 0.70750  0.67480  0.30030  Biso   1.000  H
  H34      1.0000 0.29250  0.32520  0.69970  Biso   1.000  H
  C33      1.0000 0.84600  0.78130  0.40530  Biso   1.000  C
  C34      1.0000 0.15400  0.21870  0.59470  Biso   1.000  C
  C35      1.0000 0.94200  0.79960  0.48650  Biso   1.000  C
  C36      1.0000 0.05800  0.20040  0.51350  Biso   1.000  C
  H35      1.0000 0.99060  0.86510  0.52070  Biso   1.000  H
  H36      1.0000 0.00940  0.13490  0.47930  Biso   1.000  H
  C37      1.0000 0.07030  0.74580  0.60630  Biso   1.000  C
  C38      1.0000 0.92970  0.25420  0.39370  Biso   1.000  C
  C39      1.0000 0.15750  0.59700  0.91070  Biso   1.000  C
  C40      1.0000 0.84250  0.40300  0.08930  Biso   1.000  C
  C41      1.0000 0.11450  0.60830  0.97860  Biso   1.000  C
  C42      1.0000 0.88550  0.39170  0.02140  Biso   1.000  C
  C43      1.0000 0.18750  0.62690  0.07930  Biso   1.000  C
  C44      1.0000 0.81250  0.37310  0.92070  Biso   1.000  C
  C45      1.0000 0.29430  0.63630  0.11040  Biso   1.000  C
  C46      1.0000 0.70570  0.36370  0.88960  Biso   1.000  C
  H37      1.0000 0.33990  0.64870  0.17650  Biso   1.000  H
  H38      1.0000 0.66010  0.35130  0.82350  Biso   1.000  H
  C47      1.0000 0.33130  0.62680  0.04150  Biso   1.000  C
  C48      1.0000 0.66870  0.37320  0.95850  Biso   1.000  C
  C49      1.0000 0.26510  0.60640  0.94260  Biso   1.000  C
  C50      1.0000 0.73490  0.39360  0.05740  Biso   1.000  C
  H39      1.0000 0.29220  0.59900  0.89740  Biso   1.000  H
  H40      1.0000 0.70780  0.40100  0.10260  Biso   1.000  H
  C51      1.0000 0.08960  0.57490  0.80310  Biso   1.000  C
  C52      1.0000 0.91040  0.42510  0.19690  Biso   1.000  C
  C53      1.0000 0.76300  0.72420  0.62590  Biso   1.000  C
  C54      1.0000 0.23700  0.27580  0.37410  Biso   1.000  C
  C55      1.0000 0.78430  0.82620  0.62350  Biso   1.000  C
  C56      1.0000 0.21570  0.17380  0.37650  Biso   1.000  C
  C57      1.0000 0.70900  0.84000  0.53750  Biso   1.000  C
  C58      1.0000 0.29100  0.16000  0.46250  Biso   1.000  C
  C59      1.0000 0.62110  0.76290  0.46410  Biso   1.000  C
  C60      1.0000 0.37890  0.23710  0.53590  Biso   1.000  C
  H41      1.0000 0.57270  0.77560  0.41080  Biso   1.000  H
  H42      1.0000 0.42730  0.22440  0.58920  Biso   1.000  H
  C61      1.0000 0.60520  0.66670  0.47010  Biso   1.000  C
  C62      1.0000 0.39480  0.33330  0.52990  Biso   1.000  C
  C63      1.0000 0.67500  0.64620  0.54950  Biso   1.000  C
  C64      1.0000 0.32500  0.35380  0.45050  Biso   1.000  C
  H43      1.0000 0.66300  0.58020  0.55170  Biso   1.000  H
  H44      1.0000 0.33700  0.41980  0.44830  Biso   1.000  H
  C65      1.0000 0.83070  0.69710  0.71130  Biso   1.000  C
  C66      1.0000 0.16930  0.30290  0.28870  Biso   1.000  C
  C67      1.0000 0.26420  0.88840  0.99740  Biso   1.000  C
  C68      1.0000 0.73580  0.11160  0.00260  Biso   1.000  C
  C69      1.0000 0.35330  0.88020  0.98140  Biso   1.000  C
  C70      1.0000 0.64670  0.11980  0.01860  Biso   1.000  C
  C71      1.0000 0.44540  0.88740  0.06850  Biso   1.000  C
  C72      1.0000 0.55460  0.11260  0.93150  Biso   1.000  C
  C73      1.0000 0.44700  0.89620  0.15860  Biso   1.000  C
  C74      1.0000 0.55300  0.10380  0.84140  Biso   1.000  C
  H45      1.0000 0.50780  0.89930  0.21260  Biso   1.000  H
  H46      1.0000 0.49220  0.10070  0.78740  Biso   1.000  H
  C75      1.0000 0.35840  0.90050  0.16820  Biso   1.000  C
  C76      1.0000 0.64160  0.09950  0.83180  Biso   1.000  C
  C77      1.0000 0.26750  0.89780  0.08880  Biso   1.000  C
  C78      1.0000 0.73250  0.10220  0.91120  Biso   1.000  C
  H47      1.0000 0.20860  0.90240  0.09740  Biso   1.000  H
  H48      1.0000 0.79140  0.09760  0.90260  Biso   1.000  H
  C79      1.0000 0.16500  0.88830  0.91620  Biso   1.000  C
  C80      1.0000 0.83500  0.11170  0.08380  Biso   1.000  C
  N1       1.0000 0.34350  0.86270  0.71578  Biso   1.000  N
  N2       1.0000 0.65650  0.13730  0.28422  Biso   1.000  N
  N3       1.0000 0.47600  0.84010  0.68630  Biso   1.000  N
  N4       1.0000 0.52400  0.15990  0.31370  Biso   1.000  N
  N5       1.0000 0.40550  0.85890  0.60843  Biso   1.000  N
  N6       1.0000 0.59450  0.14110  0.39157  Biso   1.000  N
  N7       1.0000 0.24810  0.69760  0.43197  Biso   1.000  N
  N8       1.0000 0.75190  0.30240  0.56803  Biso   1.000  N
  N9       1.0000 0.17750  0.73940  0.38520  Biso   1.000  N
  N10      1.0000 0.82250  0.26060  0.61480  Biso   1.000  N
  N11      1.0000 0.09040  0.59303  0.40378  Biso   1.000  N
  N12      1.0000 0.90960  0.40697  0.59622  Biso   1.000  N
  N13      1.0000 0.81597  0.60885  0.89368  Biso   1.000  N
  N14      1.0000 0.18403  0.39115  0.10632  Biso   1.000  N
  N15      1.0000 0.66340  0.59710  0.90530  Biso   1.000  N
  N16      1.0000 0.33660  0.40290  0.09470  Biso   1.000  N
  N17      1.0000 0.74616  0.61533  0.99538  Biso   1.000  N
  N18      1.0000 0.25384  0.38467  0.00462  Biso   1.000  N
  N19      1.0000 0.82525  0.80875  0.14240  Biso   1.000  N
  N20      1.0000 0.17475  0.19125  0.85760  Biso   1.000  N
  N21      1.0000 0.91780  0.80350  0.20870  Biso   1.000  N
  N22      1.0000 0.08220  0.19650  0.79130  Biso   1.000  N
  N23      1.0000 0.95097  0.95116  0.17269  Biso   1.000  N
  N24      1.0000 0.04903  0.04884  0.82731  Biso   1.000  N
  N25      1.0000 0.71510  0.50650  0.32200  Biso   1.000  N
  N26      1.0000 0.28490  0.49350  0.67800  Biso   1.000  N
  N27      1.0000 0.82320  0.86600  0.37330  Biso   1.000  N
  N28      1.0000 0.17680  0.13400  0.62670  Biso   1.000  N
  N29      1.0000 0.14860  0.63250  0.15304  Biso   1.000  N
  N30      1.0000 0.85140  0.36750  0.84696  Biso   1.000  N
  N31      1.0000 0.44410  0.63690  0.07410  Biso   1.000  N
  N32      1.0000 0.55590  0.36310  0.92590  Biso   1.000  N
  N33      1.0000 0.72420  0.94020  0.52510  Biso   1.000  N
  N34      1.0000 0.27580  0.05980  0.47490  Biso   1.000  N
  N35      1.0000 0.51190  0.58370  0.39233  Biso   1.000  N
  N36      1.0000 0.48810  0.41630  0.60767  Biso   1.000  N
  N37      1.0000 0.54510  0.88670  0.06300  Biso   1.000  N
  N38      1.0000 0.45490  0.11330  0.93700  Biso   1.000  N
  N39      1.0000 0.35800  0.90890  0.26370  Biso   1.000  N
  N40      1.0000 0.64200  0.09110  0.73630  Biso   1.000  N
  O1       1.0000 0.12814  0.83766  0.64670  Biso   1.000  O
  O2       1.0000 0.87186  0.16234  0.35330  Biso   1.000  O
  O3       1.0000 0.09991  0.67966  0.64151  Biso   1.000  O
  O4       1.0000 0.90009  0.32034  0.35849  Biso   1.000  O
  O5       1.0000 0.91448  0.54042  0.48517  Biso   1.000  O
  O6       1.0000 0.08552  0.45958  0.51483  Biso   1.000  O
  O7       1.0000 0.70110  0.43940  0.36010  Biso   1.000  O
  O8       1.0000 0.29890  0.56060  0.63990  Biso   1.000  O
  O9       1.0000 0.66416  0.49530  0.23433  Biso   1.000  O
  O10      1.0000 0.33584  0.50470  0.76567  Biso   1.000  O
  O11      1.0000 0.72930  0.85120  0.31907  Biso   1.000  O
  O12      1.0000 0.27070  0.14880  0.68093  Biso   1.000  O
  O13      1.0000 0.89860  0.94580  0.40110  Biso   1.000  O
  O14      1.0000 0.10140  0.05420  0.59890  Biso   1.000  O
  O15      1.0000 0.12066  0.54215  0.74409  Biso   1.000  O
  O16      1.0000 0.87934  0.45785  0.25591  Biso   1.000  O
  O17      1.0000 0.00157  0.59010  0.77116  Biso   1.000  O
  O18      1.0000 0.99843  0.40990  0.22884  Biso   1.000  O
  O19      1.0000 0.01586  0.59977  0.95518  Biso   1.000  O
  O20      1.0000 0.98414  0.40023  0.04482  Biso   1.000  O
  O21      1.0000 0.08090  0.66850  0.14630  Biso   1.000  O
  O22      1.0000 0.91910  0.33150  0.85370  Biso   1.000  O
  O23      1.0000 0.18300  0.59494  0.22004  Biso   1.000  O
  O24      1.0000 0.81700  0.40506  0.77996  Biso   1.000  O
  O25      1.0000 0.50575  0.67130  0.16200  Biso   1.000  O
  O26      1.0000 0.49425  0.32870  0.83800  Biso   1.000  O
  O27      1.0000 0.47108  0.60900  0.01290  Biso   1.000  O
  O28      1.0000 0.52892  0.39100  0.98710  Biso   1.000  O
  O29      1.0000 0.80697  0.60580  0.70730  Biso   1.000  O
  O30      1.0000 0.19303  0.39420  0.29270  Biso   1.000  O
  O31      1.0000 0.90952  0.76255  0.78684  Biso   1.000  O
  O32      1.0000 0.09048  0.23745  0.21316  Biso   1.000  O
  O33      1.0000 0.86205  0.90237  0.69202  Biso   1.000  O
  O34      1.0000 0.13795  0.09763  0.30798  Biso   1.000  O
  O35      1.0000 0.81580  0.00040  0.55170  Biso   1.000  O
  O36      1.0000 0.18420  0.99960  0.44830  Biso   1.000  O
  O37      1.0000 0.64480  0.95800  0.48390  Biso   1.000  O
  O38      1.0000 0.35520  0.04200  0.51610  Biso   1.000  O
  O39      1.0000 0.44242  0.60390  0.33137  Biso   1.000  O
  O40      1.0000 0.55758  0.39610  0.66863  Biso   1.000  O
  O41      1.0000 0.50670  0.49840  0.39161  Biso   1.000  O
  O42      1.0000 0.49330  0.50160  0.60839  Biso   1.000  O
  O43      1.0000 0.15034  0.87116  0.82859  Biso   1.000  O
  O44      1.0000 0.84966  0.12884  0.17141  Biso   1.000  O
  O45      1.0000 0.09567  0.90889  0.93733  Biso   1.000  O
  O46      1.0000 0.90433  0.09111  0.06267  Biso   1.000  O
  O47      1.0000 0.35634  0.87122  0.89948  Biso   1.000  O
  O48      1.0000 0.64366  0.12878  0.10052  Biso   1.000  O
  O49      1.0000 0.53000  0.82800  0.98900  Biso   1.000  O
  O50      1.0000 0.47000  0.17200  0.01100  Biso   1.000  O
  O51      1.0000 0.62952  0.92310  0.13790  Biso   1.000  O
  O52      1.0000 0.37048  0.07690  0.86210  Biso   1.000  O
  O53      1.0000 0.42930  0.89580  0.32778  Biso   1.000  O
  O54      1.0000 0.57070  0.10420  0.67222  Biso   1.000  O
  O55      1.0000 0.29100  0.94360  0.27600  Biso   1.000  O
  O56      1.0000 0.70900  0.05640  0.72400  Biso   1.000  O
  O57      1.0000 0.88719  0.93240  0.90739  Biso   1.000  O
  O58      1.0000 0.11281  0.06760  0.09261  Biso   1.000  O
  H49      1.0000 0.81800  0.89620  0.87610  Biso   1.000  H
  H50      1.0000 0.18200  0.10380  0.12390  Biso   1.000  H
  H51      1.0000 0.89990  0.98770  0.94220  Biso   1.000  H
  H52      1.0000 0.10010  0.01230  0.05780  Biso   1.000  H
  O59      1.0000 0.12600  0.71100  0.15500  Biso   1.000  O
  O60      1.0000 0.87400  0.28900  0.84500  Biso   1.000  O
  O61      1.0000 0.55710  0.88600  0.98920  Biso   1.000  O
  O62      1.0000 0.44290  0.11400  0.01080  Biso   1.000  O
  O63      1.0000 0.27700  0.88580  0.26900  Biso   1.000  O
  O64      1.0000 0.72300  0.11420  0.73100  Biso   1.000  O
  O65      1.0000 0.67380  0.81190  0.80670  Biso   1.000  O
  O66      1.0000 0.32620  0.18810  0.19330  Biso   1.000  O
  O67      1.0000 0.51770  0.68990  0.82270  Biso   1.000  O
  O68      1.0000 0.48230  0.31010  0.17730  Biso   1.000  O
