data_image0
_cell_length_a       13.347
_cell_length_b       15.344
_cell_length_c       17.93
_cell_angle_alpha    90
_cell_angle_beta     93.316
_cell_angle_gamma    90

_symmetry_space_group_name_H-M    "P 1"
_symmetry_int_tables_number       1

loop_
  _symmetry_equiv_pos_as_xyz
  'x, y, z'

loop_
  _atom_site_label
  _atom_site_occupancy
  _atom_site_fract_x
  _atom_site_fract_y
  _atom_site_fract_z
  _atom_site_thermal_displace_type
  _atom_site_B_iso_or_equiv
  _atom_site_type_symbol
  Gd1      1.0000 0.16316  0.55595  0.77724  Biso   1.000  Gd
  Gd2      1.0000 0.33684  0.05595  0.72276  Biso   1.000  Gd
  Gd3      1.0000 0.83684  0.44405  0.22276  Biso   1.000  Gd
  Gd4      1.0000 0.66316  0.94405  0.27724  Biso   1.000  Gd
  Cu1      1.0000 0.39567  0.87310  0.62113  Biso   1.000  Cu
  Cu2      1.0000 0.10433  0.37310  0.87887  Biso   1.000  Cu
  Cu3      1.0000 0.60433  0.12690  0.37887  Biso   1.000  Cu
  Cu4      1.0000 0.89567  0.62690  0.12113  Biso   1.000  Cu
  S1       1.0000 0.31364  0.46989  0.53046  Biso   1.000  S
  S2       1.0000 0.18636  0.96989  0.96954  Biso   1.000  S
  S3       1.0000 0.68636  0.53011  0.46954  Biso   1.000  S
  S4       1.0000 0.81364  0.03011  0.03046  Biso   1.000  S
  S5       1.0000 0.81068  0.69087  0.76251  Biso   1.000  S
  S6       1.0000 0.68932  0.19087  0.73749  Biso   1.000  S
  S7       1.0000 0.18932  0.30913  0.23749  Biso   1.000  S
  S8       1.0000 0.31068  0.80913  0.26251  Biso   1.000  S
  S9       1.0000 0.19437  0.83687  0.62170  Biso   1.000  S
  S10      1.0000 0.30563  0.33687  0.87830  Biso   1.000  S
  S11      1.0000 0.80563  0.16313  0.37830  Biso   1.000  S
  S12      1.0000 0.69437  0.66313  0.12170  Biso   1.000  S
  N1       1.0000 0.10190  0.34810  0.98670  Biso   1.000  N
  N2       1.0000 0.39810  0.84810  0.51330  Biso   1.000  N
  N3       1.0000 0.89810  0.65190  0.01330  Biso   1.000  N
  N4       1.0000 0.60190  0.15190  0.48670  Biso   1.000  N
  N5       1.0000 0.05630  0.25780  0.84440  Biso   1.000  N
  N6       1.0000 0.44370  0.75780  0.65560  Biso   1.000  N
  N7       1.0000 0.94370  0.74220  0.15560  Biso   1.000  N
  N8       1.0000 0.55630  0.24220  0.34440  Biso   1.000  N
  N9       1.0000 0.25650  0.49580  0.67520  Biso   1.000  N
  N10      1.0000 0.24350  0.99580  0.82480  Biso   1.000  N
  N11      1.0000 0.74350  0.50420  0.32480  Biso   1.000  N
  N12      1.0000 0.75650  0.00420  0.17520  Biso   1.000  N
  N13      1.0000 0.00210  0.62630  0.79250  Biso   1.000  N
  N14      1.0000 0.49790  0.12630  0.70750  Biso   1.000  N
  N15      1.0000 0.99790  0.37370  0.20750  Biso   1.000  N
  N16      1.0000 0.50210  0.87370  0.29250  Biso   1.000  N
  N17      1.0000 0.19340  0.68950  0.71130  Biso   1.000  N
  N18      1.0000 0.30660  0.18950  0.78870  Biso   1.000  N
  N19      1.0000 0.80660  0.31050  0.28870  Biso   1.000  N
  N20      1.0000 0.69340  0.81050  0.21130  Biso   1.000  N
  O1       1.0000 0.13970  0.49559  0.89607  Biso   1.000  O
  O2       1.0000 0.36030  0.99559  0.60393  Biso   1.000  O
  O3       1.0000 0.86030  0.50441  0.10393  Biso   1.000  O
  O4       1.0000 0.63970  0.00441  0.39607  Biso   1.000  O
  O5       1.0000 0.08440  0.42033  0.77724  Biso   1.000  O
  O6       1.0000 0.41560  0.92033  0.72276  Biso   1.000  O
  O7       1.0000 0.91560  0.57967  0.22276  Biso   1.000  O
  O8       1.0000 0.58440  0.07967  0.27724  Biso   1.000  O
  O9       1.0000 0.18980  0.65890  0.88963  Biso   1.000  O
  O10      1.0000 0.31020  0.15890  0.61037  Biso   1.000  O
  O11      1.0000 0.81020  0.34110  0.11037  Biso   1.000  O
  O12      1.0000 0.68980  0.84110  0.38963  Biso   1.000  O
  O13      1.0000 0.04300  0.52490  0.66436  Biso   1.000  O
  O14      1.0000 0.45700  0.02490  0.83564  Biso   1.000  O
  O15      1.0000 0.95700  0.47510  0.33564  Biso   1.000  O
  O16      1.0000 0.54300  0.97510  0.16436  Biso   1.000  O
  O17      1.0000 0.33540  0.55350  0.82010  Biso   1.000  O
  O18      1.0000 0.16460  0.05350  0.67990  Biso   1.000  O
  O19      1.0000 0.66460  0.44650  0.17990  Biso   1.000  O
  O20      1.0000 0.83540  0.94650  0.32010  Biso   1.000  O
  H1       1.0000 0.34900  0.54600  0.86600  Biso   1.000  H
  H2       1.0000 0.15100  0.04600  0.63400  Biso   1.000  H
  H3       1.0000 0.65100  0.45400  0.13400  Biso   1.000  H
  H4       1.0000 0.84900  0.95400  0.36600  Biso   1.000  H
  H5       1.0000 0.37900  0.53600  0.79300  Biso   1.000  H
  H6       1.0000 0.12100  0.03600  0.70700  Biso   1.000  H
  H7       1.0000 0.62100  0.46400  0.20700  Biso   1.000  H
  H8       1.0000 0.87900  0.96400  0.29300  Biso   1.000  H
  C1       1.0000 0.10680  0.40740  0.03650  Biso   1.000  C
  C2       1.0000 0.39320  0.90740  0.46350  Biso   1.000  C
  C3       1.0000 0.89320  0.59260  0.96350  Biso   1.000  C
  C4       1.0000 0.60680  0.09260  0.53650  Biso   1.000  C
  H9       1.0000 0.09700  0.38820  0.08590  Biso   1.000  H
  H10      1.0000 0.40300  0.88820  0.41410  Biso   1.000  H
  H11      1.0000 0.90300  0.61180  0.91410  Biso   1.000  H
  H12      1.0000 0.59700  0.11180  0.58590  Biso   1.000  H
  C5       1.0000 0.12490  0.49960  0.02890  Biso   1.000  C
  C6       1.0000 0.37510  0.99960  0.47110  Biso   1.000  C
  C7       1.0000 0.87510  0.50040  0.97110  Biso   1.000  C
  C8       1.0000 0.62490  0.00040  0.52890  Biso   1.000  C
  C9       1.0000 0.13120  0.55050  0.09400  Biso   1.000  C
  C10      1.0000 0.36880  0.05050  0.40600  Biso   1.000  C
  C11      1.0000 0.86880  0.44950  0.90600  Biso   1.000  C
  C12      1.0000 0.63120  0.94950  0.59400  Biso   1.000  C
  H13      1.0000 0.11630  0.52480  0.14030  Biso   1.000  H
  H14      1.0000 0.38370  0.02480  0.35970  Biso   1.000  H
  H15      1.0000 0.88370  0.47520  0.85970  Biso   1.000  H
  H16      1.0000 0.61630  0.97520  0.64030  Biso   1.000  H
  C13      1.0000 0.15830  0.63590  0.09210  Biso   1.000  C
  C14      1.0000 0.34170  0.13590  0.40790  Biso   1.000  C
  C15      1.0000 0.84170  0.36410  0.90790  Biso   1.000  C
  C16      1.0000 0.65830  0.86410  0.59210  Biso   1.000  C
  H17      1.0000 0.16290  0.66900  0.13690  Biso   1.000  H
  H18      1.0000 0.33710  0.16900  0.36310  Biso   1.000  H
  H19      1.0000 0.83710  0.33100  0.86310  Biso   1.000  H
  H20      1.0000 0.66290  0.83100  0.63690  Biso   1.000  H
  C17      1.0000 0.17960  0.67520  0.02430  Biso   1.000  C
  C18      1.0000 0.32040  0.17520  0.47570  Biso   1.000  C
  C19      1.0000 0.82040  0.32480  0.97570  Biso   1.000  C
  C20      1.0000 0.67960  0.82480  0.52430  Biso   1.000  C
  H21      1.0000 0.19970  0.73450  0.02320  Biso   1.000  H
  H22      1.0000 0.30030  0.23450  0.47680  Biso   1.000  H
  H23      1.0000 0.80030  0.26550  0.97680  Biso   1.000  H
  H24      1.0000 0.69970  0.76550  0.52320  Biso   1.000  H
  C21      1.0000 0.17120  0.62770  0.95960  Biso   1.000  C
  C22      1.0000 0.32880  0.12770  0.54040  Biso   1.000  C
  C23      1.0000 0.82880  0.37230  0.04040  Biso   1.000  C
  C24      1.0000 0.67120  0.87230  0.45960  Biso   1.000  C
  C25      1.0000 0.14390  0.53840  0.96010  Biso   1.000  C
  C26      1.0000 0.35610  0.03840  0.53990  Biso   1.000  C
  C27      1.0000 0.85610  0.46160  0.03990  Biso   1.000  C
  C28      1.0000 0.64390  0.96160  0.46010  Biso   1.000  C
  C29      1.0000 0.99130  0.44610  0.66380  Biso   1.000  C
  C30      1.0000 0.50870  0.94610  0.83620  Biso   1.000  C
  C31      1.0000 0.00870  0.55390  0.33620  Biso   1.000  C
  C32      1.0000 0.49130  0.05390  0.16380  Biso   1.000  C
  C33      1.0000 0.92030  0.42140  0.60910  Biso   1.000  C
  C34      1.0000 0.57970  0.92140  0.89090  Biso   1.000  C
  C35      1.0000 0.07970  0.57860  0.39090  Biso   1.000  C
  C36      1.0000 0.42030  0.07860  0.10910  Biso   1.000  C
  H25      1.0000 0.90060  0.46030  0.56970  Biso   1.000  H
  H26      1.0000 0.59940  0.96030  0.93030  Biso   1.000  H
  H27      1.0000 0.09940  0.53970  0.43030  Biso   1.000  H
  H28      1.0000 0.40060  0.03970  0.06970  Biso   1.000  H
  C37      1.0000 0.87760  0.33890  0.61210  Biso   1.000  C
  C38      1.0000 0.62240  0.83890  0.88790  Biso   1.000  C
  C39      1.0000 0.12240  0.66110  0.38790  Biso   1.000  C
  C40      1.0000 0.37760  0.16110  0.11210  Biso   1.000  C
  H29      1.0000 0.82910  0.32120  0.57440  Biso   1.000  H
  H30      1.0000 0.67090  0.82120  0.92560  Biso   1.000  H
  H31      1.0000 0.17090  0.67880  0.42560  Biso   1.000  H
  H32      1.0000 0.32910  0.17880  0.07440  Biso   1.000  H
  C41      1.0000 0.90500  0.28350  0.66890  Biso   1.000  C
  C42      1.0000 0.59500  0.78350  0.83110  Biso   1.000  C
  C43      1.0000 0.09500  0.71650  0.33110  Biso   1.000  C
  C44      1.0000 0.40500  0.21650  0.16890  Biso   1.000  C
  H33      1.0000 0.87630  0.22690  0.66950  Biso   1.000  H
  H34      1.0000 0.62370  0.72690  0.83050  Biso   1.000  H
  H35      1.0000 0.12370  0.77310  0.33050  Biso   1.000  H
  H36      1.0000 0.37630  0.27310  0.16950  Biso   1.000  H
  C45      1.0000 0.97510  0.30840  0.72650  Biso   1.000  C
  C46      1.0000 0.52490  0.80840  0.77350  Biso   1.000  C
  C47      1.0000 0.02490  0.69160  0.27350  Biso   1.000  C
  C48      1.0000 0.47510  0.19160  0.22650  Biso   1.000  C
  C49      1.0000 0.01800  0.39130  0.72480  Biso   1.000  C
  C50      1.0000 0.48200  0.89130  0.77520  Biso   1.000  C
  C51      1.0000 0.98200  0.60870  0.27520  Biso   1.000  C
  C52      1.0000 0.51800  0.10870  0.22480  Biso   1.000  C
  C53      1.0000 0.00390  0.24530  0.78370  Biso   1.000  C
  C54      1.0000 0.49610  0.74530  0.71630  Biso   1.000  C
  C55      1.0000 0.99610  0.75470  0.21630  Biso   1.000  C
  C56      1.0000 0.50390  0.25470  0.28370  Biso   1.000  C
  H37      1.0000 0.98080  0.18750  0.77490  Biso   1.000  H
  H38      1.0000 0.51920  0.68750  0.72510  Biso   1.000  H
  H39      1.0000 0.01920  0.81250  0.22510  Biso   1.000  H
  H40      1.0000 0.48080  0.31250  0.27490  Biso   1.000  H
  C57      1.0000 0.07800  0.18060  0.89220  Biso   1.000  C
  C58      1.0000 0.42200  0.68060  0.60780  Biso   1.000  C
  C59      1.0000 0.92200  0.81940  0.10780  Biso   1.000  C
  C60      1.0000 0.57800  0.31940  0.39220  Biso   1.000  C
  H41      1.0000 0.15120  0.16990  0.89600  Biso   1.000  H
  H42      1.0000 0.34880  0.66990  0.60400  Biso   1.000  H
  H43      1.0000 0.84880  0.83010  0.10400  Biso   1.000  H
  H44      1.0000 0.65120  0.33010  0.39600  Biso   1.000  H
  H45      1.0000 0.04500  0.12880  0.86890  Biso   1.000  H
  H46      1.0000 0.45500  0.62880  0.63110  Biso   1.000  H
  H47      1.0000 0.95500  0.87120  0.13110  Biso   1.000  H
  H48      1.0000 0.54500  0.37120  0.36890  Biso   1.000  H
  C61      1.0000 0.04180  0.19320  0.96810  Biso   1.000  C
  C62      1.0000 0.45820  0.69320  0.53190  Biso   1.000  C
  C63      1.0000 0.95820  0.80680  0.03190  Biso   1.000  C
  C64      1.0000 0.54180  0.30680  0.46810  Biso   1.000  C
  H49      1.0000 0.04380  0.13640  0.99430  Biso   1.000  H
  H50      1.0000 0.45620  0.63640  0.50570  Biso   1.000  H
  H51      1.0000 0.95620  0.86360  0.00570  Biso   1.000  H
  H52      1.0000 0.54380  0.36360  0.49430  Biso   1.000  H
  H53      1.0000 0.97090  0.21230  0.96330  Biso   1.000  H
  H54      1.0000 0.52910  0.71230  0.53670  Biso   1.000  H
  H55      1.0000 0.02910  0.78770  0.03670  Biso   1.000  H
  H56      1.0000 0.47090  0.28770  0.46330  Biso   1.000  H
  C65      1.0000 0.10040  0.25810  0.01530  Biso   1.000  C
  C66      1.0000 0.39960  0.75810  0.48470  Biso   1.000  C
  C67      1.0000 0.89960  0.74190  0.98470  Biso   1.000  C
  C68      1.0000 0.60040  0.24190  0.51530  Biso   1.000  C
  H57      1.0000 0.07260  0.25910  0.06530  Biso   1.000  H
  H58      1.0000 0.42740  0.75910  0.43470  Biso   1.000  H
  H59      1.0000 0.92740  0.74090  0.93470  Biso   1.000  H
  H60      1.0000 0.57260  0.24090  0.56530  Biso   1.000  H
  H61      1.0000 0.17060  0.23720  0.02190  Biso   1.000  H
  H62      1.0000 0.32940  0.73720  0.47810  Biso   1.000  H
  H63      1.0000 0.82940  0.76280  0.97810  Biso   1.000  H
  H64      1.0000 0.67060  0.26280  0.52190  Biso   1.000  H
  C69      1.0000 0.22110  0.74990  0.88390  Biso   1.000  C
  C70      1.0000 0.27890  0.24990  0.61610  Biso   1.000  C
  C71      1.0000 0.77890  0.25010  0.11610  Biso   1.000  C
  C72      1.0000 0.72110  0.75010  0.38390  Biso   1.000  C
  H65      1.0000 0.18310  0.78590  0.91830  Biso   1.000  H
  H66      1.0000 0.31690  0.28590  0.58170  Biso   1.000  H
  H67      1.0000 0.81690  0.21410  0.08170  Biso   1.000  H
  H68      1.0000 0.68310  0.71410  0.41830  Biso   1.000  H
  H69      1.0000 0.20510  0.77100  0.83240  Biso   1.000  H
  H70      1.0000 0.29490  0.27100  0.66760  Biso   1.000  H
  H71      1.0000 0.79490  0.22900  0.16760  Biso   1.000  H
  H72      1.0000 0.70510  0.72900  0.33240  Biso   1.000  H
  C73      1.0000 0.33100  0.76060  0.90270  Biso   1.000  C
  C74      1.0000 0.16900  0.26060  0.59730  Biso   1.000  C
  C75      1.0000 0.66900  0.23940  0.09730  Biso   1.000  C
  C76      1.0000 0.83100  0.73940  0.40270  Biso   1.000  C
  H73      1.0000 0.34650  0.74260  0.95450  Biso   1.000  H
  H74      1.0000 0.15350  0.24260  0.54550  Biso   1.000  H
  H75      1.0000 0.65350  0.25740  0.04550  Biso   1.000  H
  H76      1.0000 0.84650  0.75740  0.45450  Biso   1.000  H
  H77      1.0000 0.34970  0.82180  0.89660  Biso   1.000  H
  H78      1.0000 0.15030  0.32180  0.60340  Biso   1.000  H
  H79      1.0000 0.65030  0.17820  0.10340  Biso   1.000  H
  H80      1.0000 0.84970  0.67820  0.39660  Biso   1.000  H
  H81      1.0000 0.36880  0.72430  0.86920  Biso   1.000  H
  H82      1.0000 0.13120  0.22430  0.63080  Biso   1.000  H
  H83      1.0000 0.63120  0.27570  0.13080  Biso   1.000  H
  H84      1.0000 0.86880  0.77570  0.36920  Biso   1.000  H
  C77      1.0000 0.04570  0.57160  0.59390  Biso   1.000  C
  C78      1.0000 0.45430  0.07160  0.90610  Biso   1.000  C
  C79      1.0000 0.95430  0.42840  0.40610  Biso   1.000  C
  C80      1.0000 0.54570  0.92840  0.09390  Biso   1.000  C
  H85      1.0000 0.03810  0.52950  0.55210  Biso   1.000  H
  H86      1.0000 0.46190  0.02950  0.94790  Biso   1.000  H
  H87      1.0000 0.96190  0.47050  0.44790  Biso   1.000  H
  H88      1.0000 0.53810  0.97050  0.05210  Biso   1.000  H
  H89      1.0000 0.11190  0.60030  0.59120  Biso   1.000  H
  H90      1.0000 0.38810  0.10030  0.90880  Biso   1.000  H
  H91      1.0000 0.88810  0.39970  0.40880  Biso   1.000  H
  H92      1.0000 0.61190  0.89970  0.09120  Biso   1.000  H
  C81      1.0000 0.96480  0.63920  0.58470  Biso   1.000  C
  C82      1.0000 0.53520  0.13920  0.91530  Biso   1.000  C
  C83      1.0000 0.03520  0.36080  0.41530  Biso   1.000  C
  C84      1.0000 0.46480  0.86080  0.08470  Biso   1.000  C
  H93      1.0000 0.89920  0.61130  0.58790  Biso   1.000  H
  H94      1.0000 0.60080  0.11130  0.91210  Biso   1.000  H
  H95      1.0000 0.10080  0.38870  0.41210  Biso   1.000  H
  H96      1.0000 0.39920  0.88870  0.08790  Biso   1.000  H
  H97      1.0000 0.96830  0.66740  0.53590  Biso   1.000  H
  H98      1.0000 0.53170  0.16740  0.96410  Biso   1.000  H
  H99      1.0000 0.03170  0.33260  0.46410  Biso   1.000  H
  H100     1.0000 0.46830  0.83260  0.03590  Biso   1.000  H
  H101     1.0000 0.97420  0.68290  0.62430  Biso   1.000  H
  H102     1.0000 0.52580  0.18290  0.87570  Biso   1.000  H
  H103     1.0000 0.02580  0.31710  0.37570  Biso   1.000  H
  H104     1.0000 0.47420  0.81710  0.12430  Biso   1.000  H
  C85      1.0000 0.28000  0.48490  0.61580  Biso   1.000  C
  C86      1.0000 0.22000  0.98490  0.88420  Biso   1.000  C
  C87      1.0000 0.72000  0.51510  0.38420  Biso   1.000  C
  C88      1.0000 0.78000  0.01510  0.11580  Biso   1.000  C
  C89      1.0000 0.92270  0.65310  0.77800  Biso   1.000  C
  C90      1.0000 0.57730  0.15310  0.72200  Biso   1.000  C
  C91      1.0000 0.07730  0.34690  0.22200  Biso   1.000  C
  C92      1.0000 0.42270  0.84690  0.27800  Biso   1.000  C
  C93      1.0000 0.19440  0.75050  0.67390  Biso   1.000  C
  C94      1.0000 0.30560  0.25050  0.82610  Biso   1.000  C
  C95      1.0000 0.80560  0.24950  0.32610  Biso   1.000  C
  C96      1.0000 0.69440  0.74950  0.17390  Biso   1.000  C
  O21      1.0000 0.51100  0.52410  0.74790  Biso   1.000  O
  O22      1.0000 0.98900  0.02410  0.75210  Biso   1.000  O
  O23      1.0000 0.48900  0.47590  0.25210  Biso   1.000  O
  O24      1.0000 0.01100  0.97590  0.24790  Biso   1.000  O
  C97      1.0000 0.49160  0.37910  0.70440  Biso   1.000  C
  C98      1.0000 0.00840  0.87910  0.79560  Biso   1.000  C
  C99      1.0000 0.50840  0.62090  0.29560  Biso   1.000  C
  C100     1.0000 0.99160  0.12090  0.20440  Biso   1.000  C
  H105     1.0000 0.53450  0.33220  0.72520  Biso   1.000  H
  H106     1.0000 0.96550  0.83220  0.77480  Biso   1.000  H
  H107     1.0000 0.46550  0.66780  0.27480  Biso   1.000  H
  H108     1.0000 0.03450  0.16780  0.22520  Biso   1.000  H
  H109     1.0000 0.47610  0.36830  0.65110  Biso   1.000  H
  H110     1.0000 0.02390  0.86830  0.84890  Biso   1.000  H
  H111     1.0000 0.52390  0.63170  0.34890  Biso   1.000  H
  H112     1.0000 0.97610  0.13170  0.15110  Biso   1.000  H
  H113     1.0000 0.42910  0.38090  0.73050  Biso   1.000  H
  H114     1.0000 0.07090  0.88090  0.76950  Biso   1.000  H
  H115     1.0000 0.57090  0.61910  0.26950  Biso   1.000  H
  H116     1.0000 0.92910  0.11910  0.23050  Biso   1.000  H
  C101     1.0000 0.54420  0.46310  0.71390  Biso   1.000  C
  C102     1.0000 0.95580  0.96310  0.78610  Biso   1.000  C
  C103     1.0000 0.45580  0.53690  0.28610  Biso   1.000  C
  C104     1.0000 0.04420  0.03690  0.21390  Biso   1.000  C
  C105     1.0000 0.64310  0.47110  0.67830  Biso   1.000  C
  C106     1.0000 0.85690  0.97110  0.82170  Biso   1.000  C
  C107     1.0000 0.35690  0.52890  0.32170  Biso   1.000  C
  C108     1.0000 0.14310  0.02890  0.17830  Biso   1.000  C
  H117     1.0000 0.63150  0.47330  0.62390  Biso   1.000  H
  H118     1.0000 0.86850  0.97330  0.87610  Biso   1.000  H
  H119     1.0000 0.36850  0.52670  0.37610  Biso   1.000  H
  H120     1.0000 0.13150  0.02670  0.12390  Biso   1.000  H
  H121     1.0000 0.68520  0.42060  0.69210  Biso   1.000  H
  H122     1.0000 0.81480  0.92060  0.80790  Biso   1.000  H
  H123     1.0000 0.31480  0.57940  0.30790  Biso   1.000  H
  H124     1.0000 0.18520  0.07940  0.19210  Biso   1.000  H
  H125     1.0000 0.67700  0.52460  0.69590  Biso   1.000  H
  H126     1.0000 0.82300  0.02460  0.80410  Biso   1.000  H
  H127     1.0000 0.32300  0.47540  0.30410  Biso   1.000  H
  H128     1.0000 0.17700  0.97540  0.19590  Biso   1.000  H
  O25      1.0000 0.38190  0.52890  0.97040  Biso   1.000  O
  O26      1.0000 0.11810  0.02890  0.52960  Biso   1.000  O
  O27      1.0000 0.61810  0.47110  0.02960  Biso   1.000  O
  O28      1.0000 0.88190  0.97110  0.47040  Biso   1.000  O
  C109     1.0000 0.42270  0.59640  0.08630  Biso   1.000  C
  C110     1.0000 0.07730  0.09640  0.41370  Biso   1.000  C
  C111     1.0000 0.57730  0.40360  0.91370  Biso   1.000  C
  C112     1.0000 0.92270  0.90360  0.58630  Biso   1.000  C
  H129     1.0000 0.49060  0.58710  0.10870  Biso   1.000  H
  H130     1.0000 0.00940  0.08710  0.39130  Biso   1.000  H
  H131     1.0000 0.50940  0.41290  0.89130  Biso   1.000  H
  H132     1.0000 0.99060  0.91290  0.60870  Biso   1.000  H
  H133     1.0000 0.37560  0.60220  0.12600  Biso   1.000  H
  H134     1.0000 0.12440  0.10220  0.37400  Biso   1.000  H
  H135     1.0000 0.62440  0.39780  0.87400  Biso   1.000  H
  H136     1.0000 0.87560  0.89780  0.62600  Biso   1.000  H
  H137     1.0000 0.42140  0.64960  0.05610  Biso   1.000  H
  H138     1.0000 0.07860  0.14960  0.44390  Biso   1.000  H
  H139     1.0000 0.57860  0.35040  0.94390  Biso   1.000  H
  H140     1.0000 0.92140  0.85040  0.55610  Biso   1.000  H
  C113     1.0000 0.39310  0.52110  0.03840  Biso   1.000  C
  C114     1.0000 0.10690  0.02110  0.46160  Biso   1.000  C
  C115     1.0000 0.60690  0.47890  0.96160  Biso   1.000  C
  C116     1.0000 0.89310  0.97890  0.53840  Biso   1.000  C
  C117     1.0000 0.38000  0.43530  0.07480  Biso   1.000  C
  C118     1.0000 0.12000  0.93530  0.42520  Biso   1.000  C
  C119     1.0000 0.62000  0.56470  0.92520  Biso   1.000  C
  C120     1.0000 0.88000  0.06470  0.57480  Biso   1.000  C
  H141     1.0000 0.35240  0.39340  0.03780  Biso   1.000  H
  H142     1.0000 0.14760  0.89340  0.46220  Biso   1.000  H
  H143     1.0000 0.64760  0.60660  0.96220  Biso   1.000  H
  H144     1.0000 0.85240  0.10660  0.53780  Biso   1.000  H
  H145     1.0000 0.33380  0.44150  0.11500  Biso   1.000  H
  H146     1.0000 0.16620  0.94150  0.38500  Biso   1.000  H
  H147     1.0000 0.66620  0.55850  0.88500  Biso   1.000  H
  H148     1.0000 0.83380  0.05850  0.61500  Biso   1.000  H
  H149     1.0000 0.44510  0.41440  0.09560  Biso   1.000  H
  H150     1.0000 0.05490  0.91440  0.40440  Biso   1.000  H
  H151     1.0000 0.55490  0.58560  0.90440  Biso   1.000  H
  H152     1.0000 0.94510  0.08560  0.59560  Biso   1.000  H
