data_image0
_cell_length_a       7.309
_cell_length_b       16.363
_cell_length_c       13.646
_cell_angle_alpha    90
_cell_angle_beta     103.085
_cell_angle_gamma    90

_symmetry_space_group_name_H-M    "P 1"
_symmetry_int_tables_number       1

loop_
  _symmetry_equiv_pos_as_xyz
  'x, y, z'

loop_
  _atom_site_label
  _atom_site_occupancy
  _atom_site_fract_x
  _atom_site_fract_y
  _atom_site_fract_z
  _atom_site_thermal_displace_type
  _atom_site_B_iso_or_equiv
  _atom_site_type_symbol
  Cu1      1.0000 0.29038  0.11259  0.25330  Biso   1.000  Cu
  Cu2      1.0000 0.70962  0.61259  0.24670  Biso   1.000  Cu
  Cu3      1.0000 0.70962  0.88741  0.74670  Biso   1.000  Cu
  Cu4      1.0000 0.29038  0.38741  0.75330  Biso   1.000  Cu
  N1       1.0000 0.36220  0.21970  0.31010  Biso   1.000  N
  N2       1.0000 0.63780  0.71970  0.18990  Biso   1.000  N
  N3       1.0000 0.63780  0.78030  0.68990  Biso   1.000  N
  N4       1.0000 0.36220  0.28030  0.81010  Biso   1.000  N
  N5       1.0000 0.20200  0.15220  0.11570  Biso   1.000  N
  N6       1.0000 0.79800  0.65220  0.38430  Biso   1.000  N
  N7       1.0000 0.79800  0.84780  0.88430  Biso   1.000  N
  N8       1.0000 0.20200  0.34780  0.61570  Biso   1.000  N
  N9       1.0000 0.23330  0.29300  0.16170  Biso   1.000  N
  N10      1.0000 0.76670  0.79300  0.33830  Biso   1.000  N
  N11      1.0000 0.76670  0.70700  0.83830  Biso   1.000  N
  N12      1.0000 0.23330  0.20700  0.66170  Biso   1.000  N
  O1       1.0000 0.24720  0.99320  0.23040  Biso   1.000  O
  O2       1.0000 0.75280  0.49320  0.26960  Biso   1.000  O
  O3       1.0000 0.75280  0.00680  0.76960  Biso   1.000  O
  O4       1.0000 0.24720  0.50680  0.73040  Biso   1.000  O
  O5       1.0000 0.32030  0.04340  0.38070  Biso   1.000  O
  O6       1.0000 0.67970  0.54340  0.11930  Biso   1.000  O
  O7       1.0000 0.67970  0.95660  0.61930  Biso   1.000  O
  O8       1.0000 0.32030  0.45660  0.88070  Biso   1.000  O
  C1       1.0000 0.46530  0.22070  0.40730  Biso   1.000  C
  C2       1.0000 0.53470  0.72070  0.09270  Biso   1.000  C
  C3       1.0000 0.53470  0.77930  0.59270  Biso   1.000  C
  C4       1.0000 0.46530  0.27930  0.90730  Biso   1.000  C
  C5       1.0000 0.53800  0.29120  0.45550  Biso   1.000  C
  C6       1.0000 0.46200  0.79120  0.04450  Biso   1.000  C
  C7       1.0000 0.46200  0.70880  0.54450  Biso   1.000  C
  C8       1.0000 0.53800  0.20880  0.95550  Biso   1.000  C
  C9       1.0000 0.50540  0.36270  0.40250  Biso   1.000  C
  C10      1.0000 0.49460  0.86270  0.09750  Biso   1.000  C
  C11      1.0000 0.49460  0.63730  0.59750  Biso   1.000  C
  C12      1.0000 0.50540  0.13730  0.90250  Biso   1.000  C
  C13      1.0000 0.40360  0.36370  0.30510  Biso   1.000  C
  C14      1.0000 0.59640  0.86370  0.19490  Biso   1.000  C
  C15      1.0000 0.59640  0.63630  0.69490  Biso   1.000  C
  C16      1.0000 0.40360  0.13630  0.80510  Biso   1.000  C
  C17      1.0000 0.33450  0.29020  0.25950  Biso   1.000  C
  C18      1.0000 0.66550  0.79020  0.24050  Biso   1.000  C
  C19      1.0000 0.66550  0.70980  0.74050  Biso   1.000  C
  C20      1.0000 0.33450  0.20980  0.75950  Biso   1.000  C
  C21      1.0000 0.16880  0.23180  0.09240  Biso   1.000  C
  C22      1.0000 0.83120  0.73180  0.40760  Biso   1.000  C
  C23      1.0000 0.83120  0.76820  0.90760  Biso   1.000  C
  C24      1.0000 0.16880  0.26820  0.59240  Biso   1.000  C
  C25      1.0000 0.07340  0.25600  0.99600  Biso   1.000  C
  C26      1.0000 0.92660  0.75600  0.50400  Biso   1.000  C
  C27      1.0000 0.92660  0.74400  0.00400  Biso   1.000  C
  C28      1.0000 0.07340  0.24400  0.49600  Biso   1.000  C
  C29      1.0000 0.01300  0.19810  0.92360  Biso   1.000  C
  C30      1.0000 0.98700  0.69810  0.57640  Biso   1.000  C
  C31      1.0000 0.98700  0.80190  0.07640  Biso   1.000  C
  C32      1.0000 0.01300  0.30190  0.42360  Biso   1.000  C
  C33      1.0000 0.05660  0.11640  0.94690  Biso   1.000  C
  C34      1.0000 0.94340  0.61640  0.55310  Biso   1.000  C
  C35      1.0000 0.94340  0.88360  0.05310  Biso   1.000  C
  C36      1.0000 0.05660  0.38360  0.44690  Biso   1.000  C
  C37      1.0000 0.14540  0.09590  0.04230  Biso   1.000  C
  C38      1.0000 0.85460  0.59590  0.45770  Biso   1.000  C
  C39      1.0000 0.85460  0.90410  0.95770  Biso   1.000  C
  C40      1.0000 0.14540  0.40410  0.54230  Biso   1.000  C
  C41      1.0000 0.27470  0.98250  0.32380  Biso   1.000  C
  C42      1.0000 0.72530  0.48250  0.17620  Biso   1.000  C
  C43      1.0000 0.72530  0.01750  0.67620  Biso   1.000  C
  C44      1.0000 0.27470  0.51750  0.82380  Biso   1.000  C
  C45      1.0000 0.25240  0.89950  0.36720  Biso   1.000  C
  C46      1.0000 0.74760  0.39950  0.13280  Biso   1.000  C
  C47      1.0000 0.74760  0.10050  0.63280  Biso   1.000  C
  C48      1.0000 0.25240  0.60050  0.86720  Biso   1.000  C
  Cl1      1.0000 0.77000  0.11580  0.23040  Biso   1.000  Cl
  Cl2      1.0000 0.23000  0.61580  0.26960  Biso   1.000  Cl
  Cl3      1.0000 0.23000  0.88420  0.76960  Biso   1.000  Cl
  Cl4      1.0000 0.77000  0.38420  0.73040  Biso   1.000  Cl
  O9       1.0000 0.63870  0.08170  0.27850  Biso   1.000  O
  O10      1.0000 0.36130  0.58170  0.22150  Biso   1.000  O
  O11      1.0000 0.36130  0.91830  0.72150  Biso   1.000  O
  O12      1.0000 0.63870  0.41830  0.77850  Biso   1.000  O
  O13      1.0000 0.77060  0.07380  0.13820  Biso   1.000  O
  O14      1.0000 0.22940  0.57380  0.36180  Biso   1.000  O
  O15      1.0000 0.22940  0.92620  0.86180  Biso   1.000  O
  O16      1.0000 0.77060  0.42620  0.63820  Biso   1.000  O
  O17      1.0000 0.95110  0.11350  0.28980  Biso   1.000  O
  O18      1.0000 0.04890  0.61350  0.21020  Biso   1.000  O
  O19      1.0000 0.04890  0.88650  0.71020  Biso   1.000  O
  O20      1.0000 0.95110  0.38650  0.78980  Biso   1.000  O
  O21      1.0000 0.71690  0.19970  0.20780  Biso   1.000  O
  O22      1.0000 0.28310  0.69970  0.29220  Biso   1.000  O
  O23      1.0000 0.28310  0.80030  0.79220  Biso   1.000  O
  O24      1.0000 0.71690  0.30030  0.70780  Biso   1.000  O
  O25      1.0000 0.21340  0.44820  0.06860  Biso   1.000  O
  O26      1.0000 0.78660  0.94820  0.43140  Biso   1.000  O
  O27      1.0000 0.78660  0.55180  0.93140  Biso   1.000  O
  O28      1.0000 0.21340  0.05180  0.56860  Biso   1.000  O
  H1       1.0000 0.49150  0.16390  0.44840  Biso   1.000  H
  H2       1.0000 0.50850  0.66390  0.05160  Biso   1.000  H
  H3       1.0000 0.50850  0.83610  0.55160  Biso   1.000  H
  H4       1.0000 0.49150  0.33610  0.94840  Biso   1.000  H
  H5       1.0000 0.62120  0.29000  0.53170  Biso   1.000  H
  H6       1.0000 0.37880  0.79000  0.96830  Biso   1.000  H
  H7       1.0000 0.37880  0.71000  0.46830  Biso   1.000  H
  H8       1.0000 0.62120  0.21000  0.03170  Biso   1.000  H
  H9       1.0000 0.56050  0.41890  0.43900  Biso   1.000  H
  H10      1.0000 0.43950  0.91890  0.06100  Biso   1.000  H
  H11      1.0000 0.43950  0.58110  0.56100  Biso   1.000  H
  H12      1.0000 0.56050  0.08110  0.93900  Biso   1.000  H
  H13      1.0000 0.37530  0.42050  0.26440  Biso   1.000  H
  H14      1.0000 0.62470  0.92050  0.23560  Biso   1.000  H
  H15      1.0000 0.62470  0.57950  0.73560  Biso   1.000  H
  H16      1.0000 0.37530  0.07950  0.76440  Biso   1.000  H
  H17      1.0000 0.10510  0.32340  0.16780  Biso   1.000  H
  H18      1.0000 0.89490  0.82340  0.33220  Biso   1.000  H
  H19      1.0000 0.89490  0.67660  0.83220  Biso   1.000  H
  H20      1.0000 0.10510  0.17660  0.66780  Biso   1.000  H
  H21      1.0000 0.04520  0.32000  0.97960  Biso   1.000  H
  H22      1.0000 0.95480  0.82000  0.52040  Biso   1.000  H
  H23      1.0000 0.95480  0.68000  0.02040  Biso   1.000  H
  H24      1.0000 0.04520  0.18000  0.47960  Biso   1.000  H
  H25      1.0000 0.93410  0.21560  0.84980  Biso   1.000  H
  H26      1.0000 0.06590  0.71560  0.65020  Biso   1.000  H
  H27      1.0000 0.06590  0.78440  0.15020  Biso   1.000  H
  H28      1.0000 0.93410  0.28440  0.34980  Biso   1.000  H
  H29      1.0000 0.01780  0.06990  0.88980  Biso   1.000  H
  H30      1.0000 0.98220  0.56990  0.61020  Biso   1.000  H
  H31      1.0000 0.98220  0.93010  0.11020  Biso   1.000  H
  H32      1.0000 0.01780  0.43010  0.38980  Biso   1.000  H
  H33      1.0000 0.17620  0.03240  0.06080  Biso   1.000  H
  H34      1.0000 0.82380  0.53240  0.43920  Biso   1.000  H
  H35      1.0000 0.82380  0.96760  0.93920  Biso   1.000  H
  H36      1.0000 0.17620  0.46760  0.56080  Biso   1.000  H
  H37      1.0000 0.11680  0.49520  0.08020  Biso   1.000  H
  H38      1.0000 0.88320  0.99520  0.41980  Biso   1.000  H
  H39      1.0000 0.88320  0.50480  0.91980  Biso   1.000  H
  H40      1.0000 0.11680  0.00480  0.58020  Biso   1.000  H
  H41      1.0000 0.33460  0.47610  0.04940  Biso   1.000  H
  H42      1.0000 0.66540  0.97610  0.45060  Biso   1.000  H
  H43      1.0000 0.66540  0.52390  0.95060  Biso   1.000  H
  H44      1.0000 0.33460  0.02390  0.54940  Biso   1.000  H
  H45      1.0000 0.28080  0.90210  0.44830  Biso   1.000  H
  H46      1.0000 0.71920  0.40210  0.05170  Biso   1.000  H
  H47      1.0000 0.71920  0.09790  0.55170  Biso   1.000  H
  H48      1.0000 0.28080  0.59790  0.94830  Biso   1.000  H
  H49      1.0000 0.35070  0.85830  0.34450  Biso   1.000  H
  H50      1.0000 0.64930  0.35830  0.15550  Biso   1.000  H
  H51      1.0000 0.64930  0.14170  0.65550  Biso   1.000  H
  H52      1.0000 0.35070  0.64170  0.84450  Biso   1.000  H
  H53      1.0000 0.11100  0.87770  0.33830  Biso   1.000  H
  H54      1.0000 0.88900  0.37770  0.16170  Biso   1.000  H
  H55      1.0000 0.88900  0.12230  0.66170  Biso   1.000  H
  H56      1.0000 0.11100  0.62230  0.83830  Biso   1.000  H
