data_image0
_cell_length_a       7.0989
_cell_length_b       9.0946
_cell_length_c       8.1688
_cell_angle_alpha    90
_cell_angle_beta     102.65
_cell_angle_gamma    90

_symmetry_space_group_name_H-M    "P 1"
_symmetry_int_tables_number       1

loop_
  _symmetry_equiv_pos_as_xyz
  'x, y, z'

loop_
  _atom_site_label
  _atom_site_occupancy
  _atom_site_fract_x
  _atom_site_fract_y
  _atom_site_fract_z
  _atom_site_thermal_displace_type
  _atom_site_B_iso_or_equiv
  _atom_site_type_symbol
  Cu1      1.0000 0.00000  0.00000  0.50000  Biso   1.000  Cu
  Cu2      1.0000 0.50000  0.50000  0.00000  Biso   1.000  Cu
  O1       1.0000 0.17220  0.03970  0.34330  Biso   1.000  O
  O2       1.0000 0.32780  0.53970  0.15670  Biso   1.000  O
  O3       1.0000 0.82780  0.96030  0.65670  Biso   1.000  O
  O4       1.0000 0.67220  0.46030  0.84330  Biso   1.000  O
  N1       1.0000 0.38040  0.84690  0.40040  Biso   1.000  N
  N2       1.0000 0.11960  0.34690  0.09960  Biso   1.000  N
  N3       1.0000 0.61960  0.15310  0.59960  Biso   1.000  N
  N4       1.0000 0.88040  0.65310  0.90040  Biso   1.000  N
  H1       1.0000 0.46820  0.79810  0.36630  Biso   1.000  H
  H2       1.0000 0.03180  0.29810  0.13370  Biso   1.000  H
  H3       1.0000 0.53180  0.20190  0.63370  Biso   1.000  H
  H4       1.0000 0.96820  0.70190  0.86630  Biso   1.000  H
  N5       1.0000 0.35060  0.69600  0.78090  Biso   1.000  N
  N6       1.0000 0.14940  0.19600  0.71910  Biso   1.000  N
  N7       1.0000 0.64940  0.30400  0.21910  Biso   1.000  N
  N8       1.0000 0.85060  0.80400  0.28090  Biso   1.000  N
  N9       1.0000 0.44340  0.70850  0.65330  Biso   1.000  N
  N10      1.0000 0.05660  0.20850  0.84670  Biso   1.000  N
  N11      1.0000 0.55660  0.29150  0.34670  Biso   1.000  N
  N12      1.0000 0.94340  0.79150  0.15330  Biso   1.000  N
  N13      1.0000 0.18820  0.85460  0.61020  Biso   1.000  N
  N14      1.0000 0.31180  0.35460  0.88980  Biso   1.000  N
  N15      1.0000 0.81180  0.14540  0.38980  Biso   1.000  N
  N16      1.0000 0.68820  0.64540  0.11020  Biso   1.000  N
  N17      1.0000 0.19990  0.78220  0.75680  Biso   1.000  N
  N18      1.0000 0.30010  0.28220  0.74320  Biso   1.000  N
  N19      1.0000 0.80010  0.21780  0.24320  Biso   1.000  N
  N20      1.0000 0.69990  0.71780  0.25680  Biso   1.000  N
  C1       1.0000 0.35110  0.97610  0.13900  Biso   1.000  C
  C2       1.0000 0.14890  0.47610  0.36100  Biso   1.000  C
  C3       1.0000 0.64890  0.02390  0.86100  Biso   1.000  C
  C4       1.0000 0.85110  0.52390  0.63900  Biso   1.000  C
  H5       1.0000 0.44540  0.90310  0.12850  Biso   1.000  H
  H6       1.0000 0.05460  0.40310  0.37150  Biso   1.000  H
  H7       1.0000 0.55460  0.09690  0.87150  Biso   1.000  H
  H8       1.0000 0.94540  0.59690  0.62850  Biso   1.000  H
  H9       1.0000 0.40530  0.07230  0.13440  Biso   1.000  H
  H10      1.0000 0.09470  0.57230  0.36560  Biso   1.000  H
  H11      1.0000 0.59470  0.92770  0.86560  Biso   1.000  H
  H12      1.0000 0.90530  0.42770  0.63440  Biso   1.000  H
  H13      1.0000 0.23970  0.96530  0.04900  Biso   1.000  H
  H14      1.0000 0.26030  0.46530  0.45100  Biso   1.000  H
  H15      1.0000 0.76030  0.03470  0.95100  Biso   1.000  H
  H16      1.0000 0.73970  0.53470  0.54900  Biso   1.000  H
  C5       1.0000 0.29340  0.95690  0.30280  Biso   1.000  C
  C6       1.0000 0.20660  0.45690  0.19720  Biso   1.000  C
  C7       1.0000 0.70660  0.04310  0.69720  Biso   1.000  C
  C8       1.0000 0.79340  0.54310  0.80280  Biso   1.000  C
  C9       1.0000 0.33890  0.80620  0.55250  Biso   1.000  C
  C10      1.0000 0.16110  0.30620  0.94750  Biso   1.000  C
  C11      1.0000 0.66110  0.19380  0.44750  Biso   1.000  C
  C12      1.0000 0.83890  0.69380  0.05250  Biso   1.000  C
