data_image0
_cell_length_a       10.76
_cell_length_b       10.771
_cell_length_c       13.108
_cell_angle_alpha    111.335
_cell_angle_beta     107.991
_cell_angle_gamma    91.492

_symmetry_space_group_name_H-M    "P 1"
_symmetry_int_tables_number       1

loop_
  _symmetry_equiv_pos_as_xyz
  'x, y, z'

loop_
  _atom_site_label
  _atom_site_occupancy
  _atom_site_fract_x
  _atom_site_fract_y
  _atom_site_fract_z
  _atom_site_thermal_displace_type
  _atom_site_B_iso_or_equiv
  _atom_site_type_symbol
  Cu1      1.0000 0.50000  0.50000  0.00000  Biso   1.000  Cu
  Cu2      1.0000 0.50000  0.00000  0.50000  Biso   1.000  Cu
  O1       1.0000 0.61520  0.91400  0.40900  Biso   1.000  O
  O2       1.0000 0.38480  0.08600  0.59100  Biso   1.000  O
  O3       1.0000 0.55550  0.69660  0.36710  Biso   1.000  O
  O4       1.0000 0.44450  0.30340  0.63290  Biso   1.000  O
  O5       1.0000 0.59830  0.67070  0.12410  Biso   1.000  O
  O6       1.0000 0.40170  0.32930  0.87590  Biso   1.000  O
  O7       1.0000 0.56580  0.72260  0.97100  Biso   1.000  O
  O8       1.0000 0.43420  0.27740  0.02900  Biso   1.000  O
  N1       1.0000 0.33020  0.56720  0.00340  Biso   1.000  N
  N2       1.0000 0.66980  0.43280  0.99660  Biso   1.000  N
  N3       1.0000 0.61200  0.96060  0.63410  Biso   1.000  N
  N4       1.0000 0.38800  0.03940  0.36590  Biso   1.000  N
  C1       1.0000 0.63530  0.79300  0.38090  Biso   1.000  C
  C2       1.0000 0.36470  0.20700  0.61910  Biso   1.000  C
  C3       1.0000 0.76680  0.76510  0.36880  Biso   1.000  C
  C4       1.0000 0.23320  0.23490  0.63120  Biso   1.000  C
  C5       1.0000 0.83100  0.82650  0.31770  Biso   1.000  C
  C6       1.0000 0.16900  0.17350  0.68230  Biso   1.000  C
  C7       1.0000 0.95500  0.79570  0.31570  Biso   1.000  C
  C8       1.0000 0.04500  0.20430  0.68430  Biso   1.000  C
  H1       1.0000 0.00050  0.83760  0.28220  Biso   1.000  H
  H2       1.0000 0.99950  0.16240  0.71780  Biso   1.000  H
  C9       1.0000 0.01400  0.70630  0.36090  Biso   1.000  C
  C10      1.0000 0.98600  0.29370  0.63910  Biso   1.000  C
  H3       1.0000 0.09850  0.68660  0.35760  Biso   1.000  H
  H4       1.0000 0.90150  0.31340  0.64240  Biso   1.000  H
  C11      1.0000 0.95060  0.64590  0.41050  Biso   1.000  C
  C12      1.0000 0.04940  0.35410  0.58950  Biso   1.000  C
  H5       1.0000 0.99110  0.58500  0.44280  Biso   1.000  H
  H6       1.0000 0.00890  0.41500  0.55720  Biso   1.000  H
  C13      1.0000 0.82770  0.67440  0.41280  Biso   1.000  C
  C14      1.0000 0.17230  0.32560  0.58720  Biso   1.000  C
  H7       1.0000 0.78290  0.63070  0.44560  Biso   1.000  H
  H8       1.0000 0.21710  0.36930  0.55440  Biso   1.000  H
  C15      1.0000 0.61120  0.75240  0.07750  Biso   1.000  C
  C16      1.0000 0.38880  0.24760  0.92250  Biso   1.000  C
  C17      1.0000 0.68360  0.89300  0.15640  Biso   1.000  C
  C18      1.0000 0.31640  0.10700  0.84360  Biso   1.000  C
  C19      1.0000 0.77880  0.92600  0.26820  Biso   1.000  C
  C20      1.0000 0.22120  0.07400  0.73180  Biso   1.000  C
  C21      1.0000 0.83850  0.06020  0.33090  Biso   1.000  C
  C22      1.0000 0.16150  0.93980  0.66910  Biso   1.000  C
  H9       1.0000 0.90400  0.08410  0.40560  Biso   1.000  H
  H10      1.0000 0.09600  0.91590  0.59440  Biso   1.000  H
  C23      1.0000 0.80670  0.15990  0.28920  Biso   1.000  C
  C24      1.0000 0.19330  0.84010  0.71080  Biso   1.000  C
  H11      1.0000 0.84660  0.25110  0.33600  Biso   1.000  H
  H12      1.0000 0.15340  0.74890  0.66400  Biso   1.000  H
  C25      1.0000 0.71730  0.12600  0.18030  Biso   1.000  C
  C26      1.0000 0.28270  0.87400  0.81970  Biso   1.000  C
  H13      1.0000 0.69650  0.19330  0.14960  Biso   1.000  H
  H14      1.0000 0.30350  0.80670  0.85040  Biso   1.000  H
  C27      1.0000 0.65680  0.99420  0.11450  Biso   1.000  C
  C28      1.0000 0.34320  0.00580  0.88550  Biso   1.000  C
  H15      1.0000 0.59510  0.97200  0.03840  Biso   1.000  H
  H16      1.0000 0.40490  0.02800  0.96160  Biso   1.000  H
  C29      1.0000 0.31050  0.64240  0.10110  Biso   1.000  C
  C30      1.0000 0.68950  0.35760  0.89890  Biso   1.000  C
  H17      1.0000 0.38060  0.66450  0.17300  Biso   1.000  H
  H18      1.0000 0.61940  0.33550  0.82700  Biso   1.000  H
  C31      1.0000 0.19500  0.68930  0.10330  Biso   1.000  C
  C32      1.0000 0.80500  0.31070  0.89670  Biso   1.000  C
  H19      1.0000 0.18550  0.74090  0.17580  Biso   1.000  H
  H20      1.0000 0.81450  0.25910  0.82420  Biso   1.000  H
  C33      1.0000 0.09140  0.66280  0.00110  Biso   1.000  C
  C34      1.0000 0.90860  0.33720  0.99890  Biso   1.000  C
  C35      1.0000 0.96390  0.71250  0.00060  Biso   1.000  C
  C36      1.0000 0.03610  0.28750  0.99940  Biso   1.000  C
  H21      1.0000 0.97960  0.79130  0.07450  Biso   1.000  H
  H22      1.0000 0.02040  0.20870  0.92550  Biso   1.000  H
  H23      1.0000 0.90240  0.64090  0.99840  Biso   1.000  H
  H24      1.0000 0.09760  0.35910  0.00160  Biso   1.000  H
  C37      1.0000 0.89750  0.75330  0.89960  Biso   1.000  C
  C38      1.0000 0.10250  0.24670  0.10040  Biso   1.000  C
  H25      1.0000 0.96550  0.76340  0.86540  Biso   1.000  H
  H26      1.0000 0.03450  0.23660  0.13460  Biso   1.000  H
  H27      1.0000 0.83000  0.67570  0.83980  Biso   1.000  H
  H28      1.0000 0.17000  0.32430  0.16020  Biso   1.000  H
  C39      1.0000 0.84420  0.85280  0.91260  Biso   1.000  C
  C40      1.0000 0.15580  0.14720  0.08740  Biso   1.000  C
  H29      1.0000 0.91490  0.93100  0.96440  Biso   1.000  H
  H30      1.0000 0.08510  0.06900  0.03560  Biso   1.000  H
  H31      1.0000 0.78610  0.84850  0.95730  Biso   1.000  H
  H32      1.0000 0.21390  0.15150  0.04270  Biso   1.000  H
  C41      1.0000 0.76230  0.88890  0.81320  Biso   1.000  C
  C42      1.0000 0.23770  0.11110  0.18680  Biso   1.000  C
  C43      1.0000 0.62870  0.88900  0.78780  Biso   1.000  C
  C44      1.0000 0.37130  0.11100  0.21220  Biso   1.000  C
  H33      1.0000 0.58530  0.86430  0.83230  Biso   1.000  H
  H34      1.0000 0.41470  0.13570  0.16770  Biso   1.000  H
  C45      1.0000 0.55820  0.92390  0.70030  Biso   1.000  C
  C46      1.0000 0.44180  0.07610  0.29970  Biso   1.000  C
  H35      1.0000 0.46580  0.92230  0.68490  Biso   1.000  H
  H36      1.0000 0.53420  0.07770  0.31510  Biso   1.000  H
  C47      1.0000 0.74260  0.96180  0.65740  Biso   1.000  C
  C48      1.0000 0.25740  0.03820  0.34260  Biso   1.000  C
  H37      1.0000 0.78270  0.98700  0.61120  Biso   1.000  H
  H38      1.0000 0.21730  0.01300  0.38880  Biso   1.000  H
  C49      1.0000 0.82030  0.92850  0.74470  Biso   1.000  C
  C50      1.0000 0.17970  0.07150  0.25530  Biso   1.000  C
  H39      1.0000 0.91280  0.93180  0.75920  Biso   1.000  H
  H40      1.0000 0.08720  0.06820  0.24080  Biso   1.000  H
  C51      1.0000 0.11220  0.58730  0.89930  Biso   1.000  C
  C52      1.0000 0.88780  0.41270  0.10070  Biso   1.000  C
  H41      1.0000 0.04460  0.56740  0.82630  Biso   1.000  H
  H42      1.0000 0.95540  0.43260  0.17370  Biso   1.000  H
  C53      1.0000 0.22980  0.54120  0.90330  Biso   1.000  C
  C54      1.0000 0.77020  0.45880  0.09670  Biso   1.000  C
  H43      1.0000 0.24130  0.48830  0.83190  Biso   1.000  H
  H44      1.0000 0.75870  0.51170  0.16810  Biso   1.000  H
  O9       1.0000 0.30560  0.60700  0.52460  Biso   1.000  O
  O10      1.0000 0.69440  0.39300  0.47540  Biso   1.000  O
  C55      1.0000 0.32300  0.47630  0.42820  Biso   1.000  C
  C56      1.0000 0.67700  0.52370  0.57180  Biso   1.000  C
  H45      1.0000 0.34980  0.50110  0.37240  Biso   1.000  H
  H46      1.0000 0.65020  0.49890  0.62760  Biso   1.000  H
  H47      1.0000 0.23890  0.41430  0.38740  Biso   1.000  H
  H48      1.0000 0.76110  0.58570  0.61260  Biso   1.000  H
  H49      1.0000 0.39100  0.43200  0.46480  Biso   1.000  H
  H50      1.0000 0.60900  0.56800  0.53520  Biso   1.000  H
  O11      1.0000 0.34550  0.78720  0.42050  Biso   1.000  O
  O12      1.0000 0.65450  0.21280  0.57950  Biso   1.000  O
  O13      1.0000 0.55740  0.42360  0.27000  Biso   1.000  O
  O14      1.0000 0.44260  0.57640  0.73000  Biso   1.000  O
