data_image0
_cell_length_a       15.674
_cell_length_b       8.6916
_cell_length_c       19.06
_cell_angle_alpha    90
_cell_angle_beta     91.3
_cell_angle_gamma    90

_symmetry_space_group_name_H-M    "P 1"
_symmetry_int_tables_number       1

loop_
  _symmetry_equiv_pos_as_xyz
  'x, y, z'

loop_
  _atom_site_label
  _atom_site_occupancy
  _atom_site_fract_x
  _atom_site_fract_y
  _atom_site_fract_z
  _atom_site_thermal_displace_type
  _atom_site_B_iso_or_equiv
  _atom_site_type_symbol
  Cu1      1.0000 0.05104  0.98242  0.29507  Biso   1.000  Cu
  Cu2      1.0000 0.44896  0.48242  0.20493  Biso   1.000  Cu
  Cu3      1.0000 0.94896  0.01758  0.70493  Biso   1.000  Cu
  Cu4      1.0000 0.55104  0.51758  0.79507  Biso   1.000  Cu
  Ni1      1.0000 0.80612  0.07648  0.10987  Biso   1.000  Ni
  Ni2      1.0000 0.69388  0.57648  0.39013  Biso   1.000  Ni
  Ni3      1.0000 0.19388  0.92352  0.89014  Biso   1.000  Ni
  Ni4      1.0000 0.30612  0.42352  0.60986  Biso   1.000  Ni
  O1       1.0000 0.01841  0.93945  0.19506  Biso   1.000  O
  O2       1.0000 0.48159  0.43945  0.30494  Biso   1.000  O
  O3       1.0000 0.98159  0.06055  0.80494  Biso   1.000  O
  O4       1.0000 0.51841  0.56055  0.69506  Biso   1.000  O
  O5       1.0000 0.97113  0.20915  0.25240  Biso   1.000  O
  O6       1.0000 0.52887  0.70915  0.24760  Biso   1.000  O
  O7       1.0000 0.02887  0.79085  0.74760  Biso   1.000  O
  O8       1.0000 0.47113  0.29085  0.75240  Biso   1.000  O
  O9       1.0000 0.72839  0.61328  0.95548  Biso   1.000  O
  O10      1.0000 0.77161  0.11328  0.54452  Biso   1.000  O
  O11      1.0000 0.27161  0.38672  0.04452  Biso   1.000  O
  O12      1.0000 0.22839  0.88672  0.45548  Biso   1.000  O
  O13      1.0000 0.71237  0.84200  0.90227  Biso   1.000  O
  O14      1.0000 0.78763  0.34200  0.59773  Biso   1.000  O
  O15      1.0000 0.28763  0.15800  0.09773  Biso   1.000  O
  O16      1.0000 0.21237  0.65800  0.40227  Biso   1.000  O
  O17      1.0000 0.56883  0.42530  0.06291  Biso   1.000  O
  O18      1.0000 0.93117  0.92530  0.43709  Biso   1.000  O
  O19      1.0000 0.43117  0.57470  0.93709  Biso   1.000  O
  O20      1.0000 0.06883  0.07470  0.56291  Biso   1.000  O
  O21      1.0000 0.56199  0.40863  0.18097  Biso   1.000  O
  O22      1.0000 0.93801  0.90863  0.31903  Biso   1.000  O
  O23      1.0000 0.43801  0.59137  0.81903  Biso   1.000  O
  O24      1.0000 0.06199  0.09137  0.68097  Biso   1.000  O
  O25      1.0000 0.08589  0.01364  0.39412  Biso   1.000  O
  O26      1.0000 0.41411  0.51364  0.10588  Biso   1.000  O
  O27      1.0000 0.91411  0.98636  0.60588  Biso   1.000  O
  O28      1.0000 0.58589  0.48636  0.89412  Biso   1.000  O
  H1       1.0000 0.04120  0.99470  0.41670  Biso   1.000  H
  H2       1.0000 0.45880  0.49470  0.08330  Biso   1.000  H
  H3       1.0000 0.95880  0.00530  0.58330  Biso   1.000  H
  H4       1.0000 0.54120  0.50530  0.91670  Biso   1.000  H
  H5       1.0000 0.13200  0.97310  0.40880  Biso   1.000  H
  H6       1.0000 0.36800  0.47310  0.09120  Biso   1.000  H
  H7       1.0000 0.86800  0.02690  0.59120  Biso   1.000  H
  H8       1.0000 0.63200  0.52690  0.90880  Biso   1.000  H
  O29      1.0000 0.15838  0.07399  0.26430  Biso   1.000  O
  O30      1.0000 0.34162  0.57399  0.23570  Biso   1.000  O
  O31      1.0000 0.84162  0.92601  0.73570  Biso   1.000  O
  O32      1.0000 0.65838  0.42601  0.76430  Biso   1.000  O
  H9       1.0000 0.17950  0.02370  0.22910  Biso   1.000  H
  H10      1.0000 0.32050  0.52370  0.27090  Biso   1.000  H
  H11      1.0000 0.82050  0.97630  0.77090  Biso   1.000  H
  H12      1.0000 0.67950  0.47630  0.72910  Biso   1.000  H
  H13      1.0000 0.19620  0.08330  0.29800  Biso   1.000  H
  H14      1.0000 0.30380  0.58330  0.20200  Biso   1.000  H
  H15      1.0000 0.80380  0.91670  0.70200  Biso   1.000  H
  H16      1.0000 0.69620  0.41670  0.79800  Biso   1.000  H
  O33      1.0000 0.11126  0.74283  0.29159  Biso   1.000  O
  O34      1.0000 0.38874  0.24283  0.20841  Biso   1.000  O
  O35      1.0000 0.88874  0.25717  0.70841  Biso   1.000  O
  O36      1.0000 0.61126  0.75717  0.79159  Biso   1.000  O
  H17      1.0000 0.14540  0.73380  0.32720  Biso   1.000  H
  H18      1.0000 0.35460  0.23380  0.17280  Biso   1.000  H
  H19      1.0000 0.85460  0.26620  0.67280  Biso   1.000  H
  H20      1.0000 0.64540  0.76620  0.82720  Biso   1.000  H
  H21      1.0000 0.10190  0.65890  0.26960  Biso   1.000  H
  H22      1.0000 0.39810  0.15890  0.23040  Biso   1.000  H
  H23      1.0000 0.89810  0.34110  0.73040  Biso   1.000  H
  H24      1.0000 0.60190  0.84110  0.76960  Biso   1.000  H
  N1       1.0000 0.91109  0.97330  0.11053  Biso   1.000  N
  N2       1.0000 0.58891  0.47330  0.38947  Biso   1.000  N
  N3       1.0000 0.08891  0.02670  0.88947  Biso   1.000  N
  N4       1.0000 0.41109  0.52670  0.61053  Biso   1.000  N
  N5       1.0000 0.75230  0.92930  0.05246  Biso   1.000  N
  N6       1.0000 0.74770  0.42930  0.44754  Biso   1.000  N
  N7       1.0000 0.24770  0.07070  0.94754  Biso   1.000  N
  N8       1.0000 0.25230  0.57070  0.55246  Biso   1.000  N
  N9       1.0000 0.69895  0.17320  0.11316  Biso   1.000  N
  N10      1.0000 0.80105  0.67320  0.38684  Biso   1.000  N
  N11      1.0000 0.30105  0.82680  0.88684  Biso   1.000  N
  N12      1.0000 0.19895  0.32680  0.61316  Biso   1.000  N
  N13      1.0000 0.85921  0.22030  0.16925  Biso   1.000  N
  N14      1.0000 0.64079  0.72030  0.33075  Biso   1.000  N
  N15      1.0000 0.14079  0.77970  0.83075  Biso   1.000  N
  N16      1.0000 0.35921  0.27970  0.66925  Biso   1.000  N
  C1       1.0000 0.95551  0.00820  0.16863  Biso   1.000  C
  C2       1.0000 0.54449  0.50820  0.33137  Biso   1.000  C
  C3       1.0000 0.04449  0.99180  0.83137  Biso   1.000  C
  C4       1.0000 0.45551  0.49180  0.66863  Biso   1.000  C
  C5       1.0000 0.92744  0.15840  0.20264  Biso   1.000  C
  C6       1.0000 0.57256  0.65840  0.29736  Biso   1.000  C
  C7       1.0000 0.07256  0.84160  0.79736  Biso   1.000  C
  C8       1.0000 0.42744  0.34160  0.70264  Biso   1.000  C
  C9       1.0000 0.93906  0.86660  0.06066  Biso   1.000  C
  C10      1.0000 0.56094  0.36660  0.43934  Biso   1.000  C
  C11      1.0000 0.06094  0.13340  0.93934  Biso   1.000  C
  C12      1.0000 0.43906  0.63340  0.56066  Biso   1.000  C
  C13      1.0000 0.02424  0.81780  0.05890  Biso   1.000  C
  C14      1.0000 0.47576  0.31780  0.44110  Biso   1.000  C
  C15      1.0000 0.97576  0.18220  0.94110  Biso   1.000  C
  C16      1.0000 0.52424  0.68220  0.55890  Biso   1.000  C
  H25      1.0000 0.06310  0.84890  0.09510  Biso   1.000  H
  H26      1.0000 0.43690  0.34890  0.40490  Biso   1.000  H
  H27      1.0000 0.93690  0.15110  0.90490  Biso   1.000  H
  H28      1.0000 0.56310  0.65110  0.59510  Biso   1.000  H
  C17      1.0000 0.05265  0.72510  0.00535  Biso   1.000  C
  C18      1.0000 0.44735  0.22510  0.49465  Biso   1.000  C
  C19      1.0000 0.94735  0.27490  0.99465  Biso   1.000  C
  C20      1.0000 0.55265  0.77490  0.50535  Biso   1.000  C
  H29      1.0000 0.11060  0.69320  0.00540  Biso   1.000  H
  H30      1.0000 0.38940  0.19320  0.49460  Biso   1.000  H
  H31      1.0000 0.88940  0.30680  0.99460  Biso   1.000  H
  H32      1.0000 0.61060  0.80680  0.50540  Biso   1.000  H
  C21      1.0000 0.99793  0.67800  0.95167  Biso   1.000  C
  C22      1.0000 0.50207  0.17800  0.54833  Biso   1.000  C
  C23      1.0000 0.00207  0.32200  0.04833  Biso   1.000  C
  C24      1.0000 0.49793  0.82200  0.45167  Biso   1.000  C
  H33      1.0000 0.01810  0.61560  0.91460  Biso   1.000  H
  H34      1.0000 0.48190  0.11560  0.58540  Biso   1.000  H
  H35      1.0000 0.98190  0.38440  0.08540  Biso   1.000  H
  H36      1.0000 0.51810  0.88440  0.41460  Biso   1.000  H
  C25      1.0000 0.91375  0.72320  0.95268  Biso   1.000  C
  C26      1.0000 0.58625  0.22320  0.54732  Biso   1.000  C
  C27      1.0000 0.08625  0.27680  0.04732  Biso   1.000  C
  C28      1.0000 0.41375  0.77680  0.45268  Biso   1.000  C
  H37      1.0000 0.87630  0.69210  0.91550  Biso   1.000  H
  H38      1.0000 0.62370  0.19210  0.58450  Biso   1.000  H
  H39      1.0000 0.12370  0.30790  0.08450  Biso   1.000  H
  H40      1.0000 0.37630  0.80790  0.41550  Biso   1.000  H
  C29      1.0000 0.88146  0.81430  0.00738  Biso   1.000  C
  C30      1.0000 0.61854  0.31430  0.49262  Biso   1.000  C
  C31      1.0000 0.11854  0.18570  0.99262  Biso   1.000  C
  C32      1.0000 0.38146  0.68570  0.50738  Biso   1.000  C
  C33      1.0000 0.78964  0.83960  0.00817  Biso   1.000  C
  C34      1.0000 0.71036  0.33960  0.49183  Biso   1.000  C
  C35      1.0000 0.21036  0.16040  0.99183  Biso   1.000  C
  C36      1.0000 0.28964  0.66040  0.50817  Biso   1.000  C
  C37      1.0000 0.73807  0.75610  0.95006  Biso   1.000  C
  C38      1.0000 0.76193  0.25610  0.54994  Biso   1.000  C
  C39      1.0000 0.26193  0.24390  0.04994  Biso   1.000  C
  C40      1.0000 0.23807  0.74390  0.45006  Biso   1.000  C
  C41      1.0000 0.66148  0.93360  0.06092  Biso   1.000  C
  C42      1.0000 0.83852  0.43360  0.43908  Biso   1.000  C
  C43      1.0000 0.33852  0.06640  0.93908  Biso   1.000  C
  C44      1.0000 0.16148  0.56640  0.56092  Biso   1.000  C
  C45      1.0000 0.60512  0.81540  0.04456  Biso   1.000  C
  C46      1.0000 0.89488  0.31540  0.45544  Biso   1.000  C
  C47      1.0000 0.39488  0.18460  0.95544  Biso   1.000  C
  C48      1.0000 0.10512  0.68460  0.54456  Biso   1.000  C
  H41      1.0000 0.62510  0.72410  0.02290  Biso   1.000  H
  H42      1.0000 0.87490  0.22410  0.47710  Biso   1.000  H
  H43      1.0000 0.37490  0.27590  0.97710  Biso   1.000  H
  H44      1.0000 0.12510  0.77590  0.52290  Biso   1.000  H
  C49      1.0000 0.51930  0.83090  0.05991  Biso   1.000  C
  C50      1.0000 0.98070  0.33090  0.44009  Biso   1.000  C
  C51      1.0000 0.48070  0.16910  0.94009  Biso   1.000  C
  C52      1.0000 0.01930  0.66910  0.55991  Biso   1.000  C
  H45      1.0000 0.48010  0.75180  0.04710  Biso   1.000  H
  H46      1.0000 0.01990  0.25180  0.45290  Biso   1.000  H
  H47      1.0000 0.51990  0.24820  0.95290  Biso   1.000  H
  H48      1.0000 0.98010  0.74820  0.54710  Biso   1.000  H
  C53      1.0000 0.49087  0.96110  0.09374  Biso   1.000  C
  C54      1.0000 0.00913  0.46110  0.40626  Biso   1.000  C
  C55      1.0000 0.50913  0.03890  0.90626  Biso   1.000  C
  C56      1.0000 0.99087  0.53890  0.59374  Biso   1.000  C
  H49      1.0000 0.43220  0.97080  0.10420  Biso   1.000  H
  H50      1.0000 0.06780  0.47080  0.39580  Biso   1.000  H
  H51      1.0000 0.56780  0.02920  0.89580  Biso   1.000  H
  H52      1.0000 0.93220  0.52920  0.60420  Biso   1.000  H
  C57      1.0000 0.54714  0.07760  0.11251  Biso   1.000  C
  C58      1.0000 0.95286  0.57760  0.38749  Biso   1.000  C
  C59      1.0000 0.45286  0.92240  0.88749  Biso   1.000  C
  C60      1.0000 0.04714  0.42240  0.61251  Biso   1.000  C
  H53      1.0000 0.52750  0.16490  0.13750  Biso   1.000  H
  H54      1.0000 0.97250  0.66490  0.36250  Biso   1.000  H
  H55      1.0000 0.47250  0.83510  0.86250  Biso   1.000  H
  H56      1.0000 0.02750  0.33510  0.63750  Biso   1.000  H
  C61      1.0000 0.63280  0.06630  0.09464  Biso   1.000  C
  C62      1.0000 0.86720  0.56630  0.40536  Biso   1.000  C
  C63      1.0000 0.36720  0.93370  0.90536  Biso   1.000  C
  C64      1.0000 0.13280  0.43370  0.59464  Biso   1.000  C
  C65      1.0000 0.68560  0.31670  0.12847  Biso   1.000  C
  C66      1.0000 0.81440  0.81670  0.37153  Biso   1.000  C
  C67      1.0000 0.31440  0.68330  0.87153  Biso   1.000  C
  C68      1.0000 0.18560  0.18330  0.62847  Biso   1.000  C
  C69      1.0000 0.59653  0.38980  0.12148  Biso   1.000  C
  C70      1.0000 0.90347  0.88980  0.37852  Biso   1.000  C
  C71      1.0000 0.40347  0.61020  0.87852  Biso   1.000  C
  C72      1.0000 0.09653  0.11020  0.62148  Biso   1.000  C
  C73      1.0000 0.75141  0.42090  0.15485  Biso   1.000  C
  C74      1.0000 0.74859  0.92090  0.34515  Biso   1.000  C
  C75      1.0000 0.24859  0.57910  0.84515  Biso   1.000  C
  C76      1.0000 0.25141  0.07910  0.65485  Biso   1.000  C
  C77      1.0000 0.72929  0.57800  0.16138  Biso   1.000  C
  C78      1.0000 0.77071  0.07800  0.33862  Biso   1.000  C
  C79      1.0000 0.27071  0.42200  0.83862  Biso   1.000  C
  C80      1.0000 0.22929  0.92200  0.66138  Biso   1.000  C
  H57      1.0000 0.67390  0.61050  0.14640  Biso   1.000  H
  H58      1.0000 0.82610  0.11050  0.35360  Biso   1.000  H
  H59      1.0000 0.32610  0.38950  0.85360  Biso   1.000  H
  H60      1.0000 0.17390  0.88950  0.64640  Biso   1.000  H
  C81      1.0000 0.78535  0.68500  0.18863  Biso   1.000  C
  C82      1.0000 0.71465  0.18500  0.31137  Biso   1.000  C
  C83      1.0000 0.21465  0.31500  0.81137  Biso   1.000  C
  C84      1.0000 0.28535  0.81500  0.68863  Biso   1.000  C
  H61      1.0000 0.76960  0.79030  0.19140  Biso   1.000  H
  H62      1.0000 0.73040  0.29030  0.30860  Biso   1.000  H
  H63      1.0000 0.23040  0.20970  0.80860  Biso   1.000  H
  H64      1.0000 0.26960  0.70970  0.69140  Biso   1.000  H
  C85      1.0000 0.86529  0.63670  0.21206  Biso   1.000  C
  C86      1.0000 0.63471  0.13670  0.28794  Biso   1.000  C
  C87      1.0000 0.13471  0.36330  0.78794  Biso   1.000  C
  C88      1.0000 0.36529  0.86330  0.71206  Biso   1.000  C
  H65      1.0000 0.90450  0.70970  0.23120  Biso   1.000  H
  H66      1.0000 0.59550  0.20970  0.26880  Biso   1.000  H
  H67      1.0000 0.09550  0.29030  0.76880  Biso   1.000  H
  H68      1.0000 0.40450  0.79030  0.73120  Biso   1.000  H
  C89      1.0000 0.88873  0.48430  0.20804  Biso   1.000  C
  C90      1.0000 0.61127  0.98430  0.29196  Biso   1.000  C
  C91      1.0000 0.11127  0.51570  0.79196  Biso   1.000  C
  C92      1.0000 0.38873  0.01570  0.70804  Biso   1.000  C
  H69      1.0000 0.94340  0.45380  0.22540  Biso   1.000  H
  H70      1.0000 0.55660  0.95380  0.27460  Biso   1.000  H
  H71      1.0000 0.05660  0.54620  0.77460  Biso   1.000  H
  H72      1.0000 0.44340  0.04620  0.72540  Biso   1.000  H
  C93      1.0000 0.83341  0.37290  0.17876  Biso   1.000  C
  C94      1.0000 0.66659  0.87290  0.32124  Biso   1.000  C
  C95      1.0000 0.16659  0.62710  0.82124  Biso   1.000  C
  C96      1.0000 0.33341  0.12710  0.67876  Biso   1.000  C
  O37      1.0000 0.75529  0.09320  0.82964  Biso   1.000  O
  O38      1.0000 0.74471  0.59320  0.67036  Biso   1.000  O
  O39      1.0000 0.24471  0.90680  0.17036  Biso   1.000  O
  O40      1.0000 0.25529  0.40680  0.32964  Biso   1.000  O
  H73      1.0000 0.76640  0.18490  0.84450  Biso   1.000  H
  H74      1.0000 0.73360  0.68490  0.65550  Biso   1.000  H
  H75      1.0000 0.23360  0.81510  0.15550  Biso   1.000  H
  H76      1.0000 0.26640  0.31510  0.34450  Biso   1.000  H
  H77      1.0000 0.74630  0.02870  0.86260  Biso   1.000  H
  H78      1.0000 0.75370  0.52870  0.63740  Biso   1.000  H
  H79      1.0000 0.25370  0.97130  0.13740  Biso   1.000  H
  H80      1.0000 0.24630  0.47130  0.36260  Biso   1.000  H
  O41      1.0000 0.29274  0.10020  0.36124  Biso   1.000  O
  O42      1.0000 0.20726  0.60020  0.13876  Biso   1.000  O
  O43      1.0000 0.70726  0.89980  0.63876  Biso   1.000  O
  O44      1.0000 0.79274  0.39980  0.86124  Biso   1.000  O
  H81      1.0000 0.33790  0.06140  0.34290  Biso   1.000  H
  H82      1.0000 0.16210  0.56140  0.15710  Biso   1.000  H
  H83      1.0000 0.66210  0.93860  0.65710  Biso   1.000  H
  H84      1.0000 0.83790  0.43860  0.84290  Biso   1.000  H
  H85      1.0000 0.27710  0.05130  0.39830  Biso   1.000  H
  H86      1.0000 0.22290  0.55130  0.10170  Biso   1.000  H
  H87      1.0000 0.72290  0.94870  0.60170  Biso   1.000  H
  H88      1.0000 0.77710  0.44870  0.89830  Biso   1.000  H
  O45      1.0000 0.11442  0.42990  0.23483  Biso   1.000  O
  O46      1.0000 0.38558  0.92990  0.26517  Biso   1.000  O
  O47      1.0000 0.88558  0.57010  0.76517  Biso   1.000  O
  O48      1.0000 0.61442  0.07010  0.73483  Biso   1.000  O
  H89      1.0000 0.16000  0.40500  0.25750  Biso   1.000  H
  H90      1.0000 0.34000  0.90500  0.24250  Biso   1.000  H
  H91      1.0000 0.84000  0.59500  0.74250  Biso   1.000  H
  H92      1.0000 0.66000  0.09500  0.75750  Biso   1.000  H
  H93      1.0000 0.07530  0.36210  0.23300  Biso   1.000  H
  H94      1.0000 0.42470  0.86210  0.26700  Biso   1.000  H
  H95      1.0000 0.92470  0.63790  0.76700  Biso   1.000  H
  H96      1.0000 0.57530  0.13790  0.73300  Biso   1.000  H
