data_image0
_cell_length_a       9.911
_cell_length_b       5.271
_cell_length_c       11.51
_cell_angle_alpha    90
_cell_angle_beta     109.33
_cell_angle_gamma    90

_symmetry_space_group_name_H-M    "P 1"
_symmetry_int_tables_number       1

loop_
  _symmetry_equiv_pos_as_xyz
  'x, y, z'

loop_
  _atom_site_label
  _atom_site_occupancy
  _atom_site_fract_x
  _atom_site_fract_y
  _atom_site_fract_z
  _atom_site_thermal_displace_type
  _atom_site_B_iso_or_equiv
  _atom_site_type_symbol
  Cu1      1.0000 0.32247  0.89080  0.54984  Biso   1.000  Cu
  Cu2      1.0000 0.67753  0.39080  0.45016  Biso   1.000  Cu
  O1       1.0000 0.01790  0.09470  0.68460  Biso   1.000  O
  O2       1.0000 0.98210  0.59470  0.31540  Biso   1.000  O
  O3       1.0000 0.18280  0.09030  0.59290  Biso   1.000  O
  O4       1.0000 0.81720  0.59030  0.40710  Biso   1.000  O
  C1       1.0000 0.10880  0.98350  0.65120  Biso   1.000  C
  C2       1.0000 0.89120  0.48350  0.34880  Biso   1.000  C
  C3       1.0000 0.12980  0.70030  0.68040  Biso   1.000  C
  C4       1.0000 0.87020  0.20030  0.31960  Biso   1.000  C
  H1       1.0000 0.03700  0.61600  0.63600  Biso   1.000  H
  H2       1.0000 0.96300  0.11600  0.36400  Biso   1.000  H
  O5       1.0000 0.23540  0.60680  0.63170  Biso   1.000  O
  O6       1.0000 0.76460  0.10680  0.36830  Biso   1.000  O
  H3       1.0000 0.21800  0.47700  0.61600  Biso   1.000  H
  H4       1.0000 0.78200  0.97700  0.38400  Biso   1.000  H
  C5       1.0000 0.16920  0.64010  0.81610  Biso   1.000  C
  C6       1.0000 0.83080  0.14010  0.18390  Biso   1.000  C
  H5       1.0000 0.10100  0.72200  0.84700  Biso   1.000  H
  H6       1.0000 0.89900  0.22200  0.15300  Biso   1.000  H
  H7       1.0000 0.16600  0.47000  0.83200  Biso   1.000  H
  H8       1.0000 0.83400  0.97000  0.16800  Biso   1.000  H
  C7       1.0000 0.31590  0.73220  0.89290  Biso   1.000  C
  C8       1.0000 0.68410  0.23220  0.10710  Biso   1.000  C
  O7       1.0000 0.40330  0.59620  0.96040  Biso   1.000  O
  O8       1.0000 0.59670  0.09620  0.03960  Biso   1.000  O
  O9       1.0000 0.33280  0.97480  0.88210  Biso   1.000  O
  O10      1.0000 0.66720  0.47480  0.11790  Biso   1.000  O
  H9       1.0000 0.40900  0.99600  0.93600  Biso   1.000  H
  H10      1.0000 0.59100  0.49600  0.06400  Biso   1.000  H
  O11      1.0000 0.44710  0.67390  0.49749  Biso   1.000  O
  O12      1.0000 0.55290  0.17390  0.50251  Biso   1.000  O
  O13      1.0000 0.51460  0.57520  0.33730  Biso   1.000  O
  O14      1.0000 0.48540  0.07520  0.66270  Biso   1.000  O
  C9       1.0000 0.42780  0.66980  0.38430  Biso   1.000  C
  C10      1.0000 0.57220  0.16980  0.61570  Biso   1.000  C
  C11      1.0000 0.29060  0.77910  0.29420  Biso   1.000  C
  C12      1.0000 0.70940  0.27910  0.70580  Biso   1.000  C
  H11      1.0000 0.24000  0.63300  0.25000  Biso   1.000  H
  H12      1.0000 0.76000  0.13300  0.75000  Biso   1.000  H
  O15      1.0000 0.20656  0.88500  0.36355  Biso   1.000  O
  O16      1.0000 0.79344  0.38500  0.63645  Biso   1.000  O
  H13      1.0000 0.14700  0.79300  0.35000  Biso   1.000  H
  H14      1.0000 0.85300  0.29300  0.65000  Biso   1.000  H
  C13      1.0000 0.31980  0.98170  0.21300  Biso   1.000  C
  C14      1.0000 0.68020  0.48170  0.78700  Biso   1.000  C
  H15      1.0000 0.38700  0.90300  0.16600  Biso   1.000  H
  H16      1.0000 0.61300  0.40300  0.83400  Biso   1.000  H
  H17      1.0000 0.35600  0.13200  0.25700  Biso   1.000  H
  H18      1.0000 0.64400  0.63200  0.74300  Biso   1.000  H
  C15      1.0000 0.18150  0.05810  0.11540  Biso   1.000  C
  C16      1.0000 0.81850  0.55810  0.88460  Biso   1.000  C
  O17      1.0000 0.08990  0.90450  0.06591  Biso   1.000  O
  O18      1.0000 0.91010  0.40450  0.93409  Biso   1.000  O
  O19      1.0000 0.17130  0.30190  0.09270  Biso   1.000  O
  O20      1.0000 0.82870  0.80190  0.90730  Biso   1.000  O
  H19      1.0000 0.09000  0.36600  0.04100  Biso   1.000  H
  H20      1.0000 0.91000  0.86600  0.95900  Biso   1.000  H
