data_image0
_cell_length_a       8.2593
_cell_length_b       10.9645
_cell_length_c       11.3782
_cell_angle_alpha    101.149
_cell_angle_beta     100.092
_cell_angle_gamma    108.635

_symmetry_space_group_name_H-M    "P 1"
_symmetry_int_tables_number       1

loop_
  _symmetry_equiv_pos_as_xyz
  'x, y, z'

loop_
  _atom_site_label
  _atom_site_occupancy
  _atom_site_fract_x
  _atom_site_fract_y
  _atom_site_fract_z
  _atom_site_thermal_displace_type
  _atom_site_B_iso_or_equiv
  _atom_site_type_symbol
  U1       1.0000 0.28732  0.46031  0.06031  Biso   1.000  U
  U2       1.0000 0.71268  0.53969  0.93969  Biso   1.000  U
  Cu1      1.0000 0.16050  0.04663  0.22658  Biso   1.000  Cu
  Cu2      1.0000 0.83950  0.95337  0.77342  Biso   1.000  Cu
  O1       1.0000 0.16690  0.34450  0.91590  Biso   1.000  O
  O2       1.0000 0.83310  0.65550  0.08410  Biso   1.000  O
  O3       1.0000 0.40680  0.57600  0.20580  Biso   1.000  O
  O4       1.0000 0.59320  0.42400  0.79420  Biso   1.000  O
  O5       1.0000 0.29820  0.28140  0.14420  Biso   1.000  O
  O6       1.0000 0.70180  0.71860  0.85580  Biso   1.000  O
  O7       1.0000 0.43690  0.16240  0.21800  Biso   1.000  O
  O8       1.0000 0.56310  0.83760  0.78200  Biso   1.000  O
  O9       1.0000 0.04020  0.39890  0.14990  Biso   1.000  O
  O10      1.0000 0.95980  0.60110  0.85010  Biso   1.000  O
  O11      1.0000 0.84110  0.38490  0.98370  Biso   1.000  O
  O12      1.0000 0.15890  0.61510  0.01630  Biso   1.000  O
  O13      1.0000 0.54140  0.40820  0.04880  Biso   1.000  O
  O14      1.0000 0.45860  0.59180  0.95120  Biso   1.000  O
  O15      1.0000 0.14830  0.93480  0.06760  Biso   1.000  O
  O16      1.0000 0.85170  0.06520  0.93240  Biso   1.000  O
  O17      1.0000 0.03860  0.91620  0.86760  Biso   1.000  O
  O18      1.0000 0.96140  0.08380  0.13240  Biso   1.000  O
  N1       1.0000 0.16900  0.16390  0.38410  Biso   1.000  N
  N2       1.0000 0.83100  0.83610  0.61590  Biso   1.000  N
  N3       1.0000 0.22270  0.93540  0.33630  Biso   1.000  N
  N4       1.0000 0.77730  0.06460  0.66370  Biso   1.000  N
  C1       1.0000 0.42860  0.24690  0.16150  Biso   1.000  C
  C2       1.0000 0.57140  0.75310  0.83850  Biso   1.000  C
  C3       1.0000 0.57080  0.30780  0.09770  Biso   1.000  C
  C4       1.0000 0.42920  0.69220  0.90230  Biso   1.000  C
  H1       1.0000 0.54270  0.23420  0.02130  Biso   1.000  H
  H2       1.0000 0.45730  0.76580  0.97870  Biso   1.000  H
  C5       1.0000 0.74100  0.32180  0.15710  Biso   1.000  C
  C6       1.0000 0.25900  0.67820  0.84290  Biso   1.000  C
  H3       1.0000 0.73760  0.23380  0.16860  Biso   1.000  H
  H4       1.0000 0.26240  0.76620  0.83140  Biso   1.000  H
  H5       1.0000 0.77430  0.38390  0.24060  Biso   1.000  H
  H6       1.0000 0.22570  0.61610  0.75940  Biso   1.000  H
  C7       1.0000 0.88730  0.37250  0.09220  Biso   1.000  C
  C8       1.0000 0.11270  0.62750  0.90780  Biso   1.000  C
  C9       1.0000 0.05350  0.95760  0.98110  Biso   1.000  C
  C10      1.0000 0.94650  0.04240  0.01890  Biso   1.000  C
  C11      1.0000 0.14010  0.27660  0.40200  Biso   1.000  C
  C12      1.0000 0.85990  0.72340  0.59800  Biso   1.000  C
  H7       1.0000 0.10910  0.30880  0.33290  Biso   1.000  H
  H8       1.0000 0.89090  0.69120  0.66710  Biso   1.000  H
  C13      1.0000 0.15410  0.35000  0.52130  Biso   1.000  C
  C14      1.0000 0.84590  0.65000  0.47870  Biso   1.000  C
  H9       1.0000 0.13470  0.43190  0.53240  Biso   1.000  H
  H10      1.0000 0.86530  0.56810  0.46760  Biso   1.000  H
  C15      1.0000 0.19580  0.30430  0.62230  Biso   1.000  C
  C16      1.0000 0.80420  0.69570  0.37770  Biso   1.000  C
  H11      1.0000 0.20450  0.35390  0.70290  Biso   1.000  H
  H12      1.0000 0.79550  0.64610  0.29710  Biso   1.000  H
  C17      1.0000 0.22550  0.18410  0.60560  Biso   1.000  C
  C18      1.0000 0.77450  0.81590  0.39440  Biso   1.000  C
  C19      1.0000 0.21080  0.11680  0.48320  Biso   1.000  C
  C20      1.0000 0.78920  0.88320  0.51680  Biso   1.000  C
  C21      1.0000 0.23950  0.99390  0.45760  Biso   1.000  C
  C22      1.0000 0.76050  0.00610  0.54240  Biso   1.000  C
  C23      1.0000 0.28630  0.93990  0.55450  Biso   1.000  C
  C24      1.0000 0.71370  0.06010  0.44550  Biso   1.000  C
  C25      1.0000 0.30150  0.01290  0.67900  Biso   1.000  C
  C26      1.0000 0.69850  0.98710  0.32100  Biso   1.000  C
  H13      1.0000 0.33360  0.97820  0.74600  Biso   1.000  H
  H14      1.0000 0.66640  0.02180  0.25400  Biso   1.000  H
  C27      1.0000 0.27220  0.12640  0.70310  Biso   1.000  C
  C28      1.0000 0.72780  0.87360  0.29690  Biso   1.000  C
  H15      1.0000 0.28240  0.17000  0.78630  Biso   1.000  H
  H16      1.0000 0.71760  0.83000  0.21370  Biso   1.000  H
  C29      1.0000 0.31690  0.82060  0.52270  Biso   1.000  C
  C30      1.0000 0.68310  0.17940  0.47730  Biso   1.000  C
  H17      1.0000 0.35140  0.78110  0.58510  Biso   1.000  H
  H18      1.0000 0.64860  0.21890  0.41490  Biso   1.000  H
  C31      1.0000 0.29640  0.76180  0.40080  Biso   1.000  C
  C32      1.0000 0.70360  0.23820  0.59920  Biso   1.000  C
  H19      1.0000 0.31510  0.68020  0.37830  Biso   1.000  H
  H20      1.0000 0.68490  0.31980  0.62170  Biso   1.000  H
  C33      1.0000 0.24800  0.82150  0.30890  Biso   1.000  C
  C34      1.0000 0.75200  0.17850  0.69110  Biso   1.000  C
  H21      1.0000 0.23290  0.77870  0.22460  Biso   1.000  H
  H22      1.0000 0.76710  0.22130  0.77540  Biso   1.000  H
