data_image0
_cell_length_a       7.5385
_cell_length_b       7.5385
_cell_length_c       22.7308
_cell_angle_alpha    90
_cell_angle_beta     90
_cell_angle_gamma    90

_symmetry_space_group_name_H-M    "P 1"
_symmetry_int_tables_number       1

loop_
  _symmetry_equiv_pos_as_xyz
  'x, y, z'

loop_
  _atom_site_label
  _atom_site_occupancy
  _atom_site_fract_x
  _atom_site_fract_y
  _atom_site_fract_z
  _atom_site_thermal_displace_type
  _atom_site_B_iso_or_equiv
  _atom_site_type_symbol
  Cu1      1.0000 0.80916  0.65734  0.17131  Biso   1.000  Cu
  Cu2      1.0000 0.34266  0.80916  0.42131  Biso   1.000  Cu
  Cu3      1.0000 0.19084  0.34266  0.67131  Biso   1.000  Cu
  Cu4      1.0000 0.65734  0.19084  0.92131  Biso   1.000  Cu
  O1       1.0000 0.33170  0.97990  0.35701  Biso   1.000  O
  O2       1.0000 0.02010  0.33170  0.60701  Biso   1.000  O
  O3       1.0000 0.66830  0.02010  0.85701  Biso   1.000  O
  O4       1.0000 0.97990  0.66830  0.10701  Biso   1.000  O
  O5       1.0000 0.62240  0.99610  0.36991  Biso   1.000  O
  O6       1.0000 0.00390  0.62240  0.61991  Biso   1.000  O
  O7       1.0000 0.37760  0.00390  0.86991  Biso   1.000  O
  O8       1.0000 0.99610  0.37760  0.11991  Biso   1.000  O
  O9       1.0000 0.62960  0.69970  0.22976  Biso   1.000  O
  O10      1.0000 0.30030  0.62960  0.47976  Biso   1.000  O
  O11      1.0000 0.37040  0.30030  0.72976  Biso   1.000  O
  O12      1.0000 0.69970  0.37040  0.97976  Biso   1.000  O
  O13      1.0000 0.33790  0.70280  0.24212  Biso   1.000  O
  O14      1.0000 0.29720  0.33790  0.49212  Biso   1.000  O
  O15      1.0000 0.66210  0.29720  0.74212  Biso   1.000  O
  O16      1.0000 0.70280  0.66210  0.99212  Biso   1.000  O
  O17      1.0000 0.98720  0.72250  0.22784  Biso   1.000  O
  O18      1.0000 0.27750  0.98720  0.47784  Biso   1.000  O
  O19      1.0000 0.01280  0.27750  0.72784  Biso   1.000  O
  O20      1.0000 0.72250  0.01280  0.97784  Biso   1.000  O
  H1       1.0000 0.09910  0.71680  0.23220  Biso   1.000  H
  H2       1.0000 0.28320  0.09910  0.48220  Biso   1.000  H
  H3       1.0000 0.90090  0.28320  0.73220  Biso   1.000  H
  H4       1.0000 0.71680  0.90090  0.98220  Biso   1.000  H
  H5       1.0000 0.93940  0.77200  0.25750  Biso   1.000  H
  H6       1.0000 0.22800  0.93940  0.50750  Biso   1.000  H
  H7       1.0000 0.06060  0.22800  0.75750  Biso   1.000  H
  H8       1.0000 0.77200  0.06060  0.00750  Biso   1.000  H
  N1       1.0000 0.60470  0.58300  0.11968  Biso   1.000  N
  N2       1.0000 0.41700  0.60470  0.36968  Biso   1.000  N
  N3       1.0000 0.39530  0.41700  0.61968  Biso   1.000  N
  N4       1.0000 0.58300  0.39530  0.86968  Biso   1.000  N
  H9       1.0000 0.62620  0.62280  0.08260  Biso   1.000  H
  H10      1.0000 0.37720  0.62620  0.33260  Biso   1.000  H
  H11      1.0000 0.37380  0.37720  0.58260  Biso   1.000  H
  H12      1.0000 0.62280  0.37380  0.83260  Biso   1.000  H
  C1       1.0000 0.48800  0.02710  0.34037  Biso   1.000  C
  C2       1.0000 0.97290  0.48800  0.59037  Biso   1.000  C
  C3       1.0000 0.51200  0.97290  0.84037  Biso   1.000  C
  C4       1.0000 0.02710  0.51200  0.09037  Biso   1.000  C
  C5       1.0000 0.50190  0.12640  0.28346  Biso   1.000  C
  C6       1.0000 0.87360  0.50190  0.53346  Biso   1.000  C
  C7       1.0000 0.49810  0.87360  0.78346  Biso   1.000  C
  C8       1.0000 0.12640  0.49810  0.03346  Biso   1.000  C
  C9       1.0000 0.35520  0.17100  0.25003  Biso   1.000  C
  C10      1.0000 0.82900  0.35520  0.50003  Biso   1.000  C
  C11      1.0000 0.64480  0.82900  0.75003  Biso   1.000  C
  C12      1.0000 0.17100  0.64480  0.00003  Biso   1.000  C
  H13      1.0000 0.24220  0.14200  0.26330  Biso   1.000  H
  H14      1.0000 0.85800  0.24220  0.51330  Biso   1.000  H
  H15      1.0000 0.75780  0.85800  0.76330  Biso   1.000  H
  H16      1.0000 0.14200  0.75780  0.01330  Biso   1.000  H
  C13      1.0000 0.37560  0.25840  0.19700  Biso   1.000  C
  C14      1.0000 0.74160  0.37560  0.44700  Biso   1.000  C
  C15      1.0000 0.62440  0.74160  0.69700  Biso   1.000  C
  C16      1.0000 0.25840  0.62440  0.94700  Biso   1.000  C
  H17      1.0000 0.27550  0.28890  0.17540  Biso   1.000  H
  H18      1.0000 0.71110  0.27550  0.42540  Biso   1.000  H
  H19      1.0000 0.72450  0.71110  0.67540  Biso   1.000  H
  H20      1.0000 0.28890  0.72450  0.92540  Biso   1.000  H
  C17      1.0000 0.54290  0.30180  0.17526  Biso   1.000  C
  C18      1.0000 0.69820  0.54290  0.42526  Biso   1.000  C
  C19      1.0000 0.45710  0.69820  0.67526  Biso   1.000  C
  C20      1.0000 0.30180  0.45710  0.92526  Biso   1.000  C
  C21      1.0000 0.68960  0.25830  0.21007  Biso   1.000  C
  C22      1.0000 0.74170  0.68960  0.46007  Biso   1.000  C
  C23      1.0000 0.31040  0.74170  0.71007  Biso   1.000  C
  C24      1.0000 0.25830  0.31040  0.96007  Biso   1.000  C
  H21      1.0000 0.80290  0.28740  0.19710  Biso   1.000  H
  H22      1.0000 0.71260  0.80290  0.44710  Biso   1.000  H
  H23      1.0000 0.19710  0.71260  0.69710  Biso   1.000  H
  H24      1.0000 0.28740  0.19710  0.94710  Biso   1.000  H
  C25      1.0000 0.66890  0.17300  0.26314  Biso   1.000  C
  C26      1.0000 0.82700  0.66890  0.51314  Biso   1.000  C
  C27      1.0000 0.33110  0.82700  0.76314  Biso   1.000  C
  C28      1.0000 0.17300  0.33110  0.01314  Biso   1.000  C
  H25      1.0000 0.76830  0.14630  0.28570  Biso   1.000  H
  H26      1.0000 0.85370  0.76830  0.53570  Biso   1.000  H
  H27      1.0000 0.23170  0.85370  0.78570  Biso   1.000  H
  H28      1.0000 0.14630  0.23170  0.03570  Biso   1.000  H
  C29      1.0000 0.56760  0.38760  0.11643  Biso   1.000  C
  C30      1.0000 0.61240  0.56760  0.36643  Biso   1.000  C
  C31      1.0000 0.43240  0.61240  0.61643  Biso   1.000  C
  C32      1.0000 0.38760  0.43240  0.86643  Biso   1.000  C
  H29      1.0000 0.46130  0.36910  0.09320  Biso   1.000  H
  H30      1.0000 0.63090  0.46130  0.34320  Biso   1.000  H
  H31      1.0000 0.53870  0.63090  0.59320  Biso   1.000  H
  H32      1.0000 0.36910  0.53870  0.84320  Biso   1.000  H
  H33      1.0000 0.66510  0.32980  0.09630  Biso   1.000  H
  H34      1.0000 0.67020  0.66510  0.34630  Biso   1.000  H
  H35      1.0000 0.33490  0.67020  0.59630  Biso   1.000  H
  H36      1.0000 0.32980  0.33490  0.84630  Biso   1.000  H
  C33      1.0000 0.47100  0.69350  0.21054  Biso   1.000  C
  C34      1.0000 0.30650  0.47100  0.46054  Biso   1.000  C
  C35      1.0000 0.52900  0.30650  0.71054  Biso   1.000  C
  C36      1.0000 0.69350  0.52900  0.96054  Biso   1.000  C
  C37      1.0000 0.44970  0.68190  0.14351  Biso   1.000  C
  C38      1.0000 0.31810  0.44970  0.39351  Biso   1.000  C
  C39      1.0000 0.55030  0.31810  0.64351  Biso   1.000  C
  C40      1.0000 0.68190  0.55030  0.89351  Biso   1.000  C
  H37      1.0000 0.34050  0.61730  0.13420  Biso   1.000  H
  H38      1.0000 0.38270  0.34050  0.38420  Biso   1.000  H
  H39      1.0000 0.65950  0.38270  0.63420  Biso   1.000  H
  H40      1.0000 0.61730  0.65950  0.88420  Biso   1.000  H
  C41      1.0000 0.44140  0.86540  0.11656  Biso   1.000  C
  C42      1.0000 0.13460  0.44140  0.36656  Biso   1.000  C
  C43      1.0000 0.55860  0.13460  0.61656  Biso   1.000  C
  C44      1.0000 0.86540  0.55860  0.86656  Biso   1.000  C
  H41      1.0000 0.42960  0.85540  0.07460  Biso   1.000  H
  H42      1.0000 0.14460  0.42960  0.32460  Biso   1.000  H
  H43      1.0000 0.57040  0.14460  0.57460  Biso   1.000  H
  H44      1.0000 0.85540  0.57040  0.82460  Biso   1.000  H
  H45      1.0000 0.54810  0.92900  0.12580  Biso   1.000  H
  H46      1.0000 0.07100  0.54810  0.37580  Biso   1.000  H
  H47      1.0000 0.45190  0.07100  0.62580  Biso   1.000  H
  H48      1.0000 0.92900  0.45190  0.87580  Biso   1.000  H
  H49      1.0000 0.34110  0.92820  0.13220  Biso   1.000  H
  H50      1.0000 0.07180  0.34110  0.38220  Biso   1.000  H
  H51      1.0000 0.65890  0.07180  0.63220  Biso   1.000  H
  H52      1.0000 0.92820  0.65890  0.88220  Biso   1.000  H
  O21      1.0000 0.97060  0.88230  0.33389  Biso   1.000  O
  O22      1.0000 0.11770  0.97060  0.58389  Biso   1.000  O
  O23      1.0000 0.02940  0.11770  0.83389  Biso   1.000  O
  O24      1.0000 0.88230  0.02940  0.08389  Biso   1.000  O
  H53      1.0000 0.07780  0.91080  0.34060  Biso   1.000  H
  H54      1.0000 0.08920  0.07780  0.59060  Biso   1.000  H
  H55      1.0000 0.92220  0.08920  0.84060  Biso   1.000  H
  H56      1.0000 0.91080  0.92220  0.09060  Biso   1.000  H
  H57      1.0000 0.87200  0.93100  0.34210  Biso   1.000  H
  H58      1.0000 0.06900  0.87200  0.59210  Biso   1.000  H
  H59      1.0000 0.12800  0.06900  0.84210  Biso   1.000  H
  H60      1.0000 0.93100  0.12800  0.09210  Biso   1.000  H
