data_image0
_cell_length_a       7.5156
_cell_length_b       7.5156
_cell_length_c       22.679
_cell_angle_alpha    90
_cell_angle_beta     90
_cell_angle_gamma    90

_symmetry_space_group_name_H-M    "P 1"
_symmetry_int_tables_number       1

loop_
  _symmetry_equiv_pos_as_xyz
  'x, y, z'

loop_
  _atom_site_label
  _atom_site_occupancy
  _atom_site_fract_x
  _atom_site_fract_y
  _atom_site_fract_z
  _atom_site_thermal_displace_type
  _atom_site_B_iso_or_equiv
  _atom_site_type_symbol
  Cu1      1.0000 0.66280  0.81078  0.25532  Biso   1.000  Cu
  Cu2      1.0000 0.33720  0.18922  0.75532  Biso   1.000  Cu
  Cu3      1.0000 0.18922  0.66280  0.00532  Biso   1.000  Cu
  Cu4      1.0000 0.81078  0.33720  0.50532  Biso   1.000  Cu
  O1       1.0000 0.66280  0.70660  0.07663  Biso   1.000  O
  O2       1.0000 0.33720  0.29340  0.57663  Biso   1.000  O
  O3       1.0000 0.29340  0.66280  0.82663  Biso   1.000  O
  O4       1.0000 0.70660  0.33720  0.32663  Biso   1.000  O
  O5       1.0000 0.67100  0.98160  0.19122  Biso   1.000  O
  O6       1.0000 0.32900  0.01840  0.69122  Biso   1.000  O
  O7       1.0000 0.01840  0.67100  0.94122  Biso   1.000  O
  O8       1.0000 0.98160  0.32900  0.44122  Biso   1.000  O
  O9       1.0000 0.36980  0.70350  0.06399  Biso   1.000  O
  O10      1.0000 0.63020  0.29650  0.56399  Biso   1.000  O
  O11      1.0000 0.29650  0.36980  0.81399  Biso   1.000  O
  O12      1.0000 0.70350  0.63020  0.31399  Biso   1.000  O
  O13      1.0000 0.72600  0.98750  0.31258  Biso   1.000  O
  O14      1.0000 0.27400  0.01250  0.81258  Biso   1.000  O
  O15      1.0000 0.01250  0.72600  0.06258  Biso   1.000  O
  O16      1.0000 0.98750  0.27400  0.56258  Biso   1.000  O
  H1       1.0000 0.82820  0.03150  0.30370  Biso   1.000  H
  H2       1.0000 0.17180  0.96850  0.80370  Biso   1.000  H
  H3       1.0000 0.96850  0.82820  0.05370  Biso   1.000  H
  H4       1.0000 0.03150  0.17180  0.55370  Biso   1.000  H
  H5       1.0000 0.64750  0.07060  0.31260  Biso   1.000  H
  H6       1.0000 0.35250  0.92940  0.81260  Biso   1.000  H
  H7       1.0000 0.92940  0.64750  0.06260  Biso   1.000  H
  H8       1.0000 0.07060  0.35250  0.56260  Biso   1.000  H
  O17      1.0000 0.37880  0.99660  0.20424  Biso   1.000  O
  O18      1.0000 0.62120  0.00340  0.70424  Biso   1.000  O
  O19      1.0000 0.00340  0.37880  0.95424  Biso   1.000  O
  O20      1.0000 0.99660  0.62120  0.45424  Biso   1.000  O
  N1       1.0000 0.39390  0.58720  0.95384  Biso   1.000  N
  N2       1.0000 0.60610  0.41280  0.45384  Biso   1.000  N
  N3       1.0000 0.41280  0.39390  0.70384  Biso   1.000  N
  N4       1.0000 0.58720  0.60610  0.20384  Biso   1.000  N
  H9       1.0000 0.29500  0.63600  0.94370  Biso   1.000  H
  H10      1.0000 0.70500  0.36400  0.44370  Biso   1.000  H
  H11      1.0000 0.36400  0.29500  0.69370  Biso   1.000  H
  H12      1.0000 0.63600  0.70500  0.19370  Biso   1.000  H
  C1       1.0000 0.52770  0.69890  0.04461  Biso   1.000  C
  C2       1.0000 0.47230  0.30110  0.54461  Biso   1.000  C
  C3       1.0000 0.30110  0.52770  0.79461  Biso   1.000  C
  C4       1.0000 0.69890  0.47230  0.29461  Biso   1.000  C
  C5       1.0000 0.54930  0.68580  0.97713  Biso   1.000  C
  C6       1.0000 0.45070  0.31420  0.47713  Biso   1.000  C
  C7       1.0000 0.31420  0.54930  0.72713  Biso   1.000  C
  C8       1.0000 0.68580  0.45070  0.22713  Biso   1.000  C
  H13      1.0000 0.65860  0.62050  0.96780  Biso   1.000  H
  H14      1.0000 0.34140  0.37950  0.46780  Biso   1.000  H
  H15      1.0000 0.37950  0.65860  0.71780  Biso   1.000  H
  H16      1.0000 0.62050  0.34140  0.21780  Biso   1.000  H
  C9       1.0000 0.32950  0.17550  0.09740  Biso   1.000  C
  C10      1.0000 0.67050  0.82450  0.59740  Biso   1.000  C
  C11      1.0000 0.82450  0.32950  0.84740  Biso   1.000  C
  C12      1.0000 0.17550  0.67050  0.34740  Biso   1.000  C
  H17      1.0000 0.22990  0.14840  0.12010  Biso   1.000  H
  H18      1.0000 0.77010  0.85160  0.62010  Biso   1.000  H
  H19      1.0000 0.85160  0.22990  0.87010  Biso   1.000  H
  H20      1.0000 0.14840  0.77010  0.37010  Biso   1.000  H
  C13      1.0000 0.51520  0.02890  0.17457  Biso   1.000  C
  C14      1.0000 0.48480  0.97110  0.67457  Biso   1.000  C
  C15      1.0000 0.97110  0.51520  0.92457  Biso   1.000  C
  C16      1.0000 0.02890  0.48480  0.42457  Biso   1.000  C
  C17      1.0000 0.49940  0.12820  0.11753  Biso   1.000  C
  C18      1.0000 0.50060  0.87180  0.61753  Biso   1.000  C
  C19      1.0000 0.87180  0.49940  0.86753  Biso   1.000  C
  C20      1.0000 0.12820  0.50060  0.36753  Biso   1.000  C
  C21      1.0000 0.45610  0.30540  0.00972  Biso   1.000  C
  C22      1.0000 0.54390  0.69460  0.50972  Biso   1.000  C
  C23      1.0000 0.69460  0.45610  0.75972  Biso   1.000  C
  C24      1.0000 0.30540  0.54390  0.25972  Biso   1.000  C
  C25      1.0000 0.30950  0.26230  0.04416  Biso   1.000  C
  C26      1.0000 0.69050  0.73770  0.54416  Biso   1.000  C
  C27      1.0000 0.73770  0.30950  0.79416  Biso   1.000  C
  C28      1.0000 0.26230  0.69050  0.29416  Biso   1.000  C
  H21      1.0000 0.19600  0.29230  0.03110  Biso   1.000  H
  H22      1.0000 0.80400  0.70770  0.53110  Biso   1.000  H
  H23      1.0000 0.70770  0.19600  0.78110  Biso   1.000  H
  H24      1.0000 0.29230  0.80400  0.28110  Biso   1.000  H
  C29      1.0000 0.62570  0.26190  0.03065  Biso   1.000  C
  C30      1.0000 0.37430  0.73810  0.53065  Biso   1.000  C
  C31      1.0000 0.73810  0.62570  0.78065  Biso   1.000  C
  C32      1.0000 0.26190  0.37430  0.28065  Biso   1.000  C
  H25      1.0000 0.72550  0.29290  0.00870  Biso   1.000  H
  H26      1.0000 0.27450  0.70710  0.50870  Biso   1.000  H
  H27      1.0000 0.70710  0.72550  0.75870  Biso   1.000  H
  H28      1.0000 0.29290  0.27450  0.25870  Biso   1.000  H
  C33      1.0000 0.64660  0.17320  0.08371  Biso   1.000  C
  C34      1.0000 0.35340  0.82680  0.58371  Biso   1.000  C
  C35      1.0000 0.82680  0.64660  0.83371  Biso   1.000  C
  C36      1.0000 0.17320  0.35340  0.33371  Biso   1.000  C
  H29      1.0000 0.76010  0.14360  0.09680  Biso   1.000  H
  H30      1.0000 0.23990  0.85640  0.59680  Biso   1.000  H
  H31      1.0000 0.85640  0.76010  0.84680  Biso   1.000  H
  H32      1.0000 0.14360  0.23990  0.34680  Biso   1.000  H
  C37      1.0000 0.43080  0.39190  0.95031  Biso   1.000  C
  C38      1.0000 0.56920  0.60810  0.45031  Biso   1.000  C
  C39      1.0000 0.60810  0.43080  0.70031  Biso   1.000  C
  C40      1.0000 0.39190  0.56920  0.20031  Biso   1.000  C
  H33      1.0000 0.53720  0.37340  0.92690  Biso   1.000  H
  H34      1.0000 0.46280  0.62660  0.42690  Biso   1.000  H
  H35      1.0000 0.62660  0.53720  0.67690  Biso   1.000  H
  H36      1.0000 0.37340  0.46280  0.17690  Biso   1.000  H
  H37      1.0000 0.33270  0.33420  0.93020  Biso   1.000  H
  H38      1.0000 0.66730  0.66580  0.43020  Biso   1.000  H
  H39      1.0000 0.66580  0.33270  0.68020  Biso   1.000  H
  H40      1.0000 0.33420  0.66730  0.18020  Biso   1.000  H
  C41      1.0000 0.55910  0.87110  0.95097  Biso   1.000  C
  C42      1.0000 0.44090  0.12890  0.45097  Biso   1.000  C
  C43      1.0000 0.12890  0.55910  0.70097  Biso   1.000  C
  C44      1.0000 0.87110  0.44090  0.20097  Biso   1.000  C
  H41      1.0000 0.57220  0.86270  0.90900  Biso   1.000  H
  H42      1.0000 0.42780  0.13730  0.40900  Biso   1.000  H
  H43      1.0000 0.13730  0.57220  0.65900  Biso   1.000  H
  H44      1.0000 0.86270  0.42780  0.15900  Biso   1.000  H
  H45      1.0000 0.65940  0.93300  0.96730  Biso   1.000  H
  H46      1.0000 0.34060  0.06700  0.46730  Biso   1.000  H
  H47      1.0000 0.06700  0.65940  0.71730  Biso   1.000  H
  H48      1.0000 0.93300  0.34060  0.21730  Biso   1.000  H
  H49      1.0000 0.45190  0.93490  0.96010  Biso   1.000  H
  H50      1.0000 0.54810  0.06510  0.46010  Biso   1.000  H
  H51      1.0000 0.06510  0.45190  0.71010  Biso   1.000  H
  H52      1.0000 0.93490  0.54810  0.21010  Biso   1.000  H
  O21      1.0000 0.03240  0.88330  0.16914  Biso   1.000  O
  O22      1.0000 0.96760  0.11670  0.66914  Biso   1.000  O
  O23      1.0000 0.11670  0.03240  0.91914  Biso   1.000  O
  O24      1.0000 0.88330  0.96760  0.41914  Biso   1.000  O
  H53      1.0000 0.98440  0.78490  0.15820  Biso   1.000  H
  H54      1.0000 0.01560  0.21510  0.65820  Biso   1.000  H
  H55      1.0000 0.21510  0.98440  0.90820  Biso   1.000  H
  H56      1.0000 0.78490  0.01560  0.40820  Biso   1.000  H
  H57      1.0000 0.12520  0.88200  0.19140  Biso   1.000  H
  H58      1.0000 0.87480  0.11800  0.69140  Biso   1.000  H
  H59      1.0000 0.11800  0.12520  0.94140  Biso   1.000  H
  H60      1.0000 0.88200  0.87480  0.44140  Biso   1.000  H
