data_image0
_cell_length_a       7.5402
_cell_length_b       7.5402
_cell_length_c       22.7232
_cell_angle_alpha    90
_cell_angle_beta     90
_cell_angle_gamma    90

_symmetry_space_group_name_H-M    "P 1"
_symmetry_int_tables_number       1

loop_
  _symmetry_equiv_pos_as_xyz
  'x, y, z'

loop_
  _atom_site_label
  _atom_site_occupancy
  _atom_site_fract_x
  _atom_site_fract_y
  _atom_site_fract_z
  _atom_site_thermal_displace_type
  _atom_site_B_iso_or_equiv
  _atom_site_type_symbol
  Cu1      1.0000 0.34321  0.19118  0.10206  Biso   1.000  Cu
  Cu2      1.0000 0.80882  0.34321  0.85206  Biso   1.000  Cu
  Cu3      1.0000 0.65679  0.80882  0.60206  Biso   1.000  Cu
  Cu4      1.0000 0.19118  0.65679  0.35206  Biso   1.000  Cu
  O1       1.0000 0.33160  0.02080  0.03759  Biso   1.000  O
  O2       1.0000 0.97920  0.33160  0.78759  Biso   1.000  O
  O3       1.0000 0.66840  0.97920  0.53759  Biso   1.000  O
  O4       1.0000 0.02080  0.66840  0.28759  Biso   1.000  O
  O5       1.0000 0.62270  0.00410  0.05046  Biso   1.000  O
  O6       1.0000 0.99590  0.62270  0.80046  Biso   1.000  O
  O7       1.0000 0.37730  0.99590  0.55046  Biso   1.000  O
  O8       1.0000 0.00410  0.37730  0.30046  Biso   1.000  O
  O9       1.0000 0.62980  0.30110  0.91047  Biso   1.000  O
  O10      1.0000 0.69890  0.62980  0.66047  Biso   1.000  O
  O11      1.0000 0.37020  0.69890  0.41047  Biso   1.000  O
  O12      1.0000 0.30110  0.37020  0.16047  Biso   1.000  O
  O13      1.0000 0.33760  0.29830  0.92323  Biso   1.000  O
  O14      1.0000 0.70170  0.33760  0.67323  Biso   1.000  O
  O15      1.0000 0.66240  0.70170  0.42323  Biso   1.000  O
  O16      1.0000 0.29830  0.66240  0.17323  Biso   1.000  O
  O17      1.0000 0.27960  0.01300  0.15871  Biso   1.000  O
  O18      1.0000 0.98700  0.27960  0.90871  Biso   1.000  O
  O19      1.0000 0.72040  0.98700  0.65871  Biso   1.000  O
  O20      1.0000 0.01300  0.72040  0.40871  Biso   1.000  O
  H1       1.0000 0.28560  0.90130  0.16320  Biso   1.000  H
  H2       1.0000 0.09870  0.28560  0.91320  Biso   1.000  H
  H3       1.0000 0.71440  0.09870  0.66320  Biso   1.000  H
  H4       1.0000 0.90130  0.71440  0.41320  Biso   1.000  H
  H5       1.0000 0.22850  0.04070  0.19080  Biso   1.000  H
  H6       1.0000 0.95930  0.22850  0.94080  Biso   1.000  H
  H7       1.0000 0.77150  0.95930  0.69080  Biso   1.000  H
  H8       1.0000 0.04070  0.77150  0.44080  Biso   1.000  H
  N1       1.0000 0.60480  0.41780  0.80072  Biso   1.000  N
  N2       1.0000 0.58220  0.60480  0.55072  Biso   1.000  N
  N3       1.0000 0.39520  0.58220  0.30072  Biso   1.000  N
  N4       1.0000 0.41780  0.39520  0.05072  Biso   1.000  N
  H9       1.0000 0.62640  0.37790  0.76360  Biso   1.000  H
  H10      1.0000 0.62210  0.62640  0.51360  Biso   1.000  H
  H11      1.0000 0.37360  0.62210  0.26360  Biso   1.000  H
  H12      1.0000 0.37790  0.37360  0.01360  Biso   1.000  H
  C1       1.0000 0.48770  0.97330  0.02104  Biso   1.000  C
  C2       1.0000 0.02670  0.48770  0.77104  Biso   1.000  C
  C3       1.0000 0.51230  0.02670  0.52104  Biso   1.000  C
  C4       1.0000 0.97330  0.51230  0.27104  Biso   1.000  C
  C5       1.0000 0.50140  0.87390  0.96446  Biso   1.000  C
  C6       1.0000 0.12610  0.50140  0.71446  Biso   1.000  C
  C7       1.0000 0.49860  0.12610  0.46446  Biso   1.000  C
  C8       1.0000 0.87390  0.49860  0.21446  Biso   1.000  C
  C9       1.0000 0.35510  0.82990  0.93069  Biso   1.000  C
  C10      1.0000 0.17010  0.35510  0.68069  Biso   1.000  C
  C11      1.0000 0.64490  0.17010  0.43069  Biso   1.000  C
  C12      1.0000 0.82990  0.64490  0.18069  Biso   1.000  C
  H13      1.0000 0.24210  0.85980  0.94380  Biso   1.000  H
  H14      1.0000 0.14020  0.24210  0.69380  Biso   1.000  H
  H15      1.0000 0.75790  0.14020  0.44380  Biso   1.000  H
  H16      1.0000 0.85980  0.75790  0.19380  Biso   1.000  H
  C13      1.0000 0.37490  0.74170  0.87765  Biso   1.000  C
  C14      1.0000 0.25830  0.37490  0.62765  Biso   1.000  C
  C15      1.0000 0.62510  0.25830  0.37765  Biso   1.000  C
  C16      1.0000 0.74170  0.62510  0.12765  Biso   1.000  C
  H17      1.0000 0.27480  0.71100  0.85610  Biso   1.000  H
  H18      1.0000 0.28900  0.27480  0.60610  Biso   1.000  H
  H19      1.0000 0.72520  0.28900  0.35610  Biso   1.000  H
  H20      1.0000 0.71100  0.72520  0.10610  Biso   1.000  H
  C17      1.0000 0.54230  0.69840  0.85609  Biso   1.000  C
  C18      1.0000 0.30160  0.54230  0.60609  Biso   1.000  C
  C19      1.0000 0.45770  0.30160  0.35609  Biso   1.000  C
  C20      1.0000 0.69840  0.45770  0.10609  Biso   1.000  C
  C21      1.0000 0.68910  0.74190  0.89065  Biso   1.000  C
  C22      1.0000 0.25810  0.68910  0.64065  Biso   1.000  C
  C23      1.0000 0.31090  0.25810  0.39065  Biso   1.000  C
  C24      1.0000 0.74190  0.31090  0.14065  Biso   1.000  C
  H21      1.0000 0.80220  0.71250  0.87760  Biso   1.000  H
  H22      1.0000 0.28750  0.80220  0.62760  Biso   1.000  H
  H23      1.0000 0.19780  0.28750  0.37760  Biso   1.000  H
  H24      1.0000 0.71250  0.19780  0.12760  Biso   1.000  H
  C25      1.0000 0.66930  0.82760  0.94378  Biso   1.000  C
  C26      1.0000 0.17240  0.66930  0.69378  Biso   1.000  C
  C27      1.0000 0.33070  0.17240  0.44378  Biso   1.000  C
  C28      1.0000 0.82760  0.33070  0.19378  Biso   1.000  C
  H25      1.0000 0.76900  0.85490  0.96610  Biso   1.000  H
  H26      1.0000 0.14510  0.76900  0.71610  Biso   1.000  H
  H27      1.0000 0.23100  0.14510  0.46610  Biso   1.000  H
  H28      1.0000 0.85490  0.23100  0.21610  Biso   1.000  H
  C29      1.0000 0.56790  0.61300  0.79715  Biso   1.000  C
  C30      1.0000 0.38700  0.56790  0.54715  Biso   1.000  C
  C31      1.0000 0.43210  0.38700  0.29715  Biso   1.000  C
  C32      1.0000 0.61300  0.43210  0.04715  Biso   1.000  C
  H29      1.0000 0.66580  0.67070  0.77720  Biso   1.000  H
  H30      1.0000 0.32930  0.66580  0.52720  Biso   1.000  H
  H31      1.0000 0.33420  0.32930  0.27720  Biso   1.000  H
  H32      1.0000 0.67070  0.33420  0.02720  Biso   1.000  H
  H33      1.0000 0.46200  0.63160  0.77370  Biso   1.000  H
  H34      1.0000 0.36840  0.46200  0.52370  Biso   1.000  H
  H35      1.0000 0.53800  0.36840  0.27370  Biso   1.000  H
  H36      1.0000 0.63160  0.53800  0.02370  Biso   1.000  H
  C33      1.0000 0.47040  0.30670  0.89098  Biso   1.000  C
  C34      1.0000 0.69330  0.47040  0.64098  Biso   1.000  C
  C35      1.0000 0.52960  0.69330  0.39098  Biso   1.000  C
  C36      1.0000 0.30670  0.52960  0.14098  Biso   1.000  C
  C37      1.0000 0.44930  0.31920  0.82417  Biso   1.000  C
  C38      1.0000 0.68080  0.44930  0.57417  Biso   1.000  C
  C39      1.0000 0.55070  0.68080  0.32417  Biso   1.000  C
  C40      1.0000 0.31920  0.55070  0.07417  Biso   1.000  C
  H37      1.0000 0.34020  0.38380  0.81470  Biso   1.000  H
  H38      1.0000 0.61620  0.34020  0.56470  Biso   1.000  H
  H39      1.0000 0.65980  0.61620  0.31470  Biso   1.000  H
  H40      1.0000 0.38380  0.65980  0.06470  Biso   1.000  H
  C41      1.0000 0.44100  0.13450  0.79773  Biso   1.000  C
  C42      1.0000 0.86550  0.44100  0.54773  Biso   1.000  C
  C43      1.0000 0.55900  0.86550  0.29773  Biso   1.000  C
  C44      1.0000 0.13450  0.55900  0.04773  Biso   1.000  C
  H41      1.0000 0.43350  0.14330  0.75570  Biso   1.000  H
  H42      1.0000 0.85670  0.43350  0.50570  Biso   1.000  H
  H43      1.0000 0.56650  0.85670  0.25570  Biso   1.000  H
  H44      1.0000 0.14330  0.56650  0.00570  Biso   1.000  H
  H45      1.0000 0.33840  0.07370  0.81250  Biso   1.000  H
  H46      1.0000 0.92630  0.33840  0.56250  Biso   1.000  H
  H47      1.0000 0.66160  0.92630  0.31250  Biso   1.000  H
  H48      1.0000 0.07370  0.66160  0.06250  Biso   1.000  H
  H49      1.0000 0.54590  0.06980  0.80830  Biso   1.000  H
  H50      1.0000 0.93020  0.54590  0.55830  Biso   1.000  H
  H51      1.0000 0.45410  0.93020  0.30830  Biso   1.000  H
  H52      1.0000 0.06980  0.45410  0.05830  Biso   1.000  H
  O21      1.0000 0.97010  0.11600  0.01442  Biso   1.000  O
  O22      1.0000 0.88400  0.97010  0.76442  Biso   1.000  O
  O23      1.0000 0.02990  0.88400  0.51442  Biso   1.000  O
  O24      1.0000 0.11600  0.02990  0.26442  Biso   1.000  O
  H53      1.0000 0.88520  0.09570  0.03810  Biso   1.000  H
  H54      1.0000 0.90430  0.88520  0.78810  Biso   1.000  H
  H55      1.0000 0.11480  0.90430  0.53810  Biso   1.000  H
  H56      1.0000 0.09570  0.11480  0.28810  Biso   1.000  H
  H57      1.0000 0.07740  0.08810  0.02110  Biso   1.000  H
  H58      1.0000 0.91190  0.07740  0.77110  Biso   1.000  H
  H59      1.0000 0.92260  0.91190  0.52110  Biso   1.000  H
  H60      1.0000 0.08810  0.92260  0.27110  Biso   1.000  H
