data_image0
_cell_length_a       27.217
_cell_length_b       13.0383
_cell_length_c       8.5671
_cell_angle_alpha    90
_cell_angle_beta     103.215
_cell_angle_gamma    90

_symmetry_space_group_name_H-M    "P 1"
_symmetry_int_tables_number       1

loop_
  _symmetry_equiv_pos_as_xyz
  'x, y, z'

loop_
  _atom_site_label
  _atom_site_occupancy
  _atom_site_fract_x
  _atom_site_fract_y
  _atom_site_fract_z
  _atom_site_thermal_displace_type
  _atom_site_B_iso_or_equiv
  _atom_site_type_symbol
  Cu1      1.0000 0.79000  0.21622  0.10104  Biso   1.000  Cu
  Cu2      1.0000 0.29000  0.71622  0.10104  Biso   1.000  Cu
  Cu3      1.0000 0.79000  0.78378  0.60104  Biso   1.000  Cu
  Cu4      1.0000 0.29000  0.28378  0.60104  Biso   1.000  Cu
  Cu5      1.0000 0.21000  0.78378  0.89896  Biso   1.000  Cu
  Cu6      1.0000 0.71000  0.28378  0.89896  Biso   1.000  Cu
  Cu7      1.0000 0.21000  0.21622  0.39896  Biso   1.000  Cu
  Cu8      1.0000 0.71000  0.71622  0.39896  Biso   1.000  Cu
  O1       1.0000 0.75622  0.08360  0.05610  Biso   1.000  O
  O2       1.0000 0.25622  0.58360  0.05610  Biso   1.000  O
  O3       1.0000 0.75622  0.91640  0.55610  Biso   1.000  O
  O4       1.0000 0.25622  0.41640  0.55610  Biso   1.000  O
  O5       1.0000 0.24378  0.91640  0.94390  Biso   1.000  O
  O6       1.0000 0.74378  0.41640  0.94390  Biso   1.000  O
  O7       1.0000 0.24378  0.08360  0.44390  Biso   1.000  O
  O8       1.0000 0.74378  0.58360  0.44390  Biso   1.000  O
  O9       1.0000 0.68760  0.14050  0.88610  Biso   1.000  O
  O10      1.0000 0.18760  0.64050  0.88610  Biso   1.000  O
  O11      1.0000 0.68760  0.85950  0.38610  Biso   1.000  O
  O12      1.0000 0.18760  0.35950  0.38610  Biso   1.000  O
  O13      1.0000 0.31240  0.85950  0.11390  Biso   1.000  O
  O14      1.0000 0.81240  0.35950  0.11390  Biso   1.000  O
  O15      1.0000 0.31240  0.14050  0.61390  Biso   1.000  O
  O16      1.0000 0.81240  0.64050  0.61390  Biso   1.000  O
  O17      1.0000 0.81902  0.19680  0.91420  Biso   1.000  O
  O18      1.0000 0.31902  0.69680  0.91420  Biso   1.000  O
  O19      1.0000 0.81902  0.80320  0.41420  Biso   1.000  O
  O20      1.0000 0.31902  0.30320  0.41420  Biso   1.000  O
  O21      1.0000 0.18098  0.80320  0.08580  Biso   1.000  O
  O22      1.0000 0.68098  0.30320  0.08580  Biso   1.000  O
  O23      1.0000 0.18098  0.19680  0.58580  Biso   1.000  O
  O24      1.0000 0.68098  0.69680  0.58580  Biso   1.000  O
  O25      1.0000 0.75032  0.25280  0.74300  Biso   1.000  O
  O26      1.0000 0.25032  0.75280  0.74300  Biso   1.000  O
  O27      1.0000 0.75032  0.74720  0.24300  Biso   1.000  O
  O28      1.0000 0.25032  0.24720  0.24300  Biso   1.000  O
  O29      1.0000 0.24968  0.74720  0.25700  Biso   1.000  O
  O30      1.0000 0.74968  0.24720  0.25700  Biso   1.000  O
  O31      1.0000 0.24968  0.25280  0.75700  Biso   1.000  O
  O32      1.0000 0.74968  0.75280  0.75700  Biso   1.000  O
  O33      1.0000 0.00000  0.09890  0.75000  Biso   1.000  O
  O34      1.0000 0.50000  0.59890  0.75000  Biso   1.000  O
  O35      1.0000 0.00000  0.90110  0.25000  Biso   1.000  O
  O36      1.0000 0.50000  0.40110  0.25000  Biso   1.000  O
  N1       1.0000 0.85342  0.15470  0.27970  Biso   1.000  N
  N2       1.0000 0.35342  0.65470  0.27970  Biso   1.000  N
  N3       1.0000 0.85342  0.84530  0.77970  Biso   1.000  N
  N4       1.0000 0.35342  0.34530  0.77970  Biso   1.000  N
  N5       1.0000 0.14658  0.84530  0.72030  Biso   1.000  N
  N6       1.0000 0.64658  0.34530  0.72030  Biso   1.000  N
  N7       1.0000 0.14658  0.15470  0.22030  Biso   1.000  N
  N8       1.0000 0.64658  0.65470  0.22030  Biso   1.000  N
  N9       1.0000 0.97942  0.93840  0.68370  Biso   1.000  N
  N10      1.0000 0.47942  0.43840  0.68370  Biso   1.000  N
  N11      1.0000 0.97942  0.06160  0.18370  Biso   1.000  N
  N12      1.0000 0.47942  0.56160  0.18370  Biso   1.000  N
  N13      1.0000 0.02058  0.06160  0.31630  Biso   1.000  N
  N14      1.0000 0.52058  0.56160  0.31630  Biso   1.000  N
  N15      1.0000 0.02058  0.93840  0.81630  Biso   1.000  N
  N16      1.0000 0.52058  0.43840  0.81630  Biso   1.000  N
  C1       1.0000 0.85250  0.05750  0.32700  Biso   1.000  C
  C2       1.0000 0.35250  0.55750  0.32700  Biso   1.000  C
  C3       1.0000 0.85250  0.94250  0.82700  Biso   1.000  C
  C4       1.0000 0.35250  0.44250  0.82700  Biso   1.000  C
  C5       1.0000 0.14750  0.94250  0.67300  Biso   1.000  C
  C6       1.0000 0.64750  0.44250  0.67300  Biso   1.000  C
  C7       1.0000 0.14750  0.05750  0.17300  Biso   1.000  C
  C8       1.0000 0.64750  0.55750  0.17300  Biso   1.000  C
  H1       1.0000 0.82550  0.01660  0.27710  Biso   1.000  H
  H2       1.0000 0.32550  0.51660  0.27710  Biso   1.000  H
  H3       1.0000 0.82550  0.98340  0.77710  Biso   1.000  H
  H4       1.0000 0.32550  0.48340  0.77710  Biso   1.000  H
  H5       1.0000 0.17450  0.98340  0.72290  Biso   1.000  H
  H6       1.0000 0.67450  0.48340  0.72290  Biso   1.000  H
  H7       1.0000 0.17450  0.01660  0.22290  Biso   1.000  H
  H8       1.0000 0.67450  0.51660  0.22290  Biso   1.000  H
  C9       1.0000 0.88961  0.01450  0.44640  Biso   1.000  C
  C10      1.0000 0.38961  0.51450  0.44640  Biso   1.000  C
  C11      1.0000 0.88961  0.98550  0.94640  Biso   1.000  C
  C12      1.0000 0.38961  0.48550  0.94640  Biso   1.000  C
  C13      1.0000 0.11039  0.98550  0.55360  Biso   1.000  C
  C14      1.0000 0.61039  0.48550  0.55360  Biso   1.000  C
  C15      1.0000 0.11039  0.01450  0.05360  Biso   1.000  C
  C16      1.0000 0.61039  0.51450  0.05360  Biso   1.000  C
  H9       1.0000 0.88780  0.94610  0.47520  Biso   1.000  H
  H10      1.0000 0.38780  0.44610  0.47520  Biso   1.000  H
  H11      1.0000 0.88780  0.05390  0.97520  Biso   1.000  H
  H12      1.0000 0.38780  0.55390  0.97520  Biso   1.000  H
  H13      1.0000 0.11220  0.05390  0.52480  Biso   1.000  H
  H14      1.0000 0.61220  0.55390  0.52480  Biso   1.000  H
  H15      1.0000 0.11220  0.94610  0.02480  Biso   1.000  H
  H16      1.0000 0.61220  0.44610  0.02480  Biso   1.000  H
  C17      1.0000 0.92956  0.07600  0.52220  Biso   1.000  C
  C18      1.0000 0.42956  0.57600  0.52220  Biso   1.000  C
  C19      1.0000 0.92956  0.92400  0.02220  Biso   1.000  C
  C20      1.0000 0.42956  0.42400  0.02220  Biso   1.000  C
  C21      1.0000 0.07044  0.92400  0.47780  Biso   1.000  C
  C22      1.0000 0.57044  0.42400  0.47780  Biso   1.000  C
  C23      1.0000 0.07044  0.07600  0.97780  Biso   1.000  C
  C24      1.0000 0.57044  0.57600  0.97780  Biso   1.000  C
  C25      1.0000 0.93052  0.17760  0.47420  Biso   1.000  C
  C26      1.0000 0.43052  0.67760  0.47420  Biso   1.000  C
  C27      1.0000 0.93052  0.82240  0.97420  Biso   1.000  C
  C28      1.0000 0.43052  0.32240  0.97420  Biso   1.000  C
  C29      1.0000 0.06948  0.82240  0.52580  Biso   1.000  C
  C30      1.0000 0.56948  0.32240  0.52580  Biso   1.000  C
  C31      1.0000 0.06948  0.17760  0.02580  Biso   1.000  C
  C32      1.0000 0.56948  0.67760  0.02580  Biso   1.000  C
  H17      1.0000 0.95670  0.22080  0.52300  Biso   1.000  H
  H18      1.0000 0.45670  0.72080  0.52300  Biso   1.000  H
  H19      1.0000 0.95670  0.77920  0.02300  Biso   1.000  H
  H20      1.0000 0.45670  0.27920  0.02300  Biso   1.000  H
  H21      1.0000 0.04330  0.77920  0.47700  Biso   1.000  H
  H22      1.0000 0.54330  0.27920  0.47700  Biso   1.000  H
  H23      1.0000 0.04330  0.22080  0.97700  Biso   1.000  H
  H24      1.0000 0.54330  0.72080  0.97700  Biso   1.000  H
  C33      1.0000 0.89198  0.21320  0.35280  Biso   1.000  C
  C34      1.0000 0.39198  0.71320  0.35280  Biso   1.000  C
  C35      1.0000 0.89198  0.78680  0.85280  Biso   1.000  C
  C36      1.0000 0.39198  0.28680  0.85280  Biso   1.000  C
  C37      1.0000 0.10802  0.78680  0.64720  Biso   1.000  C
  C38      1.0000 0.60802  0.28680  0.64720  Biso   1.000  C
  C39      1.0000 0.10802  0.21320  0.14720  Biso   1.000  C
  C40      1.0000 0.60802  0.71320  0.14720  Biso   1.000  C
  H25      1.0000 0.89290  0.28120  0.32050  Biso   1.000  H
  H26      1.0000 0.39290  0.78120  0.32050  Biso   1.000  H
  H27      1.0000 0.89290  0.71880  0.82050  Biso   1.000  H
  H28      1.0000 0.39290  0.21880  0.82050  Biso   1.000  H
  H29      1.0000 0.10710  0.71880  0.67950  Biso   1.000  H
  H30      1.0000 0.60710  0.21880  0.67950  Biso   1.000  H
  H31      1.0000 0.10710  0.28120  0.17950  Biso   1.000  H
  H32      1.0000 0.60710  0.78120  0.17950  Biso   1.000  H
  C41      1.0000 0.96912  0.03400  0.65020  Biso   1.000  C
  C42      1.0000 0.46912  0.53400  0.65020  Biso   1.000  C
  C43      1.0000 0.96912  0.96600  0.15020  Biso   1.000  C
  C44      1.0000 0.46912  0.46600  0.15020  Biso   1.000  C
  C45      1.0000 0.03088  0.96600  0.34980  Biso   1.000  C
  C46      1.0000 0.53088  0.46600  0.34980  Biso   1.000  C
  C47      1.0000 0.03088  0.03400  0.84980  Biso   1.000  C
  C48      1.0000 0.53088  0.53400  0.84980  Biso   1.000  C
  C49      1.0000 0.69390  0.96250  0.93840  Biso   1.000  C
  C50      1.0000 0.19390  0.46250  0.93840  Biso   1.000  C
  C51      1.0000 0.69390  0.03750  0.43840  Biso   1.000  C
  C52      1.0000 0.19390  0.53750  0.43840  Biso   1.000  C
  C53      1.0000 0.30610  0.03750  0.06160  Biso   1.000  C
  C54      1.0000 0.80610  0.53750  0.06160  Biso   1.000  C
  C55      1.0000 0.30610  0.96250  0.56160  Biso   1.000  C
  C56      1.0000 0.80610  0.46250  0.56160  Biso   1.000  C
  H33      1.0000 0.66170  0.96260  0.86360  Biso   1.000  H
  H34      1.0000 0.16170  0.46260  0.86360  Biso   1.000  H
  H35      1.0000 0.66170  0.03740  0.36360  Biso   1.000  H
  H36      1.0000 0.16170  0.53740  0.36360  Biso   1.000  H
  H37      1.0000 0.33830  0.03740  0.13640  Biso   1.000  H
  H38      1.0000 0.83830  0.53740  0.13640  Biso   1.000  H
  H39      1.0000 0.33830  0.96260  0.63640  Biso   1.000  H
  H40      1.0000 0.83830  0.46260  0.63640  Biso   1.000  H
  H41      1.0000 0.69020  0.93500  0.03910  Biso   1.000  H
  H42      1.0000 0.19020  0.43500  0.03910  Biso   1.000  H
  H43      1.0000 0.69020  0.06500  0.53910  Biso   1.000  H
  H44      1.0000 0.19020  0.56500  0.53910  Biso   1.000  H
  H45      1.0000 0.30980  0.06500  0.96090  Biso   1.000  H
  H46      1.0000 0.80980  0.56500  0.96090  Biso   1.000  H
  H47      1.0000 0.30980  0.93500  0.46090  Biso   1.000  H
  H48      1.0000 0.80980  0.43500  0.46090  Biso   1.000  H
  H49      1.0000 0.71720  0.92110  0.89710  Biso   1.000  H
  H50      1.0000 0.21720  0.42110  0.89710  Biso   1.000  H
  H51      1.0000 0.71720  0.07890  0.39710  Biso   1.000  H
  H52      1.0000 0.21720  0.57890  0.39710  Biso   1.000  H
  H53      1.0000 0.28280  0.07890  0.10290  Biso   1.000  H
  H54      1.0000 0.78280  0.57890  0.10290  Biso   1.000  H
  H55      1.0000 0.28280  0.92110  0.60290  Biso   1.000  H
  H56      1.0000 0.78280  0.42110  0.60290  Biso   1.000  H
  C57      1.0000 0.71366  0.07070  0.96280  Biso   1.000  C
  C58      1.0000 0.21366  0.57070  0.96280  Biso   1.000  C
  C59      1.0000 0.71366  0.92930  0.46280  Biso   1.000  C
  C60      1.0000 0.21366  0.42930  0.46280  Biso   1.000  C
  C61      1.0000 0.28634  0.92930  0.03720  Biso   1.000  C
  C62      1.0000 0.78634  0.42930  0.03720  Biso   1.000  C
  C63      1.0000 0.28634  0.07070  0.53720  Biso   1.000  C
  C64      1.0000 0.78634  0.57070  0.53720  Biso   1.000  C
  C65      1.0000 0.79435  0.21690  0.77540  Biso   1.000  C
  C66      1.0000 0.29435  0.71690  0.77540  Biso   1.000  C
  C67      1.0000 0.79435  0.78310  0.27540  Biso   1.000  C
  C68      1.0000 0.29435  0.28310  0.27540  Biso   1.000  C
  C69      1.0000 0.20565  0.78310  0.22460  Biso   1.000  C
  C70      1.0000 0.70565  0.28310  0.22460  Biso   1.000  C
  C71      1.0000 0.20565  0.21690  0.72460  Biso   1.000  C
  C72      1.0000 0.70565  0.71690  0.72460  Biso   1.000  C
  C73      1.0000 0.81870  0.19570  0.63860  Biso   1.000  C
  C74      1.0000 0.31870  0.69570  0.63860  Biso   1.000  C
  C75      1.0000 0.81870  0.80430  0.13860  Biso   1.000  C
  C76      1.0000 0.31870  0.30430  0.13860  Biso   1.000  C
  C77      1.0000 0.18130  0.80430  0.36140  Biso   1.000  C
  C78      1.0000 0.68130  0.30430  0.36140  Biso   1.000  C
  C79      1.0000 0.18130  0.19570  0.86140  Biso   1.000  C
  C80      1.0000 0.68130  0.69570  0.86140  Biso   1.000  C
  H57      1.0000 0.79440  0.20450  0.53910  Biso   1.000  H
  H58      1.0000 0.29440  0.70450  0.53910  Biso   1.000  H
  H59      1.0000 0.79440  0.79550  0.03910  Biso   1.000  H
  H60      1.0000 0.29440  0.29550  0.03910  Biso   1.000  H
  H61      1.0000 0.20560  0.79550  0.46090  Biso   1.000  H
  H62      1.0000 0.70560  0.29550  0.46090  Biso   1.000  H
  H63      1.0000 0.20560  0.20450  0.96090  Biso   1.000  H
  H64      1.0000 0.70560  0.70450  0.96090  Biso   1.000  H
  H65      1.0000 0.83120  0.12660  0.64610  Biso   1.000  H
  H66      1.0000 0.33120  0.62660  0.64610  Biso   1.000  H
  H67      1.0000 0.83120  0.87340  0.14610  Biso   1.000  H
  H68      1.0000 0.33120  0.37340  0.14610  Biso   1.000  H
  H69      1.0000 0.16880  0.87340  0.35390  Biso   1.000  H
  H70      1.0000 0.66880  0.37340  0.35390  Biso   1.000  H
  H71      1.0000 0.16880  0.12660  0.85390  Biso   1.000  H
  H72      1.0000 0.66880  0.62660  0.85390  Biso   1.000  H
  H73      1.0000 0.84620  0.24250  0.64300  Biso   1.000  H
  H74      1.0000 0.34620  0.74250  0.64300  Biso   1.000  H
  H75      1.0000 0.84620  0.75750  0.14300  Biso   1.000  H
  H76      1.0000 0.34620  0.25750  0.14300  Biso   1.000  H
  H77      1.0000 0.15380  0.75750  0.35700  Biso   1.000  H
  H78      1.0000 0.65380  0.25750  0.35700  Biso   1.000  H
  H79      1.0000 0.15380  0.24250  0.85700  Biso   1.000  H
  H80      1.0000 0.65380  0.74250  0.85700  Biso   1.000  H
  C81      1.0000 0.57910  0.12590  0.02600  Biso   1.000  C
  C82      1.0000 0.07910  0.62590  0.02600  Biso   1.000  C
  C83      1.0000 0.57910  0.87410  0.52600  Biso   1.000  C
  C84      1.0000 0.07910  0.37410  0.52600  Biso   1.000  C
  C85      1.0000 0.42090  0.87410  0.97400  Biso   1.000  C
  C86      1.0000 0.92090  0.37410  0.97400  Biso   1.000  C
  C87      1.0000 0.42090  0.12590  0.47400  Biso   1.000  C
  C88      1.0000 0.92090  0.62590  0.47400  Biso   1.000  C
  Cl1      1.0000 0.55380  0.10400  0.24600  Biso   1.000  Cl
  Cl2      1.0000 0.05380  0.60400  0.24600  Biso   1.000  Cl
  Cl3      1.0000 0.55380  0.89600  0.74600  Biso   1.000  Cl
  Cl4      1.0000 0.05380  0.39600  0.74600  Biso   1.000  Cl
  Cl5      1.0000 0.44620  0.89600  0.75400  Biso   1.000  Cl
  Cl6      1.0000 0.94620  0.39600  0.75400  Biso   1.000  Cl
  Cl7      1.0000 0.44620  0.10400  0.25400  Biso   1.000  Cl
  Cl8      1.0000 0.94620  0.60400  0.25400  Biso   1.000  Cl
  Cl9      1.0000 0.56370  0.00600  0.94800  Biso   1.000  Cl
  Cl10     1.0000 0.06370  0.50600  0.94800  Biso   1.000  Cl
  Cl11     1.0000 0.56370  0.99400  0.44800  Biso   1.000  Cl
  Cl12     1.0000 0.06370  0.49400  0.44800  Biso   1.000  Cl
  Cl13     1.0000 0.43630  0.99400  0.05200  Biso   1.000  Cl
  Cl14     1.0000 0.93630  0.49400  0.05200  Biso   1.000  Cl
  Cl15     1.0000 0.43630  0.00600  0.55200  Biso   1.000  Cl
  Cl16     1.0000 0.93630  0.50600  0.55200  Biso   1.000  Cl
  Cl17     1.0000 0.52450  0.14920  0.82910  Biso   1.000  Cl
  Cl18     1.0000 0.02450  0.64920  0.82910  Biso   1.000  Cl
  Cl19     1.0000 0.52450  0.85080  0.32910  Biso   1.000  Cl
  Cl20     1.0000 0.02450  0.35080  0.32910  Biso   1.000  Cl
  Cl21     1.0000 0.47550  0.85080  0.17090  Biso   1.000  Cl
  Cl22     1.0000 0.97550  0.35080  0.17090  Biso   1.000  Cl
  Cl23     1.0000 0.47550  0.14920  0.67090  Biso   1.000  Cl
  Cl24     1.0000 0.97550  0.64920  0.67090  Biso   1.000  Cl
  Cl25     1.0000 0.56100  0.19380  0.15860  Biso   1.000  Cl
  Cl26     1.0000 0.06100  0.69380  0.15860  Biso   1.000  Cl
  Cl27     1.0000 0.56100  0.80620  0.65860  Biso   1.000  Cl
  Cl28     1.0000 0.06100  0.30620  0.65860  Biso   1.000  Cl
  Cl29     1.0000 0.43900  0.80620  0.84140  Biso   1.000  Cl
  Cl30     1.0000 0.93900  0.30620  0.84140  Biso   1.000  Cl
  Cl31     1.0000 0.43900  0.19380  0.34140  Biso   1.000  Cl
  Cl32     1.0000 0.93900  0.69380  0.34140  Biso   1.000  Cl
  Cl33     1.0000 0.57950  0.99650  0.04000  Biso   1.000  Cl
  Cl34     1.0000 0.07950  0.49650  0.04000  Biso   1.000  Cl
  Cl35     1.0000 0.57950  0.00350  0.54000  Biso   1.000  Cl
  Cl36     1.0000 0.07950  0.50350  0.54000  Biso   1.000  Cl
  Cl37     1.0000 0.42050  0.00350  0.96000  Biso   1.000  Cl
  Cl38     1.0000 0.92050  0.50350  0.96000  Biso   1.000  Cl
  Cl39     1.0000 0.42050  0.99650  0.46000  Biso   1.000  Cl
  Cl40     1.0000 0.92050  0.49650  0.46000  Biso   1.000  Cl
  Cl41     1.0000 0.55900  0.23970  0.98800  Biso   1.000  Cl
  Cl42     1.0000 0.05900  0.73970  0.98800  Biso   1.000  Cl
  Cl43     1.0000 0.55900  0.76030  0.48800  Biso   1.000  Cl
  Cl44     1.0000 0.05900  0.26030  0.48800  Biso   1.000  Cl
  Cl45     1.0000 0.44100  0.76030  0.01200  Biso   1.000  Cl
  Cl46     1.0000 0.94100  0.26030  0.01200  Biso   1.000  Cl
  Cl47     1.0000 0.44100  0.23970  0.51200  Biso   1.000  Cl
  Cl48     1.0000 0.94100  0.73970  0.51200  Biso   1.000  Cl
