data_image0
_cell_length_a       9.6779
_cell_length_b       9.1718
_cell_length_c       12.9144
_cell_angle_alpha    90
_cell_angle_beta     102.796
_cell_angle_gamma    90

_symmetry_space_group_name_H-M    "P 1"
_symmetry_int_tables_number       1

loop_
  _symmetry_equiv_pos_as_xyz
  'x, y, z'

loop_
  _atom_site_label
  _atom_site_occupancy
  _atom_site_fract_x
  _atom_site_fract_y
  _atom_site_fract_z
  _atom_site_thermal_displace_type
  _atom_site_B_iso_or_equiv
  _atom_site_type_symbol
  Cu1      1.0000 0.56180  0.58622  0.80062  Biso   1.000  Cu
  Cu2      1.0000 0.06180  0.91378  0.80062  Biso   1.000  Cu
  Cu3      1.0000 0.43820  0.41378  0.19938  Biso   1.000  Cu
  Cu4      1.0000 0.93820  0.08622  0.19938  Biso   1.000  Cu
  O1       1.0000 0.40820  0.69510  0.70940  Biso   1.000  O
  O2       1.0000 0.90820  0.80490  0.70940  Biso   1.000  O
  O3       1.0000 0.59180  0.30490  0.29060  Biso   1.000  O
  O4       1.0000 0.09180  0.19510  0.29060  Biso   1.000  O
  O5       1.0000 0.23690  0.84840  0.72270  Biso   1.000  O
  O6       1.0000 0.73690  0.65160  0.72270  Biso   1.000  O
  O7       1.0000 0.76310  0.15160  0.27730  Biso   1.000  O
  O8       1.0000 0.26310  0.34840  0.27730  Biso   1.000  O
  O9       1.0000 0.66570  0.48370  0.92820  Biso   1.000  O
  O10      1.0000 0.16570  0.01630  0.92820  Biso   1.000  O
  O11      1.0000 0.33430  0.51630  0.07180  Biso   1.000  O
  O12      1.0000 0.83430  0.98370  0.07180  Biso   1.000  O
  O13      1.0000 0.72890  0.50040  0.10270  Biso   1.000  O
  O14      1.0000 0.22890  0.99960  0.10270  Biso   1.000  O
  O15      1.0000 0.27110  0.49960  0.89730  Biso   1.000  O
  O16      1.0000 0.77110  0.00040  0.89730  Biso   1.000  O
  N1       1.0000 0.56990  0.75580  0.89910  Biso   1.000  N
  N2       1.0000 0.06990  0.74420  0.89910  Biso   1.000  N
  N3       1.0000 0.43010  0.24420  0.10090  Biso   1.000  N
  N4       1.0000 0.93010  0.25580  0.10090  Biso   1.000  N
  N5       1.0000 0.02600  0.09200  0.71180  Biso   1.000  N
  N6       1.0000 0.52600  0.40800  0.71180  Biso   1.000  N
  N7       1.0000 0.97400  0.90800  0.28820  Biso   1.000  N
  N8       1.0000 0.47400  0.59200  0.28820  Biso   1.000  N
  C1       1.0000 0.43130  0.82900  0.87060  Biso   1.000  C
  C2       1.0000 0.93130  0.67100  0.87060  Biso   1.000  C
  C3       1.0000 0.56870  0.17100  0.12940  Biso   1.000  C
  C4       1.0000 0.06870  0.32900  0.12940  Biso   1.000  C
  C5       1.0000 0.35120  0.78890  0.75850  Biso   1.000  C
  C6       1.0000 0.85120  0.71110  0.75850  Biso   1.000  C
  C7       1.0000 0.64880  0.21110  0.24150  Biso   1.000  C
  C8       1.0000 0.14880  0.28890  0.24150  Biso   1.000  C
  C9       1.0000 0.61050  0.70290  0.00930  Biso   1.000  C
  C10      1.0000 0.11050  0.79710  0.00930  Biso   1.000  C
  C11      1.0000 0.38950  0.29710  0.99070  Biso   1.000  C
  C12      1.0000 0.88950  0.20290  0.99070  Biso   1.000  C
  C13      1.0000 0.67490  0.55120  0.01530  Biso   1.000  C
  C14      1.0000 0.17490  0.94880  0.01530  Biso   1.000  C
  C15      1.0000 0.32510  0.44880  0.98470  Biso   1.000  C
  C16      1.0000 0.82510  0.05120  0.98470  Biso   1.000  C
  C17      1.0000 0.08050  0.21840  0.74190  Biso   1.000  C
  C18      1.0000 0.58050  0.28160  0.74190  Biso   1.000  C
  C19      1.0000 0.91950  0.78160  0.25810  Biso   1.000  C
  C20      1.0000 0.41950  0.71840  0.25810  Biso   1.000  C
  C21      1.0000 0.06020  0.34220  0.68100  Biso   1.000  C
  C22      1.0000 0.56020  0.15780  0.68100  Biso   1.000  C
  C23      1.0000 0.93980  0.65780  0.31900  Biso   1.000  C
  C24      1.0000 0.43980  0.84220  0.31900  Biso   1.000  C
  C25      1.0000 0.97140  0.34050  0.58620  Biso   1.000  C
  C26      1.0000 0.47140  0.15950  0.58620  Biso   1.000  C
  C27      1.0000 0.02860  0.65950  0.41380  Biso   1.000  C
  C28      1.0000 0.52860  0.84050  0.41380  Biso   1.000  C
  C29      1.0000 0.92110  0.20880  0.55020  Biso   1.000  C
  C30      1.0000 0.42110  0.29120  0.55020  Biso   1.000  C
  C31      1.0000 0.07890  0.79120  0.44980  Biso   1.000  C
  C32      1.0000 0.57890  0.70880  0.44980  Biso   1.000  C
  C33      1.0000 0.94750  0.08910  0.61360  Biso   1.000  C
  C34      1.0000 0.44750  0.41090  0.61360  Biso   1.000  C
  C35      1.0000 0.05250  0.91090  0.38640  Biso   1.000  C
  C36      1.0000 0.55250  0.58910  0.38640  Biso   1.000  C
  C37      1.0000 0.93980  0.47830  0.51800  Biso   1.000  C
  C38      1.0000 0.43980  0.02170  0.51800  Biso   1.000  C
  C39      1.0000 0.06020  0.52170  0.48200  Biso   1.000  C
  C40      1.0000 0.56020  0.97830  0.48200  Biso   1.000  C
  H1       1.0000 0.64060  0.82150  0.88710  Biso   1.000  H
  H2       1.0000 0.14060  0.67850  0.88710  Biso   1.000  H
  H3       1.0000 0.35940  0.17850  0.11290  Biso   1.000  H
  H4       1.0000 0.85940  0.32150  0.11290  Biso   1.000  H
  H5       1.0000 0.37620  0.80070  0.91970  Biso   1.000  H
  H6       1.0000 0.87620  0.69930  0.91970  Biso   1.000  H
  H7       1.0000 0.62380  0.19930  0.08030  Biso   1.000  H
  H8       1.0000 0.12380  0.30070  0.08030  Biso   1.000  H
  H9       1.0000 0.44560  0.93150  0.87440  Biso   1.000  H
  H10      1.0000 0.94560  0.56850  0.87440  Biso   1.000  H
  H11      1.0000 0.55440  0.06850  0.12560  Biso   1.000  H
  H12      1.0000 0.05440  0.43150  0.12560  Biso   1.000  H
  H13      1.0000 0.67800  0.76820  0.04940  Biso   1.000  H
  H14      1.0000 0.17800  0.73180  0.04940  Biso   1.000  H
  H15      1.0000 0.32200  0.23180  0.95060  Biso   1.000  H
  H16      1.0000 0.82200  0.26820  0.95060  Biso   1.000  H
  H17      1.0000 0.52860  0.70020  0.03840  Biso   1.000  H
  H18      1.0000 0.02860  0.79980  0.03840  Biso   1.000  H
  H19      1.0000 0.47140  0.29980  0.96160  Biso   1.000  H
  H20      1.0000 0.97140  0.20020  0.96160  Biso   1.000  H
  H21      1.0000 0.13890  0.22560  0.81130  Biso   1.000  H
  H22      1.0000 0.63890  0.27440  0.81130  Biso   1.000  H
  H23      1.0000 0.86110  0.77440  0.18870  Biso   1.000  H
  H24      1.0000 0.36110  0.72560  0.18870  Biso   1.000  H
  H25      1.0000 0.10950  0.42920  0.70640  Biso   1.000  H
  H26      1.0000 0.60950  0.07080  0.70640  Biso   1.000  H
  H27      1.0000 0.89050  0.57080  0.29360  Biso   1.000  H
  H28      1.0000 0.39050  0.92920  0.29360  Biso   1.000  H
  H29      1.0000 0.86640  0.19950  0.47970  Biso   1.000  H
  H30      1.0000 0.36640  0.30050  0.47970  Biso   1.000  H
  H31      1.0000 0.13360  0.80050  0.52030  Biso   1.000  H
  H32      1.0000 0.63360  0.69950  0.52030  Biso   1.000  H
  H33      1.0000 0.90770  0.99870  0.58610  Biso   1.000  H
  H34      1.0000 0.40770  0.50130  0.58610  Biso   1.000  H
  H35      1.0000 0.09230  0.00130  0.41390  Biso   1.000  H
  H36      1.0000 0.59230  0.49870  0.41390  Biso   1.000  H
  H37      1.0000 0.91280  0.55450  0.55930  Biso   1.000  H
  H38      1.0000 0.41280  0.94550  0.55930  Biso   1.000  H
  H39      1.0000 0.08720  0.44550  0.44070  Biso   1.000  H
  H40      1.0000 0.58720  0.05450  0.44070  Biso   1.000  H
  H41      1.0000 0.86450  0.45900  0.45860  Biso   1.000  H
  H42      1.0000 0.36450  0.04100  0.45860  Biso   1.000  H
  H43      1.0000 0.13550  0.54100  0.54140  Biso   1.000  H
  H44      1.0000 0.63550  0.95900  0.54140  Biso   1.000  H
