data_image0
_cell_length_a       13.8956
_cell_length_b       16.3362
_cell_length_c       7.334
_cell_angle_alpha    90
_cell_angle_beta     90
_cell_angle_gamma    90

_symmetry_space_group_name_H-M    "P 1"
_symmetry_int_tables_number       1

loop_
  _symmetry_equiv_pos_as_xyz
  'x, y, z'

loop_
  _atom_site_label
  _atom_site_occupancy
  _atom_site_fract_x
  _atom_site_fract_y
  _atom_site_fract_z
  _atom_site_thermal_displace_type
  _atom_site_B_iso_or_equiv
  _atom_site_type_symbol
  Cu1      1.0000 0.11547  0.05392  0.70760  Biso   1.000  Cu
  Cu2      1.0000 0.88453  0.94608  0.20760  Biso   1.000  Cu
  Cu3      1.0000 0.38453  0.55392  0.20760  Biso   1.000  Cu
  Cu4      1.0000 0.61547  0.44608  0.70760  Biso   1.000  Cu
  N1       1.0000 0.24940  0.01250  0.70600  Biso   1.000  N
  N2       1.0000 0.75060  0.98750  0.20600  Biso   1.000  N
  N3       1.0000 0.25060  0.51250  0.20600  Biso   1.000  N
  N4       1.0000 0.74940  0.48750  0.70600  Biso   1.000  N
  C1       1.0000 0.32570  0.06130  0.72700  Biso   1.000  C
  C2       1.0000 0.67430  0.93870  0.22700  Biso   1.000  C
  C3       1.0000 0.17430  0.56130  0.22700  Biso   1.000  C
  C4       1.0000 0.82570  0.43870  0.72700  Biso   1.000  C
  H1       1.0000 0.31460  0.11690  0.74360  Biso   1.000  H
  H2       1.0000 0.68540  0.88310  0.24360  Biso   1.000  H
  H3       1.0000 0.18540  0.61690  0.24360  Biso   1.000  H
  H4       1.0000 0.81460  0.38310  0.74360  Biso   1.000  H
  C5       1.0000 0.41900  0.03470  0.72500  Biso   1.000  C
  C6       1.0000 0.58100  0.96530  0.22500  Biso   1.000  C
  C7       1.0000 0.08100  0.53470  0.22500  Biso   1.000  C
  C8       1.0000 0.91900  0.46530  0.72500  Biso   1.000  C
  H5       1.0000 0.46940  0.07190  0.73470  Biso   1.000  H
  H6       1.0000 0.53060  0.92810  0.23470  Biso   1.000  H
  H7       1.0000 0.03060  0.57190  0.23470  Biso   1.000  H
  H8       1.0000 0.96940  0.42810  0.73470  Biso   1.000  H
  C9       1.0000 0.43780  0.95150  0.70800  Biso   1.000  C
  C10      1.0000 0.56220  0.04850  0.20800  Biso   1.000  C
  C11      1.0000 0.06220  0.45150  0.20800  Biso   1.000  C
  C12      1.0000 0.93780  0.54850  0.70800  Biso   1.000  C
  C13      1.0000 0.36090  0.90150  0.67000  Biso   1.000  C
  C14      1.0000 0.63910  0.09850  0.17000  Biso   1.000  C
  C15      1.0000 0.13910  0.40150  0.17000  Biso   1.000  C
  C16      1.0000 0.86090  0.59850  0.67000  Biso   1.000  C
  H9       1.0000 0.37100  0.84660  0.64290  Biso   1.000  H
  H10      1.0000 0.62900  0.15340  0.14290  Biso   1.000  H
  H11      1.0000 0.12900  0.34660  0.14290  Biso   1.000  H
  H12      1.0000 0.87100  0.65340  0.64290  Biso   1.000  H
  C17      1.0000 0.26870  0.93280  0.67300  Biso   1.000  C
  C18      1.0000 0.73130  0.06720  0.17300  Biso   1.000  C
  C19      1.0000 0.23130  0.43280  0.17300  Biso   1.000  C
  C20      1.0000 0.76870  0.56720  0.67300  Biso   1.000  C
  H13      1.0000 0.21760  0.89740  0.65070  Biso   1.000  H
  H14      1.0000 0.78240  0.10260  0.15070  Biso   1.000  H
  H15      1.0000 0.28240  0.39740  0.15070  Biso   1.000  H
  H16      1.0000 0.71760  0.60260  0.65070  Biso   1.000  H
  C21      1.0000 0.53700  0.91830  0.70800  Biso   1.000  C
  C22      1.0000 0.46300  0.08170  0.20800  Biso   1.000  C
  C23      1.0000 0.96300  0.41830  0.20800  Biso   1.000  C
  C24      1.0000 0.03700  0.58170  0.70800  Biso   1.000  C
  C25      1.0000 0.61530  0.97000  0.73000  Biso   1.000  C
  C26      1.0000 0.38470  0.03000  0.23000  Biso   1.000  C
  C27      1.0000 0.88470  0.47000  0.23000  Biso   1.000  C
  C28      1.0000 0.11530  0.53000  0.73000  Biso   1.000  C
  H17      1.0000 0.60580  0.02620  0.73860  Biso   1.000  H
  H18      1.0000 0.39420  0.97380  0.23860  Biso   1.000  H
  H19      1.0000 0.89420  0.52620  0.23860  Biso   1.000  H
  H20      1.0000 0.10580  0.47380  0.73860  Biso   1.000  H
  C29      1.0000 0.70680  0.93850  0.74000  Biso   1.000  C
  C30      1.0000 0.29320  0.06150  0.24000  Biso   1.000  C
  C31      1.0000 0.79320  0.43850  0.24000  Biso   1.000  C
  C32      1.0000 0.20680  0.56150  0.74000  Biso   1.000  C
  H21      1.0000 0.75860  0.97320  0.76250  Biso   1.000  H
  H22      1.0000 0.24140  0.02680  0.26250  Biso   1.000  H
  H23      1.0000 0.74140  0.47320  0.26250  Biso   1.000  H
  H24      1.0000 0.25860  0.52680  0.76250  Biso   1.000  H
  N5       1.0000 0.72200  0.85630  0.71700  Biso   1.000  N
  N6       1.0000 0.27800  0.14370  0.21700  Biso   1.000  N
  N7       1.0000 0.77800  0.35630  0.21700  Biso   1.000  N
  N8       1.0000 0.22200  0.64370  0.71700  Biso   1.000  N
  H25      1.0000 0.77970  0.83720  0.71640  Biso   1.000  H
  H26      1.0000 0.22030  0.16280  0.21640  Biso   1.000  H
  H27      1.0000 0.72030  0.33720  0.21640  Biso   1.000  H
  H28      1.0000 0.27970  0.66280  0.71640  Biso   1.000  H
  C33      1.0000 0.64690  0.80570  0.69700  Biso   1.000  C
  C34      1.0000 0.35310  0.19430  0.19700  Biso   1.000  C
  C35      1.0000 0.85310  0.30570  0.19700  Biso   1.000  C
  C36      1.0000 0.14690  0.69430  0.69700  Biso   1.000  C
  H29      1.0000 0.65790  0.75010  0.67960  Biso   1.000  H
  H30      1.0000 0.34210  0.24990  0.17960  Biso   1.000  H
  H31      1.0000 0.84210  0.25010  0.17960  Biso   1.000  H
  H32      1.0000 0.15790  0.74990  0.67960  Biso   1.000  H
  C37      1.0000 0.55370  0.83430  0.70100  Biso   1.000  C
  C38      1.0000 0.44630  0.16570  0.20100  Biso   1.000  C
  C39      1.0000 0.94630  0.33430  0.20100  Biso   1.000  C
  C40      1.0000 0.05370  0.66570  0.70100  Biso   1.000  C
  H33      1.0000 0.50230  0.79780  0.69910  Biso   1.000  H
  H34      1.0000 0.49770  0.20220  0.19910  Biso   1.000  H
  H35      1.0000 0.99770  0.29780  0.19910  Biso   1.000  H
  H36      1.0000 0.00230  0.70220  0.69910  Biso   1.000  H
  N9       1.0000 0.99000  0.10960  0.73600  Biso   1.000  N
  N10      1.0000 0.01000  0.89040  0.23600  Biso   1.000  N
  N11      1.0000 0.51000  0.60960  0.23600  Biso   1.000  N
  N12      1.0000 0.49000  0.39040  0.73600  Biso   1.000  N
  H37      1.0000 0.94560  0.07130  0.76770  Biso   1.000  H
  H38      1.0000 0.05440  0.92870  0.26770  Biso   1.000  H
  H39      1.0000 0.55440  0.57130  0.26770  Biso   1.000  H
  H40      1.0000 0.44560  0.42870  0.76770  Biso   1.000  H
  C41      1.0000 0.00030  0.16880  0.89290  Biso   1.000  C
  C42      1.0000 0.99970  0.83120  0.39290  Biso   1.000  C
  C43      1.0000 0.49970  0.66880  0.39290  Biso   1.000  C
  C44      1.0000 0.50030  0.33120  0.89290  Biso   1.000  C
  H41      1.0000 0.00670  0.22400  0.84560  Biso   1.000  H
  H42      1.0000 0.99330  0.77600  0.34560  Biso   1.000  H
  H43      1.0000 0.49330  0.72400  0.34560  Biso   1.000  H
  H44      1.0000 0.50670  0.27600  0.84560  Biso   1.000  H
  H45      1.0000 0.94270  0.16690  0.96750  Biso   1.000  H
  H46      1.0000 0.05730  0.83310  0.46750  Biso   1.000  H
  H47      1.0000 0.55730  0.66690  0.46750  Biso   1.000  H
  H48      1.0000 0.44270  0.33310  0.96750  Biso   1.000  H
  C45      1.0000 0.08440  0.14930  0.00620  Biso   1.000  C
  C46      1.0000 0.91560  0.85070  0.50620  Biso   1.000  C
  C47      1.0000 0.41560  0.64930  0.50620  Biso   1.000  C
  C48      1.0000 0.58440  0.35070  0.00620  Biso   1.000  C
  C49      1.0000 0.96420  0.14090  0.56100  Biso   1.000  C
  C50      1.0000 0.03580  0.85910  0.06100  Biso   1.000  C
  C51      1.0000 0.53580  0.64090  0.06100  Biso   1.000  C
  C52      1.0000 0.46420  0.35910  0.56100  Biso   1.000  C
  H49      1.0000 0.99550  0.19310  0.53980  Biso   1.000  H
  H50      1.0000 0.00450  0.80690  0.03980  Biso   1.000  H
  H51      1.0000 0.50450  0.69310  0.03980  Biso   1.000  H
  H52      1.0000 0.49550  0.30690  0.53980  Biso   1.000  H
  H53      1.0000 0.89520  0.14890  0.55360  Biso   1.000  H
  H54      1.0000 0.10480  0.85110  0.05360  Biso   1.000  H
  H55      1.0000 0.60480  0.64890  0.05360  Biso   1.000  H
  H56      1.0000 0.39520  0.35110  0.55360  Biso   1.000  H
  C53      1.0000 0.99630  0.07960  0.42130  Biso   1.000  C
  C54      1.0000 0.00370  0.92040  0.92130  Biso   1.000  C
  C55      1.0000 0.50370  0.57960  0.92130  Biso   1.000  C
  C56      1.0000 0.49630  0.42040  0.42130  Biso   1.000  C
  O1       1.0000 0.14030  0.09260  0.95430  Biso   1.000  O
  O2       1.0000 0.85970  0.90740  0.45430  Biso   1.000  O
  O3       1.0000 0.35970  0.59260  0.45430  Biso   1.000  O
  O4       1.0000 0.64030  0.40740  0.95430  Biso   1.000  O
  O5       1.0000 0.10340  0.19290  0.14750  Biso   1.000  O
  O6       1.0000 0.89660  0.80710  0.64750  Biso   1.000  O
  O7       1.0000 0.39660  0.69290  0.64750  Biso   1.000  O
  O8       1.0000 0.60340  0.30710  0.14750  Biso   1.000  O
  O9       1.0000 0.07380  0.04260  0.45560  Biso   1.000  O
  O10      1.0000 0.92620  0.95740  0.95560  Biso   1.000  O
  O11      1.0000 0.42620  0.54260  0.95560  Biso   1.000  O
  O12      1.0000 0.57380  0.45740  0.45560  Biso   1.000  O
  O13      1.0000 0.94960  0.07290  0.27450  Biso   1.000  O
  O14      1.0000 0.05040  0.92710  0.77450  Biso   1.000  O
  O15      1.0000 0.55040  0.57290  0.77450  Biso   1.000  O
  O16      1.0000 0.44960  0.42710  0.27450  Biso   1.000  O
  Cl1      1.0000 0.19710  0.29810  0.67060  Biso   1.000  Cl
  Cl2      1.0000 0.80290  0.70190  0.17060  Biso   1.000  Cl
  Cl3      1.0000 0.30290  0.79810  0.17060  Biso   1.000  Cl
  Cl4      1.0000 0.69710  0.20190  0.67060  Biso   1.000  Cl
  O17      1.0000 0.10630  0.32900  0.70200  Biso   1.000  O
  O18      1.0000 0.89370  0.67100  0.20200  Biso   1.000  O
  O19      1.0000 0.39370  0.82900  0.20200  Biso   1.000  O
  O20      1.0000 0.60630  0.17100  0.70200  Biso   1.000  O
  O21      1.0000 0.18950  0.21950  0.60200  Biso   1.000  O
  O22      1.0000 0.81050  0.78050  0.10200  Biso   1.000  O
  O23      1.0000 0.31050  0.71950  0.10200  Biso   1.000  O
  O24      1.0000 0.68950  0.28050  0.60200  Biso   1.000  O
  O25      1.0000 0.24760  0.29680  0.83200  Biso   1.000  O
  O26      1.0000 0.75240  0.70320  0.33200  Biso   1.000  O
  O27      1.0000 0.25240  0.79680  0.33200  Biso   1.000  O
  O28      1.0000 0.74760  0.20320  0.83200  Biso   1.000  O
  O29      1.0000 0.24490  0.34780  0.54700  Biso   1.000  O
  O30      1.0000 0.75510  0.65220  0.04700  Biso   1.000  O
  O31      1.0000 0.25510  0.84780  0.04700  Biso   1.000  O
  O32      1.0000 0.74490  0.15220  0.54700  Biso   1.000  O
  O33      1.0000 0.10380  0.31430  0.62500  Biso   1.000  O
  O34      1.0000 0.89620  0.68570  0.12500  Biso   1.000  O
  O35      1.0000 0.39620  0.81430  0.12500  Biso   1.000  O
  O36      1.0000 0.60380  0.18570  0.62500  Biso   1.000  O
  O37      1.0000 0.23500  0.23860  0.56300  Biso   1.000  O
  O38      1.0000 0.76500  0.76140  0.06300  Biso   1.000  O
  O39      1.0000 0.26500  0.73860  0.06300  Biso   1.000  O
  O40      1.0000 0.73500  0.26140  0.56300  Biso   1.000  O
  O41      1.0000 0.20540  0.27830  0.84800  Biso   1.000  O
  O42      1.0000 0.79460  0.72170  0.34800  Biso   1.000  O
  O43      1.0000 0.29460  0.77830  0.34800  Biso   1.000  O
  O44      1.0000 0.70540  0.22170  0.84800  Biso   1.000  O
  O45      1.0000 0.25000  0.36960  0.64000  Biso   1.000  O
  O46      1.0000 0.75000  0.63040  0.14000  Biso   1.000  O
  O47      1.0000 0.25000  0.86960  0.14000  Biso   1.000  O
  O48      1.0000 0.75000  0.13040  0.64000  Biso   1.000  O
