data_image0
_cell_length_a       5.0387
_cell_length_b       15.3317
_cell_length_c       7.072
_cell_angle_alpha    90
_cell_angle_beta     106.625
_cell_angle_gamma    90

_symmetry_space_group_name_H-M    "P 1"
_symmetry_int_tables_number       1

loop_
  _symmetry_equiv_pos_as_xyz
  'x, y, z'

loop_
  _atom_site_label
  _atom_site_occupancy
  _atom_site_fract_x
  _atom_site_fract_y
  _atom_site_fract_z
  _atom_site_thermal_displace_type
  _atom_site_B_iso_or_equiv
  _atom_site_type_symbol
  Cu1      1.0000 0.50000  0.50000  0.00000  Biso   1.000  Cu
  Cu2      1.0000 0.50000  0.00000  0.50000  Biso   1.000  Cu
  O1       1.0000 0.16940  0.56859  0.89406  Biso   1.000  O
  O2       1.0000 0.83060  0.06859  0.60594  Biso   1.000  O
  O3       1.0000 0.83060  0.43141  0.10594  Biso   1.000  O
  O4       1.0000 0.16940  0.93141  0.39406  Biso   1.000  O
  O5       1.0000 0.72960  0.55507  0.71460  Biso   1.000  O
  O6       1.0000 0.27040  0.05507  0.78540  Biso   1.000  O
  O7       1.0000 0.27040  0.44493  0.28540  Biso   1.000  O
  O8       1.0000 0.72960  0.94493  0.21460  Biso   1.000  O
  N1       1.0000 0.28460  0.40751  0.82900  Biso   1.000  N
  N2       1.0000 0.71540  0.90751  0.67100  Biso   1.000  N
  N3       1.0000 0.71540  0.59249  0.17100  Biso   1.000  N
  N4       1.0000 0.28460  0.09249  0.32900  Biso   1.000  N
  N5       1.0000 0.90920  0.29859  0.57490  Biso   1.000  N
  N6       1.0000 0.09080  0.79859  0.92510  Biso   1.000  N
  N7       1.0000 0.09080  0.70141  0.42510  Biso   1.000  N
  N8       1.0000 0.90920  0.20141  0.07490  Biso   1.000  N
  C1       1.0000 0.96600  0.52771  0.77800  Biso   1.000  C
  C2       1.0000 0.03400  0.02771  0.72200  Biso   1.000  C
  C3       1.0000 0.03400  0.47229  0.22200  Biso   1.000  C
  C4       1.0000 0.96600  0.97229  0.27800  Biso   1.000  C
  C5       1.0000 0.03290  0.43591  0.72880  Biso   1.000  C
  C6       1.0000 0.96710  0.93591  0.77120  Biso   1.000  C
  C7       1.0000 0.96710  0.56409  0.27120  Biso   1.000  C
  C8       1.0000 0.03290  0.06409  0.22880  Biso   1.000  C
  C9       1.0000 0.84900  0.38153  0.59860  Biso   1.000  C
  C10      1.0000 0.15100  0.88153  0.90140  Biso   1.000  C
  C11      1.0000 0.15100  0.61847  0.40140  Biso   1.000  C
  C12      1.0000 0.84900  0.11847  0.09860  Biso   1.000  C
  H1       1.0000 0.67860  0.40360  0.52570  Biso   1.000  H
  H2       1.0000 0.32140  0.90360  0.97430  Biso   1.000  H
  H3       1.0000 0.32140  0.59640  0.47430  Biso   1.000  H
  H4       1.0000 0.67860  0.09640  0.02570  Biso   1.000  H
  C13      1.0000 0.15700  0.27062  0.68180  Biso   1.000  C
  C14      1.0000 0.84300  0.77062  0.81820  Biso   1.000  C
  C15      1.0000 0.84300  0.72938  0.31820  Biso   1.000  C
  C16      1.0000 0.15700  0.22938  0.18180  Biso   1.000  C
  H5       1.0000 0.20260  0.21230  0.67220  Biso   1.000  H
  H6       1.0000 0.79740  0.71230  0.82780  Biso   1.000  H
  H7       1.0000 0.79740  0.78770  0.32780  Biso   1.000  H
  H8       1.0000 0.20260  0.28770  0.17220  Biso   1.000  H
  C17      1.0000 0.34970  0.32477  0.80670  Biso   1.000  C
  C18      1.0000 0.65030  0.82477  0.69330  Biso   1.000  C
  C19      1.0000 0.65030  0.67523  0.19330  Biso   1.000  C
  C20      1.0000 0.34970  0.17523  0.30670  Biso   1.000  C
  H9       1.0000 0.52360  0.30340  0.87460  Biso   1.000  H
  H10      1.0000 0.47640  0.80340  0.62540  Biso   1.000  H
  H11      1.0000 0.47640  0.69660  0.12540  Biso   1.000  H
  H12      1.0000 0.52360  0.19660  0.37460  Biso   1.000  H
