data_image0
_cell_length_a       5.029
_cell_length_b       15.342
_cell_length_c       7.055
_cell_angle_alpha    90
_cell_angle_beta     106.453
_cell_angle_gamma    90

_symmetry_space_group_name_H-M    "P 1"
_symmetry_int_tables_number       1

loop_
  _symmetry_equiv_pos_as_xyz
  'x, y, z'

loop_
  _atom_site_label
  _atom_site_occupancy
  _atom_site_fract_x
  _atom_site_fract_y
  _atom_site_fract_z
  _atom_site_thermal_displace_type
  _atom_site_B_iso_or_equiv
  _atom_site_type_symbol
  Cu1      1.0000 0.00000  0.00000  0.00000  Biso   1.000  Cu
  Cu2      1.0000 0.00000  0.50000  0.50000  Biso   1.000  Cu
  O1       1.0000 0.33000  0.93127  0.10670  Biso   1.000  O
  O2       1.0000 0.67000  0.43127  0.39330  Biso   1.000  O
  O3       1.0000 0.67000  0.06873  0.89330  Biso   1.000  O
  O4       1.0000 0.33000  0.56873  0.60670  Biso   1.000  O
  O5       1.0000 0.76900  0.94484  0.28570  Biso   1.000  O
  O6       1.0000 0.23100  0.44484  0.21430  Biso   1.000  O
  O7       1.0000 0.23100  0.05516  0.71430  Biso   1.000  O
  O8       1.0000 0.76900  0.55516  0.78570  Biso   1.000  O
  N1       1.0000 0.21500  0.09286  0.17050  Biso   1.000  N
  N2       1.0000 0.78500  0.59286  0.32950  Biso   1.000  N
  N3       1.0000 0.78500  0.90714  0.82950  Biso   1.000  N
  N4       1.0000 0.21500  0.40714  0.67050  Biso   1.000  N
  N5       1.0000 0.59130  0.20179  0.42300  Biso   1.000  N
  N6       1.0000 0.40870  0.70179  0.07700  Biso   1.000  N
  N7       1.0000 0.40870  0.79821  0.57700  Biso   1.000  N
  N8       1.0000 0.59130  0.29821  0.92300  Biso   1.000  N
  C1       1.0000 0.15080  0.17564  0.19230  Biso   1.000  C
  C2       1.0000 0.84920  0.67564  0.30770  Biso   1.000  C
  C3       1.0000 0.84920  0.82436  0.80770  Biso   1.000  C
  C4       1.0000 0.15080  0.32436  0.69230  Biso   1.000  C
  H1       1.0000 0.97340  0.19760  0.12280  Biso   1.000  H
  H2       1.0000 0.02660  0.69760  0.37720  Biso   1.000  H
  H3       1.0000 0.02660  0.80240  0.87720  Biso   1.000  H
  H4       1.0000 0.97340  0.30240  0.62280  Biso   1.000  H
  C5       1.0000 0.34480  0.22981  0.31720  Biso   1.000  C
  C6       1.0000 0.65520  0.72981  0.18280  Biso   1.000  C
  C7       1.0000 0.65520  0.77019  0.68280  Biso   1.000  C
  C8       1.0000 0.34480  0.27019  0.81720  Biso   1.000  C
  H5       1.0000 0.29860  0.28940  0.32720  Biso   1.000  H
  H6       1.0000 0.70140  0.78940  0.17280  Biso   1.000  H
  H7       1.0000 0.70140  0.71060  0.67280  Biso   1.000  H
  H8       1.0000 0.29860  0.21060  0.82720  Biso   1.000  H
  C9       1.0000 0.65080  0.11877  0.40000  Biso   1.000  C
  C10      1.0000 0.34920  0.61877  0.10000  Biso   1.000  C
  C11      1.0000 0.34920  0.88123  0.60000  Biso   1.000  C
  C12      1.0000 0.65080  0.38123  0.90000  Biso   1.000  C
  H9       1.0000 0.82490  0.09630  0.47480  Biso   1.000  H
  H10      1.0000 0.17510  0.59630  0.02520  Biso   1.000  H
  H11      1.0000 0.17510  0.90370  0.52520  Biso   1.000  H
  H12      1.0000 0.82490  0.40370  0.97480  Biso   1.000  H
  C13      1.0000 0.46740  0.06422  0.27080  Biso   1.000  C
  C14      1.0000 0.53260  0.56422  0.22920  Biso   1.000  C
  C15      1.0000 0.53260  0.93578  0.72920  Biso   1.000  C
  C16      1.0000 0.46740  0.43578  0.77080  Biso   1.000  C
  C17      1.0000 0.53320  0.97263  0.22280  Biso   1.000  C
  C18      1.0000 0.46680  0.47263  0.27720  Biso   1.000  C
  C19      1.0000 0.46680  0.02737  0.77720  Biso   1.000  C
  C20      1.0000 0.53320  0.52737  0.72280  Biso   1.000  C
