data_image0
_cell_length_a       30.7828
_cell_length_b       5.6317
_cell_length_c       20.8991
_cell_angle_alpha    90
_cell_angle_beta     100.075
_cell_angle_gamma    90

_symmetry_space_group_name_H-M    "P 1"
_symmetry_int_tables_number       1

loop_
  _symmetry_equiv_pos_as_xyz
  'x, y, z'

loop_
  _atom_site_label
  _atom_site_occupancy
  _atom_site_fract_x
  _atom_site_fract_y
  _atom_site_fract_z
  _atom_site_thermal_displace_type
  _atom_site_B_iso_or_equiv
  _atom_site_type_symbol
  Br1      1.0000 0.49936  0.74263  0.50032  Biso   1.000  Br
  Br2      1.0000 0.49936  0.25737  0.00032  Biso   1.000  Br
  Br3      1.0000 0.99936  0.24263  0.50032  Biso   1.000  Br
  Br4      1.0000 0.99936  0.75737  0.00032  Biso   1.000  Br
  Cu1      1.0000 0.49919  0.23632  0.50078  Biso   1.000  Cu
  Cu2      1.0000 0.49919  0.76368  0.00078  Biso   1.000  Cu
  Cu3      1.0000 0.99919  0.73632  0.50078  Biso   1.000  Cu
  Cu4      1.0000 0.99919  0.26368  0.00078  Biso   1.000  Cu
  O1       1.0000 0.66600  0.38500  0.34630  Biso   1.000  O
  O2       1.0000 0.66600  0.61500  0.84630  Biso   1.000  O
  O3       1.0000 0.16600  0.88500  0.34630  Biso   1.000  O
  O4       1.0000 0.16600  0.11500  0.84630  Biso   1.000  O
  O5       1.0000 0.65859  0.62470  0.43060  Biso   1.000  O
  O6       1.0000 0.65859  0.37530  0.93060  Biso   1.000  O
  O7       1.0000 0.15859  0.12470  0.43060  Biso   1.000  O
  O8       1.0000 0.15859  0.87530  0.93060  Biso   1.000  O
  O9       1.0000 0.33226  0.13690  0.25800  Biso   1.000  O
  O10      1.0000 0.33226  0.86310  0.75800  Biso   1.000  O
  O11      1.0000 0.83226  0.63690  0.25800  Biso   1.000  O
  O12      1.0000 0.83226  0.36310  0.75800  Biso   1.000  O
  O13      1.0000 0.33432  0.89040  0.34410  Biso   1.000  O
  O14      1.0000 0.33432  0.10960  0.84410  Biso   1.000  O
  O15      1.0000 0.83432  0.39040  0.34410  Biso   1.000  O
  O16      1.0000 0.83432  0.60960  0.84410  Biso   1.000  O
  O17      1.0000 0.33140  0.39300  0.65310  Biso   1.000  O
  O18      1.0000 0.33140  0.60700  0.15310  Biso   1.000  O
  O19      1.0000 0.83140  0.89300  0.65310  Biso   1.000  O
  O20      1.0000 0.83140  0.10700  0.15310  Biso   1.000  O
  O21      1.0000 0.34047  0.63620  0.57040  Biso   1.000  O
  O22      1.0000 0.34047  0.36380  0.07040  Biso   1.000  O
  O23      1.0000 0.84047  0.13620  0.57040  Biso   1.000  O
  O24      1.0000 0.84047  0.86380  0.07040  Biso   1.000  O
  O25      1.0000 0.66767  0.10890  0.74057  Biso   1.000  O
  O26      1.0000 0.66767  0.89110  0.24057  Biso   1.000  O
  O27      1.0000 0.16767  0.60890  0.74057  Biso   1.000  O
  O28      1.0000 0.16767  0.39110  0.24057  Biso   1.000  O
  O29      1.0000 0.66358  0.86640  0.65440  Biso   1.000  O
  O30      1.0000 0.66358  0.13360  0.15440  Biso   1.000  O
  O31      1.0000 0.16358  0.36640  0.65440  Biso   1.000  O
  O32      1.0000 0.16358  0.63360  0.15440  Biso   1.000  O
  N1       1.0000 0.54576  0.24830  0.44474  Biso   1.000  N
  N2       1.0000 0.54576  0.75170  0.94474  Biso   1.000  N
  N3       1.0000 0.04576  0.74830  0.44474  Biso   1.000  N
  N4       1.0000 0.04576  0.25170  0.94474  Biso   1.000  N
  N5       1.0000 0.55059  0.08510  0.39710  Biso   1.000  N
  N6       1.0000 0.55059  0.91490  0.89710  Biso   1.000  N
  N7       1.0000 0.05059  0.58510  0.39710  Biso   1.000  N
  N8       1.0000 0.05059  0.41490  0.89710  Biso   1.000  N
  H1       1.0000 0.53250  0.96560  0.38560  Biso   1.000  H
  H2       1.0000 0.53250  0.03440  0.88560  Biso   1.000  H
  H3       1.0000 0.03250  0.46560  0.38560  Biso   1.000  H
  H4       1.0000 0.03250  0.53440  0.88560  Biso   1.000  H
  N9       1.0000 0.59830  0.99780  0.32320  Biso   1.000  N
  N10      1.0000 0.59830  0.00220  0.82320  Biso   1.000  N
  N11      1.0000 0.09830  0.49780  0.32320  Biso   1.000  N
  N12      1.0000 0.09830  0.50220  0.82320  Biso   1.000  N
  H5       1.0000 0.58240  0.87350  0.30820  Biso   1.000  H
  H6       1.0000 0.58240  0.12650  0.80820  Biso   1.000  H
  H7       1.0000 0.08240  0.37350  0.30820  Biso   1.000  H
  H8       1.0000 0.08240  0.62650  0.80820  Biso   1.000  H
  H9       1.0000 0.62200  0.03490  0.30730  Biso   1.000  H
  H10      1.0000 0.62200  0.96510  0.80730  Biso   1.000  H
  H11      1.0000 0.12200  0.53490  0.30730  Biso   1.000  H
  H12      1.0000 0.12200  0.46510  0.80730  Biso   1.000  H
  N13      1.0000 0.45100  0.23640  0.42162  Biso   1.000  N
  N14      1.0000 0.45100  0.76360  0.92162  Biso   1.000  N
  N15      1.0000 0.95100  0.73640  0.42162  Biso   1.000  N
  N16      1.0000 0.95100  0.26360  0.92162  Biso   1.000  N
  N17      1.0000 0.44709  0.40640  0.37350  Biso   1.000  N
  N18      1.0000 0.44709  0.59360  0.87350  Biso   1.000  N
  N19      1.0000 0.94709  0.90640  0.37350  Biso   1.000  N
  N20      1.0000 0.94709  0.09360  0.87350  Biso   1.000  N
  H13      1.0000 0.46580  0.52390  0.37260  Biso   1.000  H
  H14      1.0000 0.46580  0.47610  0.87260  Biso   1.000  H
  H15      1.0000 0.96580  0.02390  0.37260  Biso   1.000  H
  H16      1.0000 0.96580  0.97610  0.87260  Biso   1.000  H
  N21      1.0000 0.39930  0.51430  0.27680  Biso   1.000  N
  N22      1.0000 0.39930  0.48570  0.77680  Biso   1.000  N
  N23      1.0000 0.89930  0.01430  0.27680  Biso   1.000  N
  N24      1.0000 0.89930  0.98570  0.77680  Biso   1.000  N
  H17      1.0000 0.41560  0.63900  0.27170  Biso   1.000  H
  H18      1.0000 0.41560  0.36100  0.77170  Biso   1.000  H
  H19      1.0000 0.91560  0.13900  0.27170  Biso   1.000  H
  H20      1.0000 0.91560  0.86100  0.77170  Biso   1.000  H
  H21      1.0000 0.37540  0.48390  0.24820  Biso   1.000  H
  H22      1.0000 0.37540  0.51610  0.74820  Biso   1.000  H
  H23      1.0000 0.87540  0.98390  0.24820  Biso   1.000  H
  H24      1.0000 0.87540  0.01610  0.74820  Biso   1.000  H
  N25      1.0000 0.45264  0.25460  0.55740  Biso   1.000  N
  N26      1.0000 0.45264  0.74540  0.05740  Biso   1.000  N
  N27      1.0000 0.95264  0.75460  0.55740  Biso   1.000  N
  N28      1.0000 0.95264  0.24540  0.05740  Biso   1.000  N
  N29      1.0000 0.44899  0.09880  0.60680  Biso   1.000  N
  N30      1.0000 0.44899  0.90120  0.10680  Biso   1.000  N
  N31      1.0000 0.94899  0.59880  0.60680  Biso   1.000  N
  N32      1.0000 0.94899  0.40120  0.10680  Biso   1.000  N
  H25      1.0000 0.46790  0.98390  0.61970  Biso   1.000  H
  H26      1.0000 0.46790  0.01610  0.11970  Biso   1.000  H
  H27      1.0000 0.96790  0.48390  0.61970  Biso   1.000  H
  H28      1.0000 0.96790  0.51610  0.11970  Biso   1.000  H
  N33      1.0000 0.40180  0.02400  0.68340  Biso   1.000  N
  N34      1.0000 0.40180  0.97600  0.18340  Biso   1.000  N
  N35      1.0000 0.90180  0.52400  0.68340  Biso   1.000  N
  N36      1.0000 0.90180  0.47600  0.18340  Biso   1.000  N
  H29      1.0000 0.41870  0.90730  0.70130  Biso   1.000  H
  H30      1.0000 0.41870  0.09270  0.20130  Biso   1.000  H
  H31      1.0000 0.91870  0.40730  0.70130  Biso   1.000  H
  H32      1.0000 0.91870  0.59270  0.20130  Biso   1.000  H
  H33      1.0000 0.37780  0.06180  0.69850  Biso   1.000  H
  H34      1.0000 0.37780  0.93820  0.19850  Biso   1.000  H
  H35      1.0000 0.87780  0.56180  0.69850  Biso   1.000  H
  H36      1.0000 0.87780  0.43820  0.19850  Biso   1.000  H
  N37      1.0000 0.54745  0.22830  0.57980  Biso   1.000  N
  N38      1.0000 0.54745  0.77170  0.07980  Biso   1.000  N
  N39      1.0000 0.04745  0.72830  0.57980  Biso   1.000  N
  N40      1.0000 0.04745  0.27170  0.07980  Biso   1.000  N
  N41      1.0000 0.55061  0.38400  0.63110  Biso   1.000  N
  N42      1.0000 0.55061  0.61600  0.13110  Biso   1.000  N
  N43      1.0000 0.05061  0.88400  0.63110  Biso   1.000  N
  N44      1.0000 0.05061  0.11600  0.13110  Biso   1.000  N
  H37      1.0000 0.53120  0.49630  0.63440  Biso   1.000  H
  H38      1.0000 0.53120  0.50370  0.13440  Biso   1.000  H
  H39      1.0000 0.03120  0.99630  0.63440  Biso   1.000  H
  H40      1.0000 0.03120  0.00370  0.13440  Biso   1.000  H
  N45      1.0000 0.59770  0.46720  0.73120  Biso   1.000  N
  N46      1.0000 0.59770  0.53280  0.23120  Biso   1.000  N
  N47      1.0000 0.09770  0.96720  0.73120  Biso   1.000  N
  N48      1.0000 0.09770  0.03280  0.23120  Biso   1.000  N
  H41      1.0000 0.58040  0.58250  0.74020  Biso   1.000  H
  H42      1.0000 0.58040  0.41750  0.24020  Biso   1.000  H
  H43      1.0000 0.08040  0.08250  0.74020  Biso   1.000  H
  H44      1.0000 0.08040  0.91750  0.24020  Biso   1.000  H
  H45      1.0000 0.62190  0.43270  0.75860  Biso   1.000  H
  H46      1.0000 0.62190  0.56730  0.25860  Biso   1.000  H
  H47      1.0000 0.12190  0.93270  0.75860  Biso   1.000  H
  H48      1.0000 0.12190  0.06730  0.25860  Biso   1.000  H
  C1       1.0000 0.57934  0.39300  0.44710  Biso   1.000  C
  C2       1.0000 0.57934  0.60700  0.94710  Biso   1.000  C
  C3       1.0000 0.07934  0.89300  0.44710  Biso   1.000  C
  C4       1.0000 0.07934  0.10700  0.94710  Biso   1.000  C
  H49      1.0000 0.58480  0.52380  0.47610  Biso   1.000  H
  H50      1.0000 0.58480  0.47620  0.97610  Biso   1.000  H
  H51      1.0000 0.08480  0.02380  0.47610  Biso   1.000  H
  H52      1.0000 0.08480  0.97620  0.97610  Biso   1.000  H
  C5       1.0000 0.60630  0.33220  0.40180  Biso   1.000  C
  C6       1.0000 0.60630  0.66780  0.90180  Biso   1.000  C
  C7       1.0000 0.10630  0.83220  0.40180  Biso   1.000  C
  C8       1.0000 0.10630  0.16780  0.90180  Biso   1.000  C
  C9       1.0000 0.58621  0.13180  0.37090  Biso   1.000  C
  C10      1.0000 0.58621  0.86820  0.87090  Biso   1.000  C
  C11      1.0000 0.08621  0.63180  0.37090  Biso   1.000  C
  C12      1.0000 0.08621  0.36820  0.87090  Biso   1.000  C
  C13      1.0000 0.64620  0.44310  0.38890  Biso   1.000  C
  C14      1.0000 0.64620  0.55690  0.88890  Biso   1.000  C
  C15      1.0000 0.14620  0.94310  0.38890  Biso   1.000  C
  C16      1.0000 0.14620  0.05690  0.88890  Biso   1.000  C
  C17      1.0000 0.69660  0.76130  0.41900  Biso   1.000  C
  C18      1.0000 0.69660  0.23870  0.91900  Biso   1.000  C
  C19      1.0000 0.19660  0.26130  0.41900  Biso   1.000  C
  C20      1.0000 0.19660  0.73870  0.91900  Biso   1.000  C
  H53      1.0000 0.69050  0.83710  0.37560  Biso   1.000  H
  H54      1.0000 0.69050  0.16290  0.87560  Biso   1.000  H
  H55      1.0000 0.19050  0.33710  0.37560  Biso   1.000  H
  H56      1.0000 0.19050  0.66290  0.87560  Biso   1.000  H
  H57      1.0000 0.72280  0.65790  0.42140  Biso   1.000  H
  H58      1.0000 0.72280  0.34210  0.92140  Biso   1.000  H
  H59      1.0000 0.22280  0.15790  0.42140  Biso   1.000  H
  H60      1.0000 0.22280  0.84210  0.92140  Biso   1.000  H
  C21      1.0000 0.70390  0.94680  0.47180  Biso   1.000  C
  C22      1.0000 0.70390  0.05320  0.97180  Biso   1.000  C
  C23      1.0000 0.20390  0.44680  0.47180  Biso   1.000  C
  C24      1.0000 0.20390  0.55320  0.97180  Biso   1.000  C
  H61      1.0000 0.67760  0.04660  0.46880  Biso   1.000  H
  H62      1.0000 0.67760  0.95340  0.96880  Biso   1.000  H
  H63      1.0000 0.17760  0.54660  0.46880  Biso   1.000  H
  H64      1.0000 0.17760  0.45340  0.96880  Biso   1.000  H
  H65      1.0000 0.72930  0.04570  0.46670  Biso   1.000  H
  H66      1.0000 0.72930  0.95430  0.96670  Biso   1.000  H
  H67      1.0000 0.22930  0.54570  0.46670  Biso   1.000  H
  H68      1.0000 0.22930  0.45430  0.96670  Biso   1.000  H
  H69      1.0000 0.70970  0.86850  0.51440  Biso   1.000  H
  H70      1.0000 0.70970  0.13150  0.01440  Biso   1.000  H
  H71      1.0000 0.20970  0.36850  0.51440  Biso   1.000  H
  H72      1.0000 0.20970  0.63150  0.01440  Biso   1.000  H
  C25      1.0000 0.41610  0.09800  0.40570  Biso   1.000  C
  C26      1.0000 0.41610  0.90200  0.90570  Biso   1.000  C
  C27      1.0000 0.91610  0.59800  0.40570  Biso   1.000  C
  C28      1.0000 0.91610  0.40200  0.90570  Biso   1.000  C
  H73      1.0000 0.40960  0.96620  0.43080  Biso   1.000  H
  H74      1.0000 0.40960  0.03380  0.93080  Biso   1.000  H
  H75      1.0000 0.90960  0.46620  0.43080  Biso   1.000  H
  H76      1.0000 0.90960  0.53380  0.93080  Biso   1.000  H
  C29      1.0000 0.38984  0.16950  0.34740  Biso   1.000  C
  C30      1.0000 0.38984  0.83050  0.84740  Biso   1.000  C
  C31      1.0000 0.88984  0.66950  0.34740  Biso   1.000  C
  C32      1.0000 0.88984  0.33050  0.84740  Biso   1.000  C
  C33      1.0000 0.41110  0.36990  0.32840  Biso   1.000  C
  C34      1.0000 0.41110  0.63010  0.82840  Biso   1.000  C
  C35      1.0000 0.91110  0.86990  0.32840  Biso   1.000  C
  C36      1.0000 0.91110  0.13010  0.82840  Biso   1.000  C
  C37      1.0000 0.34990  0.06980  0.31230  Biso   1.000  C
  C38      1.0000 0.34990  0.93020  0.81230  Biso   1.000  C
  C39      1.0000 0.84990  0.56980  0.31230  Biso   1.000  C
  C40      1.0000 0.84990  0.43020  0.81230  Biso   1.000  C
  C41      1.0000 0.29440  0.77010  0.30840  Biso   1.000  C
  C42      1.0000 0.29440  0.22990  0.80840  Biso   1.000  C
  C43      1.0000 0.79440  0.27010  0.30840  Biso   1.000  C
  C44      1.0000 0.79440  0.72990  0.80840  Biso   1.000  C
  H77      1.0000 0.26950  0.88310  0.29930  Biso   1.000  H
  H78      1.0000 0.26950  0.11690  0.79930  Biso   1.000  H
  H79      1.0000 0.76950  0.38310  0.29930  Biso   1.000  H
  H80      1.0000 0.76950  0.61690  0.79930  Biso   1.000  H
  H81      1.0000 0.30030  0.70640  0.26650  Biso   1.000  H
  H82      1.0000 0.30030  0.29360  0.76650  Biso   1.000  H
  H83      1.0000 0.80030  0.20640  0.26650  Biso   1.000  H
  H84      1.0000 0.80030  0.79360  0.76650  Biso   1.000  H
  C45      1.0000 0.28390  0.57530  0.35030  Biso   1.000  C
  C46      1.0000 0.28390  0.42470  0.85030  Biso   1.000  C
  C47      1.0000 0.78390  0.07530  0.35030  Biso   1.000  C
  C48      1.0000 0.78390  0.92470  0.85030  Biso   1.000  C
  H85      1.0000 0.31020  0.47770  0.36390  Biso   1.000  H
  H86      1.0000 0.31020  0.52230  0.86390  Biso   1.000  H
  H87      1.0000 0.81020  0.97770  0.36390  Biso   1.000  H
  H88      1.0000 0.81020  0.02230  0.86390  Biso   1.000  H
  H89      1.0000 0.26030  0.47700  0.32600  Biso   1.000  H
  H90      1.0000 0.26030  0.52300  0.82600  Biso   1.000  H
  H91      1.0000 0.76030  0.97700  0.32600  Biso   1.000  H
  H92      1.0000 0.76030  0.02300  0.82600  Biso   1.000  H
  H93      1.0000 0.27410  0.64180  0.38870  Biso   1.000  H
  H94      1.0000 0.27410  0.35820  0.88870  Biso   1.000  H
  H95      1.0000 0.77410  0.14180  0.38870  Biso   1.000  H
  H96      1.0000 0.77410  0.85820  0.88870  Biso   1.000  H
  C49      1.0000 0.41870  0.39710  0.55300  Biso   1.000  C
  C50      1.0000 0.41870  0.60290  0.05300  Biso   1.000  C
  C51      1.0000 0.91870  0.89710  0.55300  Biso   1.000  C
  C52      1.0000 0.91870  0.10290  0.05300  Biso   1.000  C
  H97      1.0000 0.41280  0.52330  0.52250  Biso   1.000  H
  H98      1.0000 0.41280  0.47670  0.02250  Biso   1.000  H
  H99      1.0000 0.91280  0.02330  0.52250  Biso   1.000  H
  H100     1.0000 0.91280  0.97670  0.02250  Biso   1.000  H
  C53      1.0000 0.39202  0.34050  0.59880  Biso   1.000  C
  C54      1.0000 0.39202  0.65950  0.09880  Biso   1.000  C
  C55      1.0000 0.89202  0.84050  0.59880  Biso   1.000  C
  C56      1.0000 0.89202  0.15950  0.09880  Biso   1.000  C
  C57      1.0000 0.41270  0.14410  0.63320  Biso   1.000  C
  C58      1.0000 0.41270  0.85590  0.13320  Biso   1.000  C
  C59      1.0000 0.91270  0.64410  0.63320  Biso   1.000  C
  C60      1.0000 0.91270  0.35590  0.13320  Biso   1.000  C
  C61      1.0000 0.35260  0.45620  0.61070  Biso   1.000  C
  C62      1.0000 0.35260  0.54380  0.11070  Biso   1.000  C
  C63      1.0000 0.85260  0.95620  0.61070  Biso   1.000  C
  C64      1.0000 0.85260  0.04380  0.11070  Biso   1.000  C
  C65      1.0000 0.30240  0.77130  0.58030  Biso   1.000  C
  C66      1.0000 0.30240  0.22870  0.08030  Biso   1.000  C
  C67      1.0000 0.80240  0.27130  0.58030  Biso   1.000  C
  C68      1.0000 0.80240  0.72870  0.08030  Biso   1.000  C
  H101     1.0000 0.30760  0.84550  0.62390  Biso   1.000  H
  H102     1.0000 0.30760  0.15450  0.12390  Biso   1.000  H
  H103     1.0000 0.80760  0.34550  0.62390  Biso   1.000  H
  H104     1.0000 0.80760  0.65450  0.12390  Biso   1.000  H
  H105     1.0000 0.27610  0.66760  0.57650  Biso   1.000  H
  H106     1.0000 0.27610  0.33240  0.07650  Biso   1.000  H
  H107     1.0000 0.77610  0.16760  0.57650  Biso   1.000  H
  H108     1.0000 0.77610  0.83240  0.07650  Biso   1.000  H
  C69      1.0000 0.29570  0.96040  0.52770  Biso   1.000  C
  C70      1.0000 0.29570  0.03960  0.02770  Biso   1.000  C
  C71      1.0000 0.79570  0.46040  0.52770  Biso   1.000  C
  C72      1.0000 0.79570  0.53960  0.02770  Biso   1.000  C
  H109     1.0000 0.32280  0.05400  0.53010  Biso   1.000  H
  H110     1.0000 0.32280  0.94600  0.03010  Biso   1.000  H
  H111     1.0000 0.82280  0.55400  0.53010  Biso   1.000  H
  H112     1.0000 0.82280  0.44600  0.03010  Biso   1.000  H
  H113     1.0000 0.27140  0.06490  0.53400  Biso   1.000  H
  H114     1.0000 0.27140  0.93510  0.03400  Biso   1.000  H
  H115     1.0000 0.77140  0.56490  0.53400  Biso   1.000  H
  H116     1.0000 0.77140  0.43510  0.03400  Biso   1.000  H
  H117     1.0000 0.28870  0.88430  0.48490  Biso   1.000  H
  H118     1.0000 0.28870  0.11570  0.98490  Biso   1.000  H
  H119     1.0000 0.78870  0.38430  0.48490  Biso   1.000  H
  H120     1.0000 0.78870  0.61570  0.98490  Biso   1.000  H
  C73      1.0000 0.58190  0.08810  0.59310  Biso   1.000  C
  C74      1.0000 0.58190  0.91190  0.09310  Biso   1.000  C
  C75      1.0000 0.08190  0.58810  0.59310  Biso   1.000  C
  C76      1.0000 0.08190  0.41190  0.09310  Biso   1.000  C
  H121     1.0000 0.58800  0.96070  0.56630  Biso   1.000  H
  H122     1.0000 0.58800  0.03930  0.06630  Biso   1.000  H
  H123     1.0000 0.08800  0.46070  0.56630  Biso   1.000  H
  H124     1.0000 0.08800  0.53930  0.06630  Biso   1.000  H
  C77      1.0000 0.60860  0.15060  0.65220  Biso   1.000  C
  C78      1.0000 0.60860  0.84940  0.15220  Biso   1.000  C
  C79      1.0000 0.10860  0.65060  0.65220  Biso   1.000  C
  C80      1.0000 0.10860  0.34940  0.15220  Biso   1.000  C
  C81      1.0000 0.58690  0.34350  0.67550  Biso   1.000  C
  C82      1.0000 0.58690  0.65650  0.17550  Biso   1.000  C
  C83      1.0000 0.08690  0.84350  0.67550  Biso   1.000  C
  C84      1.0000 0.08690  0.15650  0.17550  Biso   1.000  C
  C85      1.0000 0.64860  0.04350  0.68720  Biso   1.000  C
  C86      1.0000 0.64860  0.95650  0.18720  Biso   1.000  C
  C87      1.0000 0.14860  0.54350  0.68720  Biso   1.000  C
  C88      1.0000 0.14860  0.45650  0.18720  Biso   1.000  C
  C89      1.0000 0.70290  0.74990  0.68780  Biso   1.000  C
  C90      1.0000 0.70290  0.25010  0.18780  Biso   1.000  C
  C91      1.0000 0.20290  0.24990  0.68780  Biso   1.000  C
  C92      1.0000 0.20290  0.75010  0.18780  Biso   1.000  C
  H125     1.0000 0.69820  0.69100  0.73070  Biso   1.000  H
  H126     1.0000 0.69820  0.30900  0.23070  Biso   1.000  H
  H127     1.0000 0.19820  0.19100  0.73070  Biso   1.000  H
  H128     1.0000 0.19820  0.80900  0.23070  Biso   1.000  H
  H129     1.0000 0.72800  0.86220  0.69460  Biso   1.000  H
  H130     1.0000 0.72800  0.13780  0.19460  Biso   1.000  H
  H131     1.0000 0.22800  0.36220  0.69460  Biso   1.000  H
  H132     1.0000 0.22800  0.63780  0.19460  Biso   1.000  H
  C93      1.0000 0.71230  0.54550  0.64550  Biso   1.000  C
  C94      1.0000 0.71230  0.45450  0.14550  Biso   1.000  C
  C95      1.0000 0.21230  0.04550  0.64550  Biso   1.000  C
  C96      1.0000 0.21230  0.95450  0.14550  Biso   1.000  C
  H133     1.0000 0.68810  0.43020  0.64170  Biso   1.000  H
  H134     1.0000 0.68810  0.56980  0.14170  Biso   1.000  H
  H135     1.0000 0.18810  0.93020  0.64170  Biso   1.000  H
  H136     1.0000 0.18810  0.06980  0.14170  Biso   1.000  H
  H137     1.0000 0.74000  0.46870  0.66520  Biso   1.000  H
  H138     1.0000 0.74000  0.53130  0.16520  Biso   1.000  H
  H139     1.0000 0.24000  0.96870  0.66520  Biso   1.000  H
  H140     1.0000 0.24000  0.03130  0.16520  Biso   1.000  H
  H141     1.0000 0.71480  0.60500  0.60230  Biso   1.000  H
  H142     1.0000 0.71480  0.39500  0.10230  Biso   1.000  H
  H143     1.0000 0.21480  0.10500  0.60230  Biso   1.000  H
  H144     1.0000 0.21480  0.89500  0.10230  Biso   1.000  H
  Br5      1.0000 0.49898  0.73808  0.71996  Biso   1.000  Br
  Br6      1.0000 0.49898  0.26192  0.21996  Biso   1.000  Br
  Br7      1.0000 0.99898  0.23808  0.71996  Biso   1.000  Br
  Br8      1.0000 0.99898  0.76192  0.21996  Biso   1.000  Br
  O33      1.0000 0.49785  0.75590  0.30400  Biso   1.000  O
  O34      1.0000 0.49785  0.24410  0.80400  Biso   1.000  O
  O35      1.0000 0.99785  0.25590  0.30400  Biso   1.000  O
  O36      1.0000 0.99785  0.74410  0.80400  Biso   1.000  O
