data_image0
_cell_length_a       17.274
_cell_length_b       17.274
_cell_length_c       15.5476
_cell_angle_alpha    90
_cell_angle_beta     90
_cell_angle_gamma    90

_symmetry_space_group_name_H-M    "P 1"
_symmetry_int_tables_number       1

loop_
  _symmetry_equiv_pos_as_xyz
  'x, y, z'

loop_
  _atom_site_label
  _atom_site_occupancy
  _atom_site_fract_x
  _atom_site_fract_y
  _atom_site_fract_z
  _atom_site_thermal_displace_type
  _atom_site_B_iso_or_equiv
  _atom_site_type_symbol
  Cu1      1.0000 0.30829  0.20036  0.99942  Biso   1.000  Cu
  Cu2      1.0000 0.29964  0.80829  0.24942  Biso   1.000  Cu
  Cu3      1.0000 0.69171  0.79964  0.49942  Biso   1.000  Cu
  Cu4      1.0000 0.70036  0.19171  0.74942  Biso   1.000  Cu
  Cu5      1.0000 0.80829  0.29964  0.75058  Biso   1.000  Cu
  Cu6      1.0000 0.20036  0.30829  0.00058  Biso   1.000  Cu
  Cu7      1.0000 0.19171  0.70036  0.25058  Biso   1.000  Cu
  Cu8      1.0000 0.79964  0.69171  0.50058  Biso   1.000  Cu
  S1       1.0000 0.64517  0.92702  0.08714  Biso   1.000  S
  S2       1.0000 0.57298  0.14517  0.33714  Biso   1.000  S
  S3       1.0000 0.35483  0.07298  0.58714  Biso   1.000  S
  S4       1.0000 0.42702  0.85483  0.83714  Biso   1.000  S
  S5       1.0000 0.14517  0.57298  0.66286  Biso   1.000  S
  S6       1.0000 0.92702  0.64517  0.91286  Biso   1.000  S
  S7       1.0000 0.85483  0.42702  0.16286  Biso   1.000  S
  S8       1.0000 0.07298  0.35483  0.41286  Biso   1.000  S
  N1       1.0000 0.39450  0.10940  0.01470  Biso   1.000  N
  N2       1.0000 0.39060  0.89450  0.26470  Biso   1.000  N
  N3       1.0000 0.60550  0.89060  0.51470  Biso   1.000  N
  N4       1.0000 0.60940  0.10550  0.76470  Biso   1.000  N
  N5       1.0000 0.89450  0.39060  0.73530  Biso   1.000  N
  N6       1.0000 0.10940  0.39450  0.98530  Biso   1.000  N
  N7       1.0000 0.10550  0.60940  0.23530  Biso   1.000  N
  N8       1.0000 0.89060  0.60550  0.48530  Biso   1.000  N
  N9       1.0000 0.52570  0.85240  0.05920  Biso   1.000  N
  N10      1.0000 0.64760  0.02570  0.30920  Biso   1.000  N
  N11      1.0000 0.47430  0.14760  0.55920  Biso   1.000  N
  N12      1.0000 0.35240  0.97430  0.80920  Biso   1.000  N
  N13      1.0000 0.02570  0.64760  0.69080  Biso   1.000  N
  N14      1.0000 0.85240  0.52570  0.94080  Biso   1.000  N
  N15      1.0000 0.97430  0.35240  0.19080  Biso   1.000  N
  N16      1.0000 0.14760  0.47430  0.44080  Biso   1.000  N
  N17      1.0000 0.58050  0.79950  0.07640  Biso   1.000  N
  N18      1.0000 0.70050  0.08050  0.32640  Biso   1.000  N
  N19      1.0000 0.41950  0.20050  0.57640  Biso   1.000  N
  N20      1.0000 0.29950  0.91950  0.82640  Biso   1.000  N
  N21      1.0000 0.08050  0.70050  0.67360  Biso   1.000  N
  N22      1.0000 0.79950  0.58050  0.92360  Biso   1.000  N
  N23      1.0000 0.91950  0.29950  0.17360  Biso   1.000  N
  N24      1.0000 0.20050  0.41950  0.42360  Biso   1.000  N
  N25      1.0000 0.84130  0.68100  0.13400  Biso   1.000  N
  N26      1.0000 0.81900  0.34130  0.38400  Biso   1.000  N
  N27      1.0000 0.15870  0.31900  0.63400  Biso   1.000  N
  N28      1.0000 0.18100  0.65870  0.88400  Biso   1.000  N
  N29      1.0000 0.34130  0.81900  0.61600  Biso   1.000  N
  N30      1.0000 0.68100  0.84130  0.86600  Biso   1.000  N
  N31      1.0000 0.65870  0.18100  0.11600  Biso   1.000  N
  N32      1.0000 0.31900  0.15870  0.36600  Biso   1.000  N
  O1       1.0000 0.23910  0.15360  0.08920  Biso   1.000  O
  O2       1.0000 0.34640  0.73910  0.33920  Biso   1.000  O
  O3       1.0000 0.76090  0.84640  0.58920  Biso   1.000  O
  O4       1.0000 0.65360  0.26090  0.83920  Biso   1.000  O
  O5       1.0000 0.73910  0.34640  0.66080  Biso   1.000  O
  O6       1.0000 0.15360  0.23910  0.91080  Biso   1.000  O
  O7       1.0000 0.26090  0.65360  0.16080  Biso   1.000  O
  O8       1.0000 0.84640  0.76090  0.41080  Biso   1.000  O
  O9       1.0000 0.14990  0.24800  0.08740  Biso   1.000  O
  O10      1.0000 0.25200  0.64990  0.33740  Biso   1.000  O
  O11      1.0000 0.85010  0.75200  0.58740  Biso   1.000  O
  O12      1.0000 0.74800  0.35010  0.83740  Biso   1.000  O
  O13      1.0000 0.64990  0.25200  0.66260  Biso   1.000  O
  O14      1.0000 0.24800  0.14990  0.91260  Biso   1.000  O
  O15      1.0000 0.35010  0.74800  0.16260  Biso   1.000  O
  O16      1.0000 0.75200  0.85010  0.41260  Biso   1.000  O
  O17      1.0000 0.00090  0.02960  0.37030  Biso   1.000  O
  O18      1.0000 0.47040  0.50090  0.62030  Biso   1.000  O
  O19      1.0000 0.99910  0.97040  0.87030  Biso   1.000  O
  O20      1.0000 0.52960  0.49910  0.12030  Biso   1.000  O
  O21      1.0000 0.50090  0.47040  0.37970  Biso   1.000  O
  O22      1.0000 0.02960  0.00090  0.62970  Biso   1.000  O
  O23      1.0000 0.49910  0.52960  0.87970  Biso   1.000  O
  O24      1.0000 0.97040  0.99910  0.12970  Biso   1.000  O
  O25      1.0000 0.85770  0.23550  0.66520  Biso   1.000  O
  O26      1.0000 0.26450  0.35770  0.91520  Biso   1.000  O
  O27      1.0000 0.14230  0.76450  0.16520  Biso   1.000  O
  O28      1.0000 0.73550  0.64230  0.41520  Biso   1.000  O
  O29      1.0000 0.35770  0.26450  0.08480  Biso   1.000  O
  O30      1.0000 0.23550  0.85770  0.33480  Biso   1.000  O
  O31      1.0000 0.64230  0.73550  0.58480  Biso   1.000  O
  O32      1.0000 0.76450  0.14230  0.83480  Biso   1.000  O
  O33      1.0000 0.76670  0.14330  0.65780  Biso   1.000  O
  O34      1.0000 0.35670  0.26670  0.90780  Biso   1.000  O
  O35      1.0000 0.23330  0.85670  0.15780  Biso   1.000  O
  O36      1.0000 0.64330  0.73330  0.40780  Biso   1.000  O
  O37      1.0000 0.26670  0.35670  0.09220  Biso   1.000  O
  O38      1.0000 0.14330  0.76670  0.34220  Biso   1.000  O
  O39      1.0000 0.73330  0.64330  0.59220  Biso   1.000  O
  O40      1.0000 0.85670  0.23330  0.84220  Biso   1.000  O
  C1       1.0000 0.47000  0.12140  0.02370  Biso   1.000  C
  C2       1.0000 0.37860  0.97000  0.27370  Biso   1.000  C
  C3       1.0000 0.53000  0.87860  0.52370  Biso   1.000  C
  C4       1.0000 0.62140  0.03000  0.77370  Biso   1.000  C
  C5       1.0000 0.97000  0.37860  0.72630  Biso   1.000  C
  C6       1.0000 0.12140  0.47000  0.97630  Biso   1.000  C
  C7       1.0000 0.03000  0.62140  0.22630  Biso   1.000  C
  C8       1.0000 0.87860  0.53000  0.47630  Biso   1.000  C
  H1       1.0000 0.48800  0.17200  0.02000  Biso   1.000  H
  H2       1.0000 0.32800  0.98800  0.27000  Biso   1.000  H
  H3       1.0000 0.51200  0.82800  0.52000  Biso   1.000  H
  H4       1.0000 0.67200  0.01200  0.77000  Biso   1.000  H
  H5       1.0000 0.98800  0.32800  0.73000  Biso   1.000  H
  H6       1.0000 0.17200  0.48800  0.98000  Biso   1.000  H
  H7       1.0000 0.01200  0.67200  0.23000  Biso   1.000  H
  H8       1.0000 0.82800  0.51200  0.48000  Biso   1.000  H
  C9       1.0000 0.52310  0.06370  0.03800  Biso   1.000  C
  C10      1.0000 0.43630  0.02310  0.28800  Biso   1.000  C
  C11      1.0000 0.47690  0.93630  0.53800  Biso   1.000  C
  C12      1.0000 0.56370  0.97690  0.78800  Biso   1.000  C
  C13      1.0000 0.02310  0.43630  0.71200  Biso   1.000  C
  C14      1.0000 0.06370  0.52310  0.96200  Biso   1.000  C
  C15      1.0000 0.97690  0.56370  0.21200  Biso   1.000  C
  C16      1.0000 0.93630  0.47690  0.46200  Biso   1.000  C
  H9       1.0000 0.57560  0.07500  0.04190  Biso   1.000  H
  H10      1.0000 0.42500  0.07560  0.29190  Biso   1.000  H
  H11      1.0000 0.42440  0.92500  0.54190  Biso   1.000  H
  H12      1.0000 0.57500  0.92440  0.79190  Biso   1.000  H
  H13      1.0000 0.07560  0.42500  0.70810  Biso   1.000  H
  H14      1.0000 0.07500  0.57560  0.95810  Biso   1.000  H
  H15      1.0000 0.92440  0.57500  0.20810  Biso   1.000  H
  H16      1.0000 0.92500  0.42440  0.45810  Biso   1.000  H
  C17      1.0000 0.49710  0.98870  0.04660  Biso   1.000  C
  C18      1.0000 0.51130  0.99710  0.29660  Biso   1.000  C
  C19      1.0000 0.50290  0.01130  0.54660  Biso   1.000  C
  C20      1.0000 0.48870  0.00290  0.79660  Biso   1.000  C
  C21      1.0000 0.99710  0.51130  0.70340  Biso   1.000  C
  C22      1.0000 0.98870  0.49710  0.95340  Biso   1.000  C
  C23      1.0000 0.00290  0.48870  0.20340  Biso   1.000  C
  C24      1.0000 0.01130  0.50290  0.45340  Biso   1.000  C
  C25      1.0000 0.41960  0.97520  0.03940  Biso   1.000  C
  C26      1.0000 0.52480  0.91960  0.28940  Biso   1.000  C
  C27      1.0000 0.58040  0.02480  0.53940  Biso   1.000  C
  C28      1.0000 0.47520  0.08040  0.78940  Biso   1.000  C
  C29      1.0000 0.91960  0.52480  0.71060  Biso   1.000  C
  C30      1.0000 0.97520  0.41960  0.96060  Biso   1.000  C
  C31      1.0000 0.08040  0.47520  0.21060  Biso   1.000  C
  C32      1.0000 0.02480  0.58040  0.46060  Biso   1.000  C
  H17      1.0000 0.39960  0.92570  0.04640  Biso   1.000  H
  H18      1.0000 0.57430  0.89960  0.29640  Biso   1.000  H
  H19      1.0000 0.60040  0.07430  0.54640  Biso   1.000  H
  H20      1.0000 0.42570  0.10040  0.79640  Biso   1.000  H
  H21      1.0000 0.89960  0.57430  0.70360  Biso   1.000  H
  H22      1.0000 0.92570  0.39960  0.95360  Biso   1.000  H
  H23      1.0000 0.10040  0.42570  0.20360  Biso   1.000  H
  H24      1.0000 0.07430  0.60040  0.45360  Biso   1.000  H
  C33      1.0000 0.37060  0.03820  0.02110  Biso   1.000  C
  C34      1.0000 0.46180  0.87060  0.27110  Biso   1.000  C
  C35      1.0000 0.62940  0.96180  0.52110  Biso   1.000  C
  C36      1.0000 0.53820  0.12940  0.77110  Biso   1.000  C
  C37      1.0000 0.87060  0.46180  0.72890  Biso   1.000  C
  C38      1.0000 0.03820  0.37060  0.97890  Biso   1.000  C
  C39      1.0000 0.12940  0.53820  0.22890  Biso   1.000  C
  C40      1.0000 0.96180  0.62940  0.47890  Biso   1.000  C
  H25      1.0000 0.31810  0.02840  0.01310  Biso   1.000  H
  H26      1.0000 0.47160  0.81810  0.26310  Biso   1.000  H
  H27      1.0000 0.68190  0.97160  0.51310  Biso   1.000  H
  H28      1.0000 0.52840  0.18190  0.76310  Biso   1.000  H
  H29      1.0000 0.81810  0.47160  0.73690  Biso   1.000  H
  H30      1.0000 0.02840  0.31810  0.98690  Biso   1.000  H
  H31      1.0000 0.18190  0.52840  0.23690  Biso   1.000  H
  H32      1.0000 0.97160  0.68190  0.48690  Biso   1.000  H
  C41      1.0000 0.54990  0.92210  0.05930  Biso   1.000  C
  C42      1.0000 0.57790  0.04990  0.30930  Biso   1.000  C
  C43      1.0000 0.45010  0.07790  0.55930  Biso   1.000  C
  C44      1.0000 0.42210  0.95010  0.80930  Biso   1.000  C
  C45      1.0000 0.04990  0.57790  0.69070  Biso   1.000  C
  C46      1.0000 0.92210  0.54990  0.94070  Biso   1.000  C
  C47      1.0000 0.95010  0.42210  0.19070  Biso   1.000  C
  C48      1.0000 0.07790  0.45010  0.44070  Biso   1.000  C
  C49      1.0000 0.64730  0.82930  0.09260  Biso   1.000  C
  C50      1.0000 0.67070  0.14730  0.34260  Biso   1.000  C
  C51      1.0000 0.35270  0.17070  0.59260  Biso   1.000  C
  C52      1.0000 0.32930  0.85270  0.84260  Biso   1.000  C
  C53      1.0000 0.14730  0.67070  0.65740  Biso   1.000  C
  C54      1.0000 0.82930  0.64730  0.90740  Biso   1.000  C
  C55      1.0000 0.85270  0.32930  0.15740  Biso   1.000  C
  C56      1.0000 0.17070  0.35270  0.40740  Biso   1.000  C
  C57      1.0000 0.71580  0.78000  0.10910  Biso   1.000  C
  C58      1.0000 0.72000  0.21580  0.35910  Biso   1.000  C
  C59      1.0000 0.28420  0.22000  0.60910  Biso   1.000  C
  C60      1.0000 0.28000  0.78420  0.85910  Biso   1.000  C
  C61      1.0000 0.21580  0.72000  0.64090  Biso   1.000  C
  C62      1.0000 0.78000  0.71580  0.89090  Biso   1.000  C
  C63      1.0000 0.78420  0.28000  0.14090  Biso   1.000  C
  C64      1.0000 0.22000  0.28420  0.39090  Biso   1.000  C
  C65      1.0000 0.78640  0.80650  0.10970  Biso   1.000  C
  C66      1.0000 0.69350  0.28640  0.35970  Biso   1.000  C
  C67      1.0000 0.21360  0.19350  0.60970  Biso   1.000  C
  C68      1.0000 0.30650  0.71360  0.85970  Biso   1.000  C
  C69      1.0000 0.28640  0.69350  0.64030  Biso   1.000  C
  C70      1.0000 0.80650  0.78640  0.89030  Biso   1.000  C
  C71      1.0000 0.71360  0.30650  0.14030  Biso   1.000  C
  C72      1.0000 0.19350  0.21360  0.39030  Biso   1.000  C
  H33      1.0000 0.79630  0.85910  0.10320  Biso   1.000  H
  H34      1.0000 0.64090  0.29630  0.35320  Biso   1.000  H
  H35      1.0000 0.20370  0.14090  0.60320  Biso   1.000  H
  H36      1.0000 0.35910  0.70370  0.85320  Biso   1.000  H
  H37      1.0000 0.29630  0.64090  0.64680  Biso   1.000  H
  H38      1.0000 0.85910  0.79630  0.89680  Biso   1.000  H
  H39      1.0000 0.70370  0.35910  0.14680  Biso   1.000  H
  H40      1.0000 0.14090  0.20370  0.39680  Biso   1.000  H
  C73      1.0000 0.84790  0.75260  0.12060  Biso   1.000  C
  C74      1.0000 0.74740  0.34790  0.37060  Biso   1.000  C
  C75      1.0000 0.15210  0.24740  0.62060  Biso   1.000  C
  C76      1.0000 0.25260  0.65210  0.87060  Biso   1.000  C
  C77      1.0000 0.34790  0.74740  0.62940  Biso   1.000  C
  C78      1.0000 0.75260  0.84790  0.87940  Biso   1.000  C
  C79      1.0000 0.65210  0.25260  0.12940  Biso   1.000  C
  C80      1.0000 0.24740  0.15210  0.37940  Biso   1.000  C
  H41      1.0000 0.89790  0.77220  0.11760  Biso   1.000  H
  H42      1.0000 0.72780  0.39790  0.36760  Biso   1.000  H
  H43      1.0000 0.10210  0.22780  0.61760  Biso   1.000  H
  H44      1.0000 0.27220  0.60210  0.86760  Biso   1.000  H
  H45      1.0000 0.39790  0.72780  0.63240  Biso   1.000  H
  H46      1.0000 0.77220  0.89790  0.88240  Biso   1.000  H
  H47      1.0000 0.60210  0.27220  0.13240  Biso   1.000  H
  H48      1.0000 0.22780  0.10210  0.38240  Biso   1.000  H
  C81      1.0000 0.77150  0.65630  0.12570  Biso   1.000  C
  C82      1.0000 0.84370  0.27150  0.37570  Biso   1.000  C
  C83      1.0000 0.22850  0.34370  0.62570  Biso   1.000  C
  C84      1.0000 0.15630  0.72850  0.87570  Biso   1.000  C
  C85      1.0000 0.27150  0.84370  0.62430  Biso   1.000  C
  C86      1.0000 0.65630  0.77150  0.87430  Biso   1.000  C
  C87      1.0000 0.72850  0.15630  0.12430  Biso   1.000  C
  C88      1.0000 0.34370  0.22850  0.37430  Biso   1.000  C
  H49      1.0000 0.76370  0.60310  0.12980  Biso   1.000  H
  H50      1.0000 0.89690  0.26370  0.37980  Biso   1.000  H
  H51      1.0000 0.23630  0.39690  0.62980  Biso   1.000  H
  H52      1.0000 0.10310  0.73630  0.87980  Biso   1.000  H
  H53      1.0000 0.26370  0.89690  0.62020  Biso   1.000  H
  H54      1.0000 0.60310  0.76370  0.87020  Biso   1.000  H
  H55      1.0000 0.73630  0.10310  0.12020  Biso   1.000  H
  H56      1.0000 0.39690  0.23630  0.37020  Biso   1.000  H
  C89      1.0000 0.70660  0.70220  0.11110  Biso   1.000  C
  C90      1.0000 0.79780  0.20660  0.36110  Biso   1.000  C
  C91      1.0000 0.29340  0.29780  0.61110  Biso   1.000  C
  C92      1.0000 0.20220  0.79340  0.86110  Biso   1.000  C
  C93      1.0000 0.20660  0.79780  0.63890  Biso   1.000  C
  C94      1.0000 0.70220  0.70660  0.88890  Biso   1.000  C
  C95      1.0000 0.79340  0.20220  0.13890  Biso   1.000  C
  C96      1.0000 0.29780  0.29340  0.38890  Biso   1.000  C
  H57      1.0000 0.65810  0.68000  0.10300  Biso   1.000  H
  H58      1.0000 0.82000  0.15810  0.35300  Biso   1.000  H
  H59      1.0000 0.34190  0.32000  0.60300  Biso   1.000  H
  H60      1.0000 0.18000  0.84190  0.85300  Biso   1.000  H
  H61      1.0000 0.15810  0.82000  0.64700  Biso   1.000  H
  H62      1.0000 0.68000  0.65810  0.89700  Biso   1.000  H
  H63      1.0000 0.84190  0.18000  0.14700  Biso   1.000  H
  H64      1.0000 0.32000  0.34190  0.39700  Biso   1.000  H
  C97      1.0000 0.17810  0.18500  0.11390  Biso   1.000  C
  C98      1.0000 0.31500  0.67810  0.36390  Biso   1.000  C
  C99      1.0000 0.82190  0.81500  0.61390  Biso   1.000  C
  C100     1.0000 0.68500  0.32190  0.86390  Biso   1.000  C
  C101     1.0000 0.67810  0.31500  0.63610  Biso   1.000  C
  C102     1.0000 0.18500  0.17810  0.88610  Biso   1.000  C
  C103     1.0000 0.32190  0.68500  0.13610  Biso   1.000  C
  C104     1.0000 0.81500  0.82190  0.38610  Biso   1.000  C
  C105     1.0000 0.13120  0.14370  0.18180  Biso   1.000  C
  C106     1.0000 0.35630  0.63120  0.43180  Biso   1.000  C
  C107     1.0000 0.86880  0.85630  0.68180  Biso   1.000  C
  C108     1.0000 0.64370  0.36880  0.93180  Biso   1.000  C
  C109     1.0000 0.63120  0.35630  0.56820  Biso   1.000  C
  C110     1.0000 0.14370  0.13120  0.81820  Biso   1.000  C
  C111     1.0000 0.36880  0.64370  0.06820  Biso   1.000  C
  C112     1.0000 0.85630  0.86880  0.31820  Biso   1.000  C
  C113     1.0000 0.06580  0.17760  0.21550  Biso   1.000  C
  C114     1.0000 0.32240  0.56580  0.46550  Biso   1.000  C
  C115     1.0000 0.93420  0.82240  0.71550  Biso   1.000  C
  C116     1.0000 0.67760  0.43420  0.96550  Biso   1.000  C
  C117     1.0000 0.56580  0.32240  0.53450  Biso   1.000  C
  C118     1.0000 0.17760  0.06580  0.78450  Biso   1.000  C
  C119     1.0000 0.43420  0.67760  0.03450  Biso   1.000  C
  C120     1.0000 0.82240  0.93420  0.28450  Biso   1.000  C
  H65      1.0000 0.05130  0.22620  0.19520  Biso   1.000  H
  H66      1.0000 0.27380  0.55130  0.44520  Biso   1.000  H
  H67      1.0000 0.94870  0.77380  0.69520  Biso   1.000  H
  H68      1.0000 0.72620  0.44870  0.94520  Biso   1.000  H
  H69      1.0000 0.55130  0.27380  0.55480  Biso   1.000  H
  H70      1.0000 0.22620  0.05130  0.80480  Biso   1.000  H
  H71      1.0000 0.44870  0.72620  0.05480  Biso   1.000  H
  H72      1.0000 0.77380  0.94870  0.30480  Biso   1.000  H
  C121     1.0000 0.02050  0.14320  0.27820  Biso   1.000  C
  C122     1.0000 0.35680  0.52050  0.52820  Biso   1.000  C
  C123     1.0000 0.97950  0.85680  0.77820  Biso   1.000  C
  C124     1.0000 0.64320  0.47950  0.02820  Biso   1.000  C
  C125     1.0000 0.52050  0.35680  0.47180  Biso   1.000  C
  C126     1.0000 0.14320  0.02050  0.72180  Biso   1.000  C
  C127     1.0000 0.47950  0.64320  0.97180  Biso   1.000  C
  C128     1.0000 0.85680  0.97950  0.22180  Biso   1.000  C
  H73      1.0000 0.97630  0.16740  0.29920  Biso   1.000  H
  H74      1.0000 0.33260  0.47630  0.54920  Biso   1.000  H
  H75      1.0000 0.02370  0.83260  0.79920  Biso   1.000  H
  H76      1.0000 0.66740  0.52370  0.04920  Biso   1.000  H
  H77      1.0000 0.47630  0.33260  0.45080  Biso   1.000  H
  H78      1.0000 0.16740  0.97630  0.70080  Biso   1.000  H
  H79      1.0000 0.52370  0.66740  0.95080  Biso   1.000  H
  H80      1.0000 0.83260  0.02370  0.20080  Biso   1.000  H
  C129     1.0000 0.04370  0.07070  0.30870  Biso   1.000  C
  C130     1.0000 0.42930  0.54370  0.55870  Biso   1.000  C
  C131     1.0000 0.95630  0.92930  0.80870  Biso   1.000  C
  C132     1.0000 0.57070  0.45630  0.05870  Biso   1.000  C
  C133     1.0000 0.54370  0.42930  0.44130  Biso   1.000  C
  C134     1.0000 0.07070  0.04370  0.69130  Biso   1.000  C
  C135     1.0000 0.45630  0.57070  0.94130  Biso   1.000  C
  C136     1.0000 0.92930  0.95630  0.19130  Biso   1.000  C
  C137     1.0000 0.10930  0.03420  0.27420  Biso   1.000  C
  C138     1.0000 0.46580  0.60930  0.52420  Biso   1.000  C
  C139     1.0000 0.89070  0.96580  0.77420  Biso   1.000  C
  C140     1.0000 0.53420  0.39070  0.02420  Biso   1.000  C
  C141     1.0000 0.60930  0.46580  0.47580  Biso   1.000  C
  C142     1.0000 0.03420  0.10930  0.72580  Biso   1.000  C
  C143     1.0000 0.39070  0.53420  0.97580  Biso   1.000  C
  C144     1.0000 0.96580  0.89070  0.22580  Biso   1.000  C
  H81      1.0000 0.12400  0.98560  0.29420  Biso   1.000  H
  H82      1.0000 0.51440  0.62400  0.54420  Biso   1.000  H
  H83      1.0000 0.87600  0.01440  0.79420  Biso   1.000  H
  H84      1.0000 0.48560  0.37600  0.04420  Biso   1.000  H
  H85      1.0000 0.62400  0.51440  0.45580  Biso   1.000  H
  H86      1.0000 0.98560  0.12400  0.70580  Biso   1.000  H
  H87      1.0000 0.37600  0.48560  0.95580  Biso   1.000  H
  H88      1.0000 0.01440  0.87600  0.20580  Biso   1.000  H
  C145     1.0000 0.15230  0.07020  0.21040  Biso   1.000  C
  C146     1.0000 0.42980  0.65230  0.46040  Biso   1.000  C
  C147     1.0000 0.84770  0.92980  0.71040  Biso   1.000  C
  C148     1.0000 0.57020  0.34770  0.96040  Biso   1.000  C
  C149     1.0000 0.65230  0.42980  0.53960  Biso   1.000  C
  C150     1.0000 0.07020  0.15230  0.78960  Biso   1.000  C
  C151     1.0000 0.34770  0.57020  0.03960  Biso   1.000  C
  C152     1.0000 0.92980  0.84770  0.28960  Biso   1.000  C
  H89      1.0000 0.19510  0.04540  0.18680  Biso   1.000  H
  H90      1.0000 0.45460  0.69510  0.43680  Biso   1.000  H
  H91      1.0000 0.80490  0.95460  0.68680  Biso   1.000  H
  H92      1.0000 0.54540  0.30490  0.93680  Biso   1.000  H
  H93      1.0000 0.69510  0.45460  0.56320  Biso   1.000  H
  H94      1.0000 0.04540  0.19510  0.81320  Biso   1.000  H
  H95      1.0000 0.30490  0.54540  0.06320  Biso   1.000  H
  H96      1.0000 0.95460  0.80490  0.31320  Biso   1.000  H
  C153     1.0000 0.96090  0.06860  0.43310  Biso   1.000  C
  C154     1.0000 0.43140  0.46090  0.68310  Biso   1.000  C
  C155     1.0000 0.03910  0.93140  0.93310  Biso   1.000  C
  C156     1.0000 0.56860  0.53910  0.18310  Biso   1.000  C
  C157     1.0000 0.46090  0.43140  0.31690  Biso   1.000  C
  C158     1.0000 0.06860  0.96090  0.56690  Biso   1.000  C
  C159     1.0000 0.53910  0.56860  0.81690  Biso   1.000  C
  C160     1.0000 0.93140  0.03910  0.06690  Biso   1.000  C
  C161     1.0000 0.98650  0.13730  0.46970  Biso   1.000  C
  C162     1.0000 0.36270  0.48650  0.71970  Biso   1.000  C
  C163     1.0000 0.01350  0.86270  0.96970  Biso   1.000  C
  C164     1.0000 0.63730  0.51350  0.21970  Biso   1.000  C
  C165     1.0000 0.48650  0.36270  0.28030  Biso   1.000  C
  C166     1.0000 0.13730  0.98650  0.53030  Biso   1.000  C
  C167     1.0000 0.51350  0.63730  0.78030  Biso   1.000  C
  C168     1.0000 0.86270  0.01350  0.03030  Biso   1.000  C
  H97      1.0000 0.03180  0.16100  0.45100  Biso   1.000  H
  H98      1.0000 0.33900  0.53180  0.70100  Biso   1.000  H
  H99      1.0000 0.96820  0.83900  0.95100  Biso   1.000  H
  H100     1.0000 0.66100  0.46820  0.20100  Biso   1.000  H
  H101     1.0000 0.53180  0.33900  0.29900  Biso   1.000  H
  H102     1.0000 0.16100  0.03180  0.54900  Biso   1.000  H
  H103     1.0000 0.46820  0.66100  0.79900  Biso   1.000  H
  H104     1.0000 0.83900  0.96820  0.04900  Biso   1.000  H
  C169     1.0000 0.94280  0.16890  0.53440  Biso   1.000  C
  C170     1.0000 0.33110  0.44280  0.78440  Biso   1.000  C
  C171     1.0000 0.05720  0.83110  0.03440  Biso   1.000  C
  C172     1.0000 0.66890  0.55720  0.28440  Biso   1.000  C
  C173     1.0000 0.44280  0.33110  0.21560  Biso   1.000  C
  C174     1.0000 0.16890  0.94280  0.46560  Biso   1.000  C
  C175     1.0000 0.55720  0.66890  0.71560  Biso   1.000  C
  C176     1.0000 0.83110  0.05720  0.96560  Biso   1.000  C
  H105     1.0000 0.95980  0.21480  0.55930  Biso   1.000  H
  H106     1.0000 0.28520  0.45980  0.80930  Biso   1.000  H
  H107     1.0000 0.04020  0.78520  0.05930  Biso   1.000  H
  H108     1.0000 0.71480  0.54020  0.30930  Biso   1.000  H
  H109     1.0000 0.45980  0.28520  0.19070  Biso   1.000  H
  H110     1.0000 0.21480  0.95980  0.44070  Biso   1.000  H
  H111     1.0000 0.54020  0.71480  0.69070  Biso   1.000  H
  H112     1.0000 0.78520  0.04020  0.94070  Biso   1.000  H
  C177     1.0000 0.87430  0.13620  0.56500  Biso   1.000  C
  C178     1.0000 0.36380  0.37430  0.81500  Biso   1.000  C
  C179     1.0000 0.12570  0.86380  0.06500  Biso   1.000  C
  C180     1.0000 0.63620  0.62570  0.31500  Biso   1.000  C
  C181     1.0000 0.37430  0.36380  0.18500  Biso   1.000  C
  C182     1.0000 0.13620  0.87430  0.43500  Biso   1.000  C
  C183     1.0000 0.62570  0.63620  0.68500  Biso   1.000  C
  C184     1.0000 0.86380  0.12570  0.93500  Biso   1.000  C
  C185     1.0000 0.85270  0.06610  0.52830  Biso   1.000  C
  C186     1.0000 0.43390  0.35270  0.77830  Biso   1.000  C
  C187     1.0000 0.14730  0.93390  0.02830  Biso   1.000  C
  C188     1.0000 0.56610  0.64730  0.27830  Biso   1.000  C
  C189     1.0000 0.35270  0.43390  0.22170  Biso   1.000  C
  C190     1.0000 0.06610  0.85270  0.47170  Biso   1.000  C
  C191     1.0000 0.64730  0.56610  0.72170  Biso   1.000  C
  C192     1.0000 0.93390  0.14730  0.97170  Biso   1.000  C
  H113     1.0000 0.80830  0.04160  0.54860  Biso   1.000  H
  H114     1.0000 0.45840  0.30830  0.79860  Biso   1.000  H
  H115     1.0000 0.19170  0.95840  0.04860  Biso   1.000  H
  H116     1.0000 0.54160  0.69170  0.29860  Biso   1.000  H
  H117     1.0000 0.30830  0.45840  0.20140  Biso   1.000  H
  H118     1.0000 0.04160  0.80830  0.45140  Biso   1.000  H
  H119     1.0000 0.69170  0.54160  0.70140  Biso   1.000  H
  H120     1.0000 0.95840  0.19170  0.95140  Biso   1.000  H
  C193     1.0000 0.89420  0.03090  0.46270  Biso   1.000  C
  C194     1.0000 0.46910  0.39420  0.71270  Biso   1.000  C
  C195     1.0000 0.10580  0.96910  0.96270  Biso   1.000  C
  C196     1.0000 0.53090  0.60580  0.21270  Biso   1.000  C
  C197     1.0000 0.39420  0.46910  0.28730  Biso   1.000  C
  C198     1.0000 0.03090  0.89420  0.53730  Biso   1.000  C
  C199     1.0000 0.60580  0.53090  0.78730  Biso   1.000  C
  C200     1.0000 0.96910  0.10580  0.03730  Biso   1.000  C
  H121     1.0000 0.87840  0.98400  0.43920  Biso   1.000  H
  H122     1.0000 0.51600  0.37840  0.68920  Biso   1.000  H
  H123     1.0000 0.12160  0.01600  0.93920  Biso   1.000  H
  H124     1.0000 0.48400  0.62160  0.18920  Biso   1.000  H
  H125     1.0000 0.37840  0.51600  0.31080  Biso   1.000  H
  H126     1.0000 0.98400  0.87840  0.56080  Biso   1.000  H
  H127     1.0000 0.62160  0.48400  0.81080  Biso   1.000  H
  H128     1.0000 0.01600  0.12160  0.06080  Biso   1.000  H
  C201     1.0000 0.82830  0.17450  0.63410  Biso   1.000  C
  C202     1.0000 0.32550  0.32830  0.88410  Biso   1.000  C
  C203     1.0000 0.17170  0.82550  0.13410  Biso   1.000  C
  C204     1.0000 0.67450  0.67170  0.38410  Biso   1.000  C
  C205     1.0000 0.32830  0.32550  0.11590  Biso   1.000  C
  C206     1.0000 0.17450  0.82830  0.36590  Biso   1.000  C
  C207     1.0000 0.67170  0.67450  0.61590  Biso   1.000  C
  C208     1.0000 0.82550  0.17170  0.86590  Biso   1.000  C
