data_image0
_cell_length_a       17.2524
_cell_length_b       17.2524
_cell_length_c       15.531
_cell_angle_alpha    90
_cell_angle_beta     90
_cell_angle_gamma    90

_symmetry_space_group_name_H-M    "P 1"
_symmetry_int_tables_number       1

loop_
  _symmetry_equiv_pos_as_xyz
  'x, y, z'

loop_
  _atom_site_label
  _atom_site_occupancy
  _atom_site_fract_x
  _atom_site_fract_y
  _atom_site_fract_z
  _atom_site_thermal_displace_type
  _atom_site_B_iso_or_equiv
  _atom_site_type_symbol
  Cu1      1.0000 0.30836  0.20043  0.00051  Biso   1.000  Cu
  Cu2      1.0000 0.69164  0.79957  0.50051  Biso   1.000  Cu
  Cu3      1.0000 0.29957  0.80836  0.75051  Biso   1.000  Cu
  Cu4      1.0000 0.70043  0.19164  0.25051  Biso   1.000  Cu
  Cu5      1.0000 0.19164  0.70043  0.74949  Biso   1.000  Cu
  Cu6      1.0000 0.80836  0.29957  0.24949  Biso   1.000  Cu
  Cu7      1.0000 0.20043  0.30836  0.99949  Biso   1.000  Cu
  Cu8      1.0000 0.79957  0.69164  0.49949  Biso   1.000  Cu
  S1       1.0000 0.64492  0.92706  0.91326  Biso   1.000  S
  S2       1.0000 0.35508  0.07294  0.41326  Biso   1.000  S
  S3       1.0000 0.57294  0.14492  0.66326  Biso   1.000  S
  S4       1.0000 0.42706  0.85508  0.16326  Biso   1.000  S
  S5       1.0000 0.85508  0.42706  0.83674  Biso   1.000  S
  S6       1.0000 0.14492  0.57294  0.33674  Biso   1.000  S
  S7       1.0000 0.92706  0.64492  0.08674  Biso   1.000  S
  S8       1.0000 0.07294  0.35508  0.58674  Biso   1.000  S
  N1       1.0000 0.39480  0.10950  0.98560  Biso   1.000  N
  N2       1.0000 0.60520  0.89050  0.48560  Biso   1.000  N
  N3       1.0000 0.39050  0.89480  0.73560  Biso   1.000  N
  N4       1.0000 0.60950  0.10520  0.23560  Biso   1.000  N
  N5       1.0000 0.10520  0.60950  0.76440  Biso   1.000  N
  N6       1.0000 0.89480  0.39050  0.26440  Biso   1.000  N
  N7       1.0000 0.10950  0.39480  0.01440  Biso   1.000  N
  N8       1.0000 0.89050  0.60520  0.51440  Biso   1.000  N
  N9       1.0000 0.52490  0.85230  0.94100  Biso   1.000  N
  N10      1.0000 0.47510  0.14770  0.44100  Biso   1.000  N
  N11      1.0000 0.64770  0.02490  0.69100  Biso   1.000  N
  N12      1.0000 0.35230  0.97510  0.19100  Biso   1.000  N
  N13      1.0000 0.97510  0.35230  0.80900  Biso   1.000  N
  N14      1.0000 0.02490  0.64770  0.30900  Biso   1.000  N
  N15      1.0000 0.85230  0.52490  0.05900  Biso   1.000  N
  N16      1.0000 0.14770  0.47510  0.55900  Biso   1.000  N
  N17      1.0000 0.57910  0.79980  0.92380  Biso   1.000  N
  N18      1.0000 0.42090  0.20020  0.42380  Biso   1.000  N
  N19      1.0000 0.70020  0.07910  0.67380  Biso   1.000  N
  N20      1.0000 0.29980  0.92090  0.17380  Biso   1.000  N
  N21      1.0000 0.92090  0.29980  0.82620  Biso   1.000  N
  N22      1.0000 0.07910  0.70020  0.32620  Biso   1.000  N
  N23      1.0000 0.79980  0.57910  0.07620  Biso   1.000  N
  N24      1.0000 0.20020  0.42090  0.57620  Biso   1.000  N
  N25      1.0000 0.84020  0.67980  0.86750  Biso   1.000  N
  N26      1.0000 0.15980  0.32020  0.36750  Biso   1.000  N
  N27      1.0000 0.82020  0.34020  0.61750  Biso   1.000  N
  N28      1.0000 0.17980  0.65980  0.11750  Biso   1.000  N
  N29      1.0000 0.65980  0.17980  0.88250  Biso   1.000  N
  N30      1.0000 0.34020  0.82020  0.38250  Biso   1.000  N
  N31      1.0000 0.67980  0.84020  0.13250  Biso   1.000  N
  N32      1.0000 0.32020  0.15980  0.63250  Biso   1.000  N
  O1       1.0000 0.23980  0.15410  0.91140  Biso   1.000  O
  O2       1.0000 0.76020  0.84590  0.41140  Biso   1.000  O
  O3       1.0000 0.34590  0.73980  0.66140  Biso   1.000  O
  O4       1.0000 0.65410  0.26020  0.16140  Biso   1.000  O
  O5       1.0000 0.26020  0.65410  0.83860  Biso   1.000  O
  O6       1.0000 0.73980  0.34590  0.33860  Biso   1.000  O
  O7       1.0000 0.15410  0.23980  0.08860  Biso   1.000  O
  O8       1.0000 0.84590  0.76020  0.58860  Biso   1.000  O
  O9       1.0000 0.15030  0.24740  0.91230  Biso   1.000  O
  O10      1.0000 0.84970  0.75260  0.41230  Biso   1.000  O
  O11      1.0000 0.25260  0.65030  0.66230  Biso   1.000  O
  O12      1.0000 0.74740  0.34970  0.16230  Biso   1.000  O
  O13      1.0000 0.34970  0.74740  0.83770  Biso   1.000  O
  O14      1.0000 0.65030  0.25260  0.33770  Biso   1.000  O
  O15      1.0000 0.24740  0.15030  0.08770  Biso   1.000  O
  O16      1.0000 0.75260  0.84970  0.58770  Biso   1.000  O
  O17      1.0000 0.00180  0.02948  0.63010  Biso   1.000  O
  O18      1.0000 0.99820  0.97052  0.13010  Biso   1.000  O
  O19      1.0000 0.47052  0.50180  0.38010  Biso   1.000  O
  O20      1.0000 0.52948  0.49820  0.88010  Biso   1.000  O
  O21      1.0000 0.49820  0.52948  0.11990  Biso   1.000  O
  O22      1.0000 0.50180  0.47052  0.61990  Biso   1.000  O
  O23      1.0000 0.02948  0.00180  0.36990  Biso   1.000  O
  O24      1.0000 0.97052  0.99820  0.86990  Biso   1.000  O
  O25      1.0000 0.85740  0.23520  0.33480  Biso   1.000  O
  O26      1.0000 0.14260  0.76480  0.83480  Biso   1.000  O
  O27      1.0000 0.26480  0.35740  0.08480  Biso   1.000  O
  O28      1.0000 0.73520  0.64260  0.58480  Biso   1.000  O
  O29      1.0000 0.64260  0.73520  0.41520  Biso   1.000  O
  O30      1.0000 0.35740  0.26480  0.91520  Biso   1.000  O
  O31      1.0000 0.23520  0.85740  0.66520  Biso   1.000  O
  O32      1.0000 0.76480  0.14260  0.16520  Biso   1.000  O
  O33      1.0000 0.76670  0.14310  0.34110  Biso   1.000  O
  O34      1.0000 0.23330  0.85690  0.84110  Biso   1.000  O
  O35      1.0000 0.35690  0.26670  0.09110  Biso   1.000  O
  O36      1.0000 0.64310  0.73330  0.59110  Biso   1.000  O
  O37      1.0000 0.73330  0.64310  0.40890  Biso   1.000  O
  O38      1.0000 0.26670  0.35690  0.90890  Biso   1.000  O
  O39      1.0000 0.14310  0.76670  0.65890  Biso   1.000  O
  O40      1.0000 0.85690  0.23330  0.15890  Biso   1.000  O
  C1       1.0000 0.46980  0.12120  0.97670  Biso   1.000  C
  C2       1.0000 0.53020  0.87880  0.47670  Biso   1.000  C
  C3       1.0000 0.37880  0.96980  0.72670  Biso   1.000  C
  C4       1.0000 0.62120  0.03020  0.22670  Biso   1.000  C
  C5       1.0000 0.03020  0.62120  0.77330  Biso   1.000  C
  C6       1.0000 0.96980  0.37880  0.27330  Biso   1.000  C
  C7       1.0000 0.12120  0.46980  0.02330  Biso   1.000  C
  C8       1.0000 0.87880  0.53020  0.52330  Biso   1.000  C
  H1       1.0000 0.48830  0.17170  0.98030  Biso   1.000  H
  H2       1.0000 0.51170  0.82830  0.48030  Biso   1.000  H
  H3       1.0000 0.32830  0.98830  0.73030  Biso   1.000  H
  H4       1.0000 0.67170  0.01170  0.23030  Biso   1.000  H
  H5       1.0000 0.01170  0.67170  0.76970  Biso   1.000  H
  H6       1.0000 0.98830  0.32830  0.26970  Biso   1.000  H
  H7       1.0000 0.17170  0.48830  0.01970  Biso   1.000  H
  H8       1.0000 0.82830  0.51170  0.51970  Biso   1.000  H
  C9       1.0000 0.52240  0.06250  0.96230  Biso   1.000  C
  C10      1.0000 0.47760  0.93750  0.46230  Biso   1.000  C
  C11      1.0000 0.43750  0.02240  0.71230  Biso   1.000  C
  C12      1.0000 0.56250  0.97760  0.21230  Biso   1.000  C
  C13      1.0000 0.97760  0.56250  0.78770  Biso   1.000  C
  C14      1.0000 0.02240  0.43750  0.28770  Biso   1.000  C
  C15      1.0000 0.06250  0.52240  0.03770  Biso   1.000  C
  C16      1.0000 0.93750  0.47760  0.53770  Biso   1.000  C
  H9       1.0000 0.57500  0.07370  0.95880  Biso   1.000  H
  H10      1.0000 0.42500  0.92630  0.45880  Biso   1.000  H
  H11      1.0000 0.42630  0.07500  0.70880  Biso   1.000  H
  H12      1.0000 0.57370  0.92500  0.20880  Biso   1.000  H
  H13      1.0000 0.92500  0.57370  0.79120  Biso   1.000  H
  H14      1.0000 0.07500  0.42630  0.29120  Biso   1.000  H
  H15      1.0000 0.07370  0.57500  0.04120  Biso   1.000  H
  H16      1.0000 0.92630  0.42500  0.54120  Biso   1.000  H
  C17      1.0000 0.49750  0.98850  0.95330  Biso   1.000  C
  C18      1.0000 0.50250  0.01150  0.45330  Biso   1.000  C
  C19      1.0000 0.51150  0.99750  0.70330  Biso   1.000  C
  C20      1.0000 0.48850  0.00250  0.20330  Biso   1.000  C
  C21      1.0000 0.00250  0.48850  0.79670  Biso   1.000  C
  C22      1.0000 0.99750  0.51150  0.29670  Biso   1.000  C
  C23      1.0000 0.98850  0.49750  0.04670  Biso   1.000  C
  C24      1.0000 0.01150  0.50250  0.54670  Biso   1.000  C
  C25      1.0000 0.42040  0.97560  0.96140  Biso   1.000  C
  C26      1.0000 0.57960  0.02440  0.46140  Biso   1.000  C
  C27      1.0000 0.52440  0.92040  0.71140  Biso   1.000  C
  C28      1.0000 0.47560  0.07960  0.21140  Biso   1.000  C
  C29      1.0000 0.07960  0.47560  0.78860  Biso   1.000  C
  C30      1.0000 0.92040  0.52440  0.28860  Biso   1.000  C
  C31      1.0000 0.97560  0.42040  0.03860  Biso   1.000  C
  C32      1.0000 0.02440  0.57960  0.53860  Biso   1.000  C
  H17      1.0000 0.40050  0.92580  0.95590  Biso   1.000  H
  H18      1.0000 0.59950  0.07420  0.45590  Biso   1.000  H
  H19      1.0000 0.57420  0.90050  0.70590  Biso   1.000  H
  H20      1.0000 0.42580  0.09950  0.20590  Biso   1.000  H
  H21      1.0000 0.09950  0.42580  0.79410  Biso   1.000  H
  H22      1.0000 0.90050  0.57420  0.29410  Biso   1.000  H
  H23      1.0000 0.92580  0.40050  0.04410  Biso   1.000  H
  H24      1.0000 0.07420  0.59950  0.54410  Biso   1.000  H
  C33      1.0000 0.37170  0.03740  0.97780  Biso   1.000  C
  C34      1.0000 0.62830  0.96260  0.47780  Biso   1.000  C
  C35      1.0000 0.46260  0.87170  0.72780  Biso   1.000  C
  C36      1.0000 0.53740  0.12830  0.22780  Biso   1.000  C
  C37      1.0000 0.12830  0.53740  0.77220  Biso   1.000  C
  C38      1.0000 0.87170  0.46260  0.27220  Biso   1.000  C
  C39      1.0000 0.03740  0.37170  0.02220  Biso   1.000  C
  C40      1.0000 0.96260  0.62830  0.52220  Biso   1.000  C
  H25      1.0000 0.31900  0.02720  0.98370  Biso   1.000  H
  H26      1.0000 0.68100  0.97280  0.48370  Biso   1.000  H
  H27      1.0000 0.47280  0.81900  0.73370  Biso   1.000  H
  H28      1.0000 0.52720  0.18100  0.23370  Biso   1.000  H
  H29      1.0000 0.18100  0.52720  0.76630  Biso   1.000  H
  H30      1.0000 0.81900  0.47280  0.26630  Biso   1.000  H
  H31      1.0000 0.02720  0.31900  0.01630  Biso   1.000  H
  H32      1.0000 0.97280  0.68100  0.51630  Biso   1.000  H
  C41      1.0000 0.54940  0.92250  0.94010  Biso   1.000  C
  C42      1.0000 0.45060  0.07750  0.44010  Biso   1.000  C
  C43      1.0000 0.57750  0.04940  0.69010  Biso   1.000  C
  C44      1.0000 0.42250  0.95060  0.19010  Biso   1.000  C
  C45      1.0000 0.95060  0.42250  0.80990  Biso   1.000  C
  C46      1.0000 0.04940  0.57750  0.30990  Biso   1.000  C
  C47      1.0000 0.92250  0.54940  0.05990  Biso   1.000  C
  C48      1.0000 0.07750  0.45060  0.55990  Biso   1.000  C
  C49      1.0000 0.64650  0.82810  0.90910  Biso   1.000  C
  C50      1.0000 0.35350  0.17190  0.40910  Biso   1.000  C
  C51      1.0000 0.67190  0.14650  0.65910  Biso   1.000  C
  C52      1.0000 0.32810  0.85350  0.15910  Biso   1.000  C
  C53      1.0000 0.85350  0.32810  0.84090  Biso   1.000  C
  C54      1.0000 0.14650  0.67190  0.34090  Biso   1.000  C
  C55      1.0000 0.82810  0.64650  0.09090  Biso   1.000  C
  C56      1.0000 0.17190  0.35350  0.59090  Biso   1.000  C
  C57      1.0000 0.71510  0.77980  0.89030  Biso   1.000  C
  C58      1.0000 0.28490  0.22020  0.39030  Biso   1.000  C
  C59      1.0000 0.72020  0.21510  0.64030  Biso   1.000  C
  C60      1.0000 0.27980  0.78490  0.14030  Biso   1.000  C
  C61      1.0000 0.78490  0.27980  0.85970  Biso   1.000  C
  C62      1.0000 0.21510  0.72020  0.35970  Biso   1.000  C
  C63      1.0000 0.77980  0.71510  0.10970  Biso   1.000  C
  C64      1.0000 0.22020  0.28490  0.60970  Biso   1.000  C
  C65      1.0000 0.78630  0.80660  0.89170  Biso   1.000  C
  C66      1.0000 0.21370  0.19340  0.39170  Biso   1.000  C
  C67      1.0000 0.69340  0.28630  0.64170  Biso   1.000  C
  C68      1.0000 0.30660  0.71370  0.14170  Biso   1.000  C
  C69      1.0000 0.71370  0.30660  0.85830  Biso   1.000  C
  C70      1.0000 0.28630  0.69340  0.35830  Biso   1.000  C
  C71      1.0000 0.80660  0.78630  0.10830  Biso   1.000  C
  C72      1.0000 0.19340  0.21370  0.60830  Biso   1.000  C
  H33      1.0000 0.79570  0.85900  0.90120  Biso   1.000  H
  H34      1.0000 0.20430  0.14100  0.40120  Biso   1.000  H
  H35      1.0000 0.64100  0.29570  0.65120  Biso   1.000  H
  H36      1.0000 0.35900  0.70430  0.15120  Biso   1.000  H
  H37      1.0000 0.70430  0.35900  0.84880  Biso   1.000  H
  H38      1.0000 0.29570  0.64100  0.34880  Biso   1.000  H
  H39      1.0000 0.85900  0.79570  0.09880  Biso   1.000  H
  H40      1.0000 0.14100  0.20430  0.59880  Biso   1.000  H
  C73      1.0000 0.84960  0.75330  0.87820  Biso   1.000  C
  C74      1.0000 0.15040  0.24670  0.37820  Biso   1.000  C
  C75      1.0000 0.74670  0.34960  0.62820  Biso   1.000  C
  C76      1.0000 0.25330  0.65040  0.12820  Biso   1.000  C
  C77      1.0000 0.65040  0.25330  0.87180  Biso   1.000  C
  C78      1.0000 0.34960  0.74670  0.37180  Biso   1.000  C
  C79      1.0000 0.75330  0.84960  0.12180  Biso   1.000  C
  C80      1.0000 0.24670  0.15040  0.62180  Biso   1.000  C
  H41      1.0000 0.89980  0.77300  0.87700  Biso   1.000  H
  H42      1.0000 0.10020  0.22700  0.37700  Biso   1.000  H
  H43      1.0000 0.72700  0.39980  0.62700  Biso   1.000  H
  H44      1.0000 0.27300  0.60020  0.12700  Biso   1.000  H
  H45      1.0000 0.60020  0.27300  0.87300  Biso   1.000  H
  H46      1.0000 0.39980  0.72700  0.37300  Biso   1.000  H
  H47      1.0000 0.77300  0.89980  0.12300  Biso   1.000  H
  H48      1.0000 0.22700  0.10020  0.62300  Biso   1.000  H
  C81      1.0000 0.77100  0.65650  0.87410  Biso   1.000  C
  C82      1.0000 0.22900  0.34350  0.37410  Biso   1.000  C
  C83      1.0000 0.84350  0.27100  0.62410  Biso   1.000  C
  C84      1.0000 0.15650  0.72900  0.12410  Biso   1.000  C
  C85      1.0000 0.72900  0.15650  0.87590  Biso   1.000  C
  C86      1.0000 0.27100  0.84350  0.37590  Biso   1.000  C
  C87      1.0000 0.65650  0.77100  0.12590  Biso   1.000  C
  C88      1.0000 0.34350  0.22900  0.62590  Biso   1.000  C
  H49      1.0000 0.76330  0.60340  0.86870  Biso   1.000  H
  H50      1.0000 0.23670  0.39660  0.36870  Biso   1.000  H
  H51      1.0000 0.89660  0.26330  0.61870  Biso   1.000  H
  H52      1.0000 0.10340  0.73670  0.11870  Biso   1.000  H
  H53      1.0000 0.73670  0.10340  0.88130  Biso   1.000  H
  H54      1.0000 0.26330  0.89660  0.38130  Biso   1.000  H
  H55      1.0000 0.60340  0.76330  0.13130  Biso   1.000  H
  H56      1.0000 0.39660  0.23670  0.63130  Biso   1.000  H
  C89      1.0000 0.70650  0.70000  0.88840  Biso   1.000  C
  C90      1.0000 0.29350  0.30000  0.38840  Biso   1.000  C
  C91      1.0000 0.80000  0.20650  0.63840  Biso   1.000  C
  C92      1.0000 0.20000  0.79350  0.13840  Biso   1.000  C
  C93      1.0000 0.79350  0.20000  0.86160  Biso   1.000  C
  C94      1.0000 0.20650  0.80000  0.36160  Biso   1.000  C
  C95      1.0000 0.70000  0.70650  0.11160  Biso   1.000  C
  C96      1.0000 0.30000  0.29350  0.61160  Biso   1.000  C
  H57      1.0000 0.65840  0.67700  0.89650  Biso   1.000  H
  H58      1.0000 0.34160  0.32300  0.39650  Biso   1.000  H
  H59      1.0000 0.82300  0.15840  0.64650  Biso   1.000  H
  H60      1.0000 0.17700  0.84160  0.14650  Biso   1.000  H
  H61      1.0000 0.84160  0.17700  0.85350  Biso   1.000  H
  H62      1.0000 0.15840  0.82300  0.35350  Biso   1.000  H
  H63      1.0000 0.67700  0.65840  0.10350  Biso   1.000  H
  H64      1.0000 0.32300  0.34160  0.60350  Biso   1.000  H
  C97      1.0000 0.17800  0.18400  0.88560  Biso   1.000  C
  C98      1.0000 0.82200  0.81600  0.38560  Biso   1.000  C
  C99      1.0000 0.31600  0.67800  0.63560  Biso   1.000  C
  C100     1.0000 0.68400  0.32200  0.13560  Biso   1.000  C
  C101     1.0000 0.32200  0.68400  0.86440  Biso   1.000  C
  C102     1.0000 0.67800  0.31600  0.36440  Biso   1.000  C
  C103     1.0000 0.18400  0.17800  0.11440  Biso   1.000  C
  C104     1.0000 0.81600  0.82200  0.61440  Biso   1.000  C
  C105     1.0000 0.13180  0.14280  0.81800  Biso   1.000  C
  C106     1.0000 0.86820  0.85720  0.31800  Biso   1.000  C
  C107     1.0000 0.35720  0.63180  0.56800  Biso   1.000  C
  C108     1.0000 0.64280  0.36820  0.06800  Biso   1.000  C
  C109     1.0000 0.36820  0.64280  0.93200  Biso   1.000  C
  C110     1.0000 0.63180  0.35720  0.43200  Biso   1.000  C
  C111     1.0000 0.14280  0.13180  0.18200  Biso   1.000  C
  C112     1.0000 0.85720  0.86820  0.68200  Biso   1.000  C
  C113     1.0000 0.06590  0.17700  0.78430  Biso   1.000  C
  C114     1.0000 0.93410  0.82300  0.28430  Biso   1.000  C
  C115     1.0000 0.32300  0.56590  0.53430  Biso   1.000  C
  C116     1.0000 0.67700  0.43410  0.03430  Biso   1.000  C
  C117     1.0000 0.43410  0.67700  0.96570  Biso   1.000  C
  C118     1.0000 0.56590  0.32300  0.46570  Biso   1.000  C
  C119     1.0000 0.17700  0.06590  0.21570  Biso   1.000  C
  C120     1.0000 0.82300  0.93410  0.71570  Biso   1.000  C
  H65      1.0000 0.05140  0.22560  0.80470  Biso   1.000  H
  H66      1.0000 0.94860  0.77440  0.30470  Biso   1.000  H
  H67      1.0000 0.27440  0.55140  0.55470  Biso   1.000  H
  H68      1.0000 0.72560  0.44860  0.05470  Biso   1.000  H
  H69      1.0000 0.44860  0.72560  0.94530  Biso   1.000  H
  H70      1.0000 0.55140  0.27440  0.44530  Biso   1.000  H
  H71      1.0000 0.22560  0.05140  0.19530  Biso   1.000  H
  H72      1.0000 0.77440  0.94860  0.69530  Biso   1.000  H
  C121     1.0000 0.02130  0.14290  0.72260  Biso   1.000  C
  C122     1.0000 0.97870  0.85710  0.22260  Biso   1.000  C
  C123     1.0000 0.35710  0.52130  0.47260  Biso   1.000  C
  C124     1.0000 0.64290  0.47870  0.97260  Biso   1.000  C
  C125     1.0000 0.47870  0.64290  0.02740  Biso   1.000  C
  C126     1.0000 0.52130  0.35710  0.52740  Biso   1.000  C
  C127     1.0000 0.14290  0.02130  0.27740  Biso   1.000  C
  C128     1.0000 0.85710  0.97870  0.77740  Biso   1.000  C
  H73      1.0000 0.97710  0.16720  0.70160  Biso   1.000  H
  H74      1.0000 0.02290  0.83280  0.20160  Biso   1.000  H
  H75      1.0000 0.33280  0.47710  0.45160  Biso   1.000  H
  H76      1.0000 0.66720  0.52290  0.95160  Biso   1.000  H
  H77      1.0000 0.52290  0.66720  0.04840  Biso   1.000  H
  H78      1.0000 0.47710  0.33280  0.54840  Biso   1.000  H
  H79      1.0000 0.16720  0.97710  0.29840  Biso   1.000  H
  H80      1.0000 0.83280  0.02290  0.79840  Biso   1.000  H
  C129     1.0000 0.04380  0.07070  0.69210  Biso   1.000  C
  C130     1.0000 0.95620  0.92930  0.19210  Biso   1.000  C
  C131     1.0000 0.42930  0.54380  0.44210  Biso   1.000  C
  C132     1.0000 0.57070  0.45620  0.94210  Biso   1.000  C
  C133     1.0000 0.45620  0.57070  0.05790  Biso   1.000  C
  C134     1.0000 0.54380  0.42930  0.55790  Biso   1.000  C
  C135     1.0000 0.07070  0.04380  0.30790  Biso   1.000  C
  C136     1.0000 0.92930  0.95620  0.80790  Biso   1.000  C
  C137     1.0000 0.10920  0.03410  0.72510  Biso   1.000  C
  C138     1.0000 0.89080  0.96590  0.22510  Biso   1.000  C
  C139     1.0000 0.46590  0.60920  0.47510  Biso   1.000  C
  C140     1.0000 0.53410  0.39080  0.97510  Biso   1.000  C
  C141     1.0000 0.39080  0.53410  0.02490  Biso   1.000  C
  C142     1.0000 0.60920  0.46590  0.52490  Biso   1.000  C
  C143     1.0000 0.03410  0.10920  0.27490  Biso   1.000  C
  C144     1.0000 0.96590  0.89080  0.77490  Biso   1.000  C
  H81      1.0000 0.12420  0.98560  0.70480  Biso   1.000  H
  H82      1.0000 0.87580  0.01440  0.20480  Biso   1.000  H
  H83      1.0000 0.51440  0.62420  0.45480  Biso   1.000  H
  H84      1.0000 0.48560  0.37580  0.95480  Biso   1.000  H
  H85      1.0000 0.37580  0.48560  0.04520  Biso   1.000  H
  H86      1.0000 0.62420  0.51440  0.54520  Biso   1.000  H
  H87      1.0000 0.98560  0.12420  0.29520  Biso   1.000  H
  H88      1.0000 0.01440  0.87580  0.79520  Biso   1.000  H
  C145     1.0000 0.15120  0.07060  0.78810  Biso   1.000  C
  C146     1.0000 0.84880  0.92940  0.28810  Biso   1.000  C
  C147     1.0000 0.42940  0.65120  0.53810  Biso   1.000  C
  C148     1.0000 0.57060  0.34880  0.03810  Biso   1.000  C
  C149     1.0000 0.34880  0.57060  0.96190  Biso   1.000  C
  C150     1.0000 0.65120  0.42940  0.46190  Biso   1.000  C
  C151     1.0000 0.07060  0.15120  0.21190  Biso   1.000  C
  C152     1.0000 0.92940  0.84880  0.71190  Biso   1.000  C
  H89      1.0000 0.19410  0.04560  0.81130  Biso   1.000  H
  H90      1.0000 0.80590  0.95440  0.31130  Biso   1.000  H
  H91      1.0000 0.45440  0.69410  0.56130  Biso   1.000  H
  H92      1.0000 0.54560  0.30590  0.06130  Biso   1.000  H
  H93      1.0000 0.30590  0.54560  0.93870  Biso   1.000  H
  H94      1.0000 0.69410  0.45440  0.43870  Biso   1.000  H
  H95      1.0000 0.04560  0.19410  0.18870  Biso   1.000  H
  H96      1.0000 0.95440  0.80590  0.68870  Biso   1.000  H
  C153     1.0000 0.96130  0.06800  0.56600  Biso   1.000  C
  C154     1.0000 0.03870  0.93200  0.06600  Biso   1.000  C
  C155     1.0000 0.43200  0.46130  0.31600  Biso   1.000  C
  C156     1.0000 0.56800  0.53870  0.81600  Biso   1.000  C
  C157     1.0000 0.53870  0.56800  0.18400  Biso   1.000  C
  C158     1.0000 0.46130  0.43200  0.68400  Biso   1.000  C
  C159     1.0000 0.06800  0.96130  0.43400  Biso   1.000  C
  C160     1.0000 0.93200  0.03870  0.93400  Biso   1.000  C
  C161     1.0000 0.98550  0.13660  0.52960  Biso   1.000  C
  C162     1.0000 0.01450  0.86340  0.02960  Biso   1.000  C
  C163     1.0000 0.36340  0.48550  0.27960  Biso   1.000  C
  C164     1.0000 0.63660  0.51450  0.77960  Biso   1.000  C
  C165     1.0000 0.51450  0.63660  0.22040  Biso   1.000  C
  C166     1.0000 0.48550  0.36340  0.72040  Biso   1.000  C
  C167     1.0000 0.13660  0.98550  0.47040  Biso   1.000  C
  C168     1.0000 0.86340  0.01450  0.97040  Biso   1.000  C
  H97      1.0000 0.03090  0.16020  0.54810  Biso   1.000  H
  H98      1.0000 0.96910  0.83980  0.04810  Biso   1.000  H
  H99      1.0000 0.33980  0.53090  0.29810  Biso   1.000  H
  H100     1.0000 0.66020  0.46910  0.79810  Biso   1.000  H
  H101     1.0000 0.46910  0.66020  0.20190  Biso   1.000  H
  H102     1.0000 0.53090  0.33980  0.70190  Biso   1.000  H
  H103     1.0000 0.16020  0.03090  0.45190  Biso   1.000  H
  H104     1.0000 0.83980  0.96910  0.95190  Biso   1.000  H
  C169     1.0000 0.94210  0.16910  0.46630  Biso   1.000  C
  C170     1.0000 0.05790  0.83090  0.96630  Biso   1.000  C
  C171     1.0000 0.33090  0.44210  0.21630  Biso   1.000  C
  C172     1.0000 0.66910  0.55790  0.71630  Biso   1.000  C
  C173     1.0000 0.55790  0.66910  0.28370  Biso   1.000  C
  C174     1.0000 0.44210  0.33090  0.78370  Biso   1.000  C
  C175     1.0000 0.16910  0.94210  0.53370  Biso   1.000  C
  C176     1.0000 0.83090  0.05790  0.03370  Biso   1.000  C
  H105     1.0000 0.95820  0.21600  0.44260  Biso   1.000  H
  H106     1.0000 0.04180  0.78400  0.94260  Biso   1.000  H
  H107     1.0000 0.28400  0.45820  0.19260  Biso   1.000  H
  H108     1.0000 0.71600  0.54180  0.69260  Biso   1.000  H
  H109     1.0000 0.54180  0.71600  0.30740  Biso   1.000  H
  H110     1.0000 0.45820  0.28400  0.80740  Biso   1.000  H
  H111     1.0000 0.21600  0.95820  0.55740  Biso   1.000  H
  H112     1.0000 0.78400  0.04180  0.05740  Biso   1.000  H
  C177     1.0000 0.87460  0.13510  0.43560  Biso   1.000  C
  C178     1.0000 0.12540  0.86490  0.93560  Biso   1.000  C
  C179     1.0000 0.36490  0.37460  0.18560  Biso   1.000  C
  C180     1.0000 0.63510  0.62540  0.68560  Biso   1.000  C
  C181     1.0000 0.62540  0.63510  0.31440  Biso   1.000  C
  C182     1.0000 0.37460  0.36490  0.81440  Biso   1.000  C
  C183     1.0000 0.13510  0.87460  0.56440  Biso   1.000  C
  C184     1.0000 0.86490  0.12540  0.06440  Biso   1.000  C
  C185     1.0000 0.85280  0.06560  0.47150  Biso   1.000  C
  C186     1.0000 0.14720  0.93440  0.97150  Biso   1.000  C
  C187     1.0000 0.43440  0.35280  0.22150  Biso   1.000  C
  C188     1.0000 0.56560  0.64720  0.72150  Biso   1.000  C
  C189     1.0000 0.64720  0.56560  0.27850  Biso   1.000  C
  C190     1.0000 0.35280  0.43440  0.77850  Biso   1.000  C
  C191     1.0000 0.06560  0.85280  0.52850  Biso   1.000  C
  C192     1.0000 0.93440  0.14720  0.02850  Biso   1.000  C
  H113     1.0000 0.80870  0.04060  0.45120  Biso   1.000  H
  H114     1.0000 0.19130  0.95940  0.95120  Biso   1.000  H
  H115     1.0000 0.45940  0.30870  0.20120  Biso   1.000  H
  H116     1.0000 0.54060  0.69130  0.70120  Biso   1.000  H
  H117     1.0000 0.69130  0.54060  0.29880  Biso   1.000  H
  H118     1.0000 0.30870  0.45940  0.79880  Biso   1.000  H
  H119     1.0000 0.04060  0.80870  0.54880  Biso   1.000  H
  H120     1.0000 0.95940  0.19130  0.04880  Biso   1.000  H
  C193     1.0000 0.89510  0.03230  0.53690  Biso   1.000  C
  C194     1.0000 0.10490  0.96770  0.03690  Biso   1.000  C
  C195     1.0000 0.46770  0.39510  0.28690  Biso   1.000  C
  C196     1.0000 0.53230  0.60490  0.78690  Biso   1.000  C
  C197     1.0000 0.60490  0.53230  0.21310  Biso   1.000  C
  C198     1.0000 0.39510  0.46770  0.71310  Biso   1.000  C
  C199     1.0000 0.03230  0.89510  0.46310  Biso   1.000  C
  C200     1.0000 0.96770  0.10490  0.96310  Biso   1.000  C
  H121     1.0000 0.87890  0.98580  0.56130  Biso   1.000  H
  H122     1.0000 0.12110  0.01420  0.06130  Biso   1.000  H
  H123     1.0000 0.51420  0.37890  0.31130  Biso   1.000  H
  H124     1.0000 0.48580  0.62110  0.81130  Biso   1.000  H
  H125     1.0000 0.62110  0.48580  0.18870  Biso   1.000  H
  H126     1.0000 0.37890  0.51420  0.68870  Biso   1.000  H
  H127     1.0000 0.98580  0.87890  0.43870  Biso   1.000  H
  H128     1.0000 0.01420  0.12110  0.93870  Biso   1.000  H
  C201     1.0000 0.82880  0.17370  0.36630  Biso   1.000  C
  C202     1.0000 0.17120  0.82630  0.86630  Biso   1.000  C
  C203     1.0000 0.32630  0.32880  0.11630  Biso   1.000  C
  C204     1.0000 0.67370  0.67120  0.61630  Biso   1.000  C
  C205     1.0000 0.67120  0.67370  0.38370  Biso   1.000  C
  C206     1.0000 0.32880  0.32630  0.88370  Biso   1.000  C
  C207     1.0000 0.17370  0.82880  0.63370  Biso   1.000  C
  C208     1.0000 0.82630  0.17120  0.13370  Biso   1.000  C
