data_image0
_cell_length_a       10.8001
_cell_length_b       11.9652
_cell_length_c       14.5711
_cell_angle_alpha    90
_cell_angle_beta     109.25
_cell_angle_gamma    90

_symmetry_space_group_name_H-M    "P 1"
_symmetry_int_tables_number       1

loop_
  _symmetry_equiv_pos_as_xyz
  'x, y, z'

loop_
  _atom_site_label
  _atom_site_occupancy
  _atom_site_fract_x
  _atom_site_fract_y
  _atom_site_fract_z
  _atom_site_thermal_displace_type
  _atom_site_B_iso_or_equiv
  _atom_site_type_symbol
  Cu1      1.0000 0.90048  0.07391  0.97538  Biso   1.000  Cu
  Cu2      1.0000 0.09952  0.57391  0.52462  Biso   1.000  Cu
  Cu3      1.0000 0.09952  0.92609  0.02462  Biso   1.000  Cu
  Cu4      1.0000 0.90048  0.42609  0.47538  Biso   1.000  Cu
  O1       1.0000 0.82680  0.97250  0.86450  Biso   1.000  O
  O2       1.0000 0.17320  0.47250  0.63550  Biso   1.000  O
  O3       1.0000 0.17320  0.02750  0.13550  Biso   1.000  O
  O4       1.0000 0.82680  0.52750  0.36450  Biso   1.000  O
  O5       1.0000 0.99400  0.85170  0.90320  Biso   1.000  O
  O6       1.0000 0.00600  0.35170  0.59680  Biso   1.000  O
  O7       1.0000 0.00600  0.14830  0.09680  Biso   1.000  O
  O8       1.0000 0.99400  0.64830  0.40320  Biso   1.000  O
  O9       1.0000 0.82510  0.52420  0.55120  Biso   1.000  O
  O10      1.0000 0.17490  0.02420  0.94880  Biso   1.000  O
  O11      1.0000 0.17490  0.47580  0.44880  Biso   1.000  O
  O12      1.0000 0.82510  0.97580  0.05120  Biso   1.000  O
  O13      1.0000 0.99070  0.64650  0.59340  Biso   1.000  O
  O14      1.0000 0.00930  0.14650  0.90660  Biso   1.000  O
  O15      1.0000 0.00930  0.35350  0.40660  Biso   1.000  O
  O16      1.0000 0.99070  0.85350  0.09340  Biso   1.000  O
  N1       1.0000 0.26190  0.68530  0.56770  Biso   1.000  N
  N2       1.0000 0.73810  0.18530  0.93230  Biso   1.000  N
  N3       1.0000 0.73810  0.31470  0.43230  Biso   1.000  N
  N4       1.0000 0.26190  0.81470  0.06770  Biso   1.000  N
  N5       1.0000 0.46620  0.74660  0.62160  Biso   1.000  N
  N6       1.0000 0.53380  0.24660  0.87840  Biso   1.000  N
  N7       1.0000 0.53380  0.25340  0.37840  Biso   1.000  N
  N8       1.0000 0.46620  0.75340  0.12160  Biso   1.000  N
  C1       1.0000 0.88200  0.61140  0.59200  Biso   1.000  C
  C2       1.0000 0.11800  0.11140  0.90800  Biso   1.000  C
  C3       1.0000 0.11800  0.38860  0.40800  Biso   1.000  C
  C4       1.0000 0.88200  0.88860  0.09200  Biso   1.000  C
  C5       1.0000 0.88350  0.88570  0.85140  Biso   1.000  C
  C6       1.0000 0.11650  0.38570  0.64860  Biso   1.000  C
  C7       1.0000 0.11650  0.11430  0.14860  Biso   1.000  C
  C8       1.0000 0.88350  0.61430  0.35140  Biso   1.000  C
  C9       1.0000 0.67290  0.67720  0.61230  Biso   1.000  C
  C10      1.0000 0.32710  0.17720  0.88770  Biso   1.000  C
  C11      1.0000 0.32710  0.32280  0.38770  Biso   1.000  C
  C12      1.0000 0.67290  0.82280  0.11230  Biso   1.000  C
  H1       1.0000 0.62720  0.62860  0.56300  Biso   1.000  H
  H2       1.0000 0.37280  0.12860  0.93700  Biso   1.000  H
  H3       1.0000 0.37280  0.37140  0.43700  Biso   1.000  H
  H4       1.0000 0.62720  0.87140  0.06300  Biso   1.000  H
  C13      1.0000 0.87790  0.74820  0.72090  Biso   1.000  C
  C14      1.0000 0.12210  0.24820  0.77910  Biso   1.000  C
  C15      1.0000 0.12210  0.25180  0.27910  Biso   1.000  C
  C16      1.0000 0.87790  0.75180  0.22090  Biso   1.000  C
  H5       1.0000 0.96910  0.74860  0.74240  Biso   1.000  H
  H6       1.0000 0.03090  0.24860  0.75760  Biso   1.000  H
  H7       1.0000 0.03090  0.25140  0.25760  Biso   1.000  H
  H8       1.0000 0.96910  0.75140  0.24240  Biso   1.000  H
  C17      1.0000 0.38610  0.65680  0.59280  Biso   1.000  C
  C18      1.0000 0.61390  0.15680  0.90720  Biso   1.000  C
  C19      1.0000 0.61390  0.34320  0.40720  Biso   1.000  C
  C20      1.0000 0.38610  0.84320  0.09280  Biso   1.000  C
  H9       1.0000 0.41550  0.58400  0.59100  Biso   1.000  H
  H10      1.0000 0.58450  0.08400  0.90900  Biso   1.000  H
  H11      1.0000 0.58450  0.41600  0.40900  Biso   1.000  H
  H12      1.0000 0.41550  0.91600  0.09100  Biso   1.000  H
  C21      1.0000 0.80970  0.81550  0.76560  Biso   1.000  C
  C22      1.0000 0.19030  0.31550  0.73440  Biso   1.000  C
  C23      1.0000 0.19030  0.18450  0.23440  Biso   1.000  C
  C24      1.0000 0.80970  0.68450  0.26560  Biso   1.000  C
  C25      1.0000 0.60620  0.74720  0.65510  Biso   1.000  C
  C26      1.0000 0.39380  0.24720  0.84490  Biso   1.000  C
  C27      1.0000 0.39380  0.25280  0.34490  Biso   1.000  C
  C28      1.0000 0.60620  0.75280  0.15510  Biso   1.000  C
  C29      1.0000 0.80830  0.68020  0.64330  Biso   1.000  C
  C30      1.0000 0.19170  0.18020  0.85670  Biso   1.000  C
  C31      1.0000 0.19170  0.31980  0.35670  Biso   1.000  C
  C32      1.0000 0.80830  0.81980  0.14330  Biso   1.000  C
  C33      1.0000 0.38670  0.83590  0.61930  Biso   1.000  C
  C34      1.0000 0.61330  0.33590  0.88070  Biso   1.000  C
  C35      1.0000 0.61330  0.16410  0.38070  Biso   1.000  C
  C36      1.0000 0.38670  0.66410  0.11930  Biso   1.000  C
  H13      1.0000 0.41320  0.90840  0.63940  Biso   1.000  H
  H14      1.0000 0.58680  0.40840  0.86060  Biso   1.000  H
  H15      1.0000 0.58680  0.09160  0.36060  Biso   1.000  H
  H16      1.0000 0.41320  0.59160  0.13940  Biso   1.000  H
  C37      1.0000 0.67400  0.81620  0.73340  Biso   1.000  C
  C38      1.0000 0.32600  0.31620  0.76660  Biso   1.000  C
  C39      1.0000 0.32600  0.18380  0.26660  Biso   1.000  C
  C40      1.0000 0.67400  0.68380  0.23340  Biso   1.000  C
  H17      1.0000 0.62850  0.86160  0.76310  Biso   1.000  H
  H18      1.0000 0.37150  0.36160  0.73690  Biso   1.000  H
  H19      1.0000 0.37150  0.13840  0.23690  Biso   1.000  H
  H20      1.0000 0.62850  0.63840  0.26310  Biso   1.000  H
  C41      1.0000 0.26190  0.79840  0.58220  Biso   1.000  C
  C42      1.0000 0.73810  0.29840  0.91780  Biso   1.000  C
  C43      1.0000 0.73810  0.20160  0.41780  Biso   1.000  C
  C44      1.0000 0.26190  0.70160  0.08220  Biso   1.000  C
  H21      1.0000 0.18730  0.84280  0.56860  Biso   1.000  H
  H22      1.0000 0.81270  0.34280  0.93140  Biso   1.000  H
  H23      1.0000 0.81270  0.15720  0.43140  Biso   1.000  H
  H24      1.0000 0.18730  0.65720  0.06860  Biso   1.000  H
  O17      1.0000 0.50960  0.39870  0.61980  Biso   1.000  O
  O18      1.0000 0.49040  0.89870  0.88020  Biso   1.000  O
  O19      1.0000 0.49040  0.60130  0.38020  Biso   1.000  O
  O20      1.0000 0.50960  0.10130  0.11980  Biso   1.000  O
  N9       1.0000 0.62380  0.23900  0.64470  Biso   1.000  N
  N10      1.0000 0.37620  0.73900  0.85530  Biso   1.000  N
  N11      1.0000 0.37620  0.76100  0.35530  Biso   1.000  N
  N12      1.0000 0.62380  0.26100  0.14470  Biso   1.000  N
  C45      1.0000 0.60910  0.34870  0.63790  Biso   1.000  C
  C46      1.0000 0.39090  0.84870  0.86210  Biso   1.000  C
  C47      1.0000 0.39090  0.65130  0.36210  Biso   1.000  C
  C48      1.0000 0.60910  0.15130  0.13790  Biso   1.000  C
  H25      1.0000 0.68490  0.39080  0.64840  Biso   1.000  H
  H26      1.0000 0.31510  0.89080  0.85160  Biso   1.000  H
  H27      1.0000 0.31510  0.60920  0.35160  Biso   1.000  H
  H28      1.0000 0.68490  0.10920  0.14840  Biso   1.000  H
  C49      1.0000 0.51270  0.16350  0.62400  Biso   1.000  C
  C50      1.0000 0.48730  0.66350  0.87600  Biso   1.000  C
  C51      1.0000 0.48730  0.83650  0.37600  Biso   1.000  C
  C52      1.0000 0.51270  0.33650  0.12400  Biso   1.000  C
  H29      1.0000 0.51570  0.12460  0.68230  Biso   1.000  H
  H30      1.0000 0.48430  0.62460  0.81770  Biso   1.000  H
  H31      1.0000 0.48430  0.87540  0.31770  Biso   1.000  H
  H32      1.0000 0.51570  0.37540  0.18230  Biso   1.000  H
  H33      1.0000 0.51620  0.11050  0.57550  Biso   1.000  H
  H34      1.0000 0.48380  0.61050  0.92450  Biso   1.000  H
  H35      1.0000 0.48380  0.88950  0.42450  Biso   1.000  H
  H36      1.0000 0.51620  0.38950  0.07550  Biso   1.000  H
  H37      1.0000 0.43270  0.20550  0.60050  Biso   1.000  H
  H38      1.0000 0.56730  0.70550  0.89950  Biso   1.000  H
  H39      1.0000 0.56730  0.79450  0.39950  Biso   1.000  H
  H40      1.0000 0.43270  0.29450  0.10050  Biso   1.000  H
  C53      1.0000 0.74550  0.17990  0.66810  Biso   1.000  C
  C54      1.0000 0.25450  0.67990  0.83190  Biso   1.000  C
  C55      1.0000 0.25450  0.82010  0.33190  Biso   1.000  C
  C56      1.0000 0.74550  0.32010  0.16810  Biso   1.000  C
  H41      1.0000 0.75930  0.15630  0.60920  Biso   1.000  H
  H42      1.0000 0.24070  0.65630  0.89080  Biso   1.000  H
  H43      1.0000 0.24070  0.84370  0.39080  Biso   1.000  H
  H44      1.0000 0.75930  0.34370  0.10920  Biso   1.000  H
  H45      1.0000 0.74290  0.11570  0.70690  Biso   1.000  H
  H46      1.0000 0.25710  0.61570  0.79310  Biso   1.000  H
  H47      1.0000 0.25710  0.88430  0.29310  Biso   1.000  H
  H48      1.0000 0.74290  0.38430  0.20690  Biso   1.000  H
  H49      1.0000 0.81590  0.22810  0.70390  Biso   1.000  H
  H50      1.0000 0.18410  0.72810  0.79610  Biso   1.000  H
  H51      1.0000 0.18410  0.77190  0.29610  Biso   1.000  H
  H52      1.0000 0.81590  0.27190  0.20390  Biso   1.000  H
  O21      1.0000 0.00000  0.00000  0.50000  Biso   1.000  O
  O22      1.0000 0.00000  0.50000  0.00000  Biso   1.000  O
  O23      1.0000 0.10080  0.92450  0.52790  Biso   1.000  O
  O24      1.0000 0.89920  0.42450  0.97210  Biso   1.000  O
  O25      1.0000 0.89920  0.07550  0.47210  Biso   1.000  O
  O26      1.0000 0.10080  0.57550  0.02790  Biso   1.000  O
