data_image0
_cell_length_a       10.45
_cell_length_b       10.675
_cell_length_c       13.054
_cell_angle_alpha    107.04
_cell_angle_beta     100.21
_cell_angle_gamma    88.54

_symmetry_space_group_name_H-M    "P 1"
_symmetry_int_tables_number       1

loop_
  _symmetry_equiv_pos_as_xyz
  'x, y, z'

loop_
  _atom_site_label
  _atom_site_occupancy
  _atom_site_fract_x
  _atom_site_fract_y
  _atom_site_fract_z
  _atom_site_thermal_displace_type
  _atom_site_B_iso_or_equiv
  _atom_site_type_symbol
  Cu1      1.0000 0.00480  0.11800  0.12430  Biso   1.000  Cu
  Cu2      1.0000 0.99520  0.88200  0.87570  Biso   1.000  Cu
  Cu3      1.0000 0.00470  0.37660  0.38260  Biso   1.000  Cu
  Cu4      1.0000 0.99530  0.62340  0.61740  Biso   1.000  Cu
  O1       1.0000 0.14490  0.24870  0.15750  Biso   1.000  O
  O2       1.0000 0.85510  0.75130  0.84250  Biso   1.000  O
  O3       1.0000 0.34720  0.29290  0.25330  Biso   1.000  O
  O4       1.0000 0.65280  0.70710  0.74670  Biso   1.000  O
  O5       1.0000 0.33160  0.07460  0.32040  Biso   1.000  O
  O6       1.0000 0.66840  0.92540  0.67960  Biso   1.000  O
  O7       1.0000 0.88350  0.20400  0.03420  Biso   1.000  O
  O8       1.0000 0.11650  0.79600  0.96580  Biso   1.000  O
  O9       1.0000 0.65470  0.94990  0.99650  Biso   1.000  O
  O10      1.0000 0.34530  0.05010  0.00350  Biso   1.000  O
  O11      1.0000 0.68150  0.17390  0.93730  Biso   1.000  O
  O12      1.0000 0.31850  0.82610  0.06270  Biso   1.000  O
  O13      1.0000 0.09290  0.50820  0.33960  Biso   1.000  O
  O14      1.0000 0.90710  0.49180  0.66040  Biso   1.000  O
  O15      1.0000 0.28490  0.61700  0.38200  Biso   1.000  O
  O16      1.0000 0.71510  0.38300  0.61800  Biso   1.000  O
  O17      1.0000 0.35900  0.50060  0.54830  Biso   1.000  O
  O18      1.0000 0.64100  0.49940  0.45170  Biso   1.000  O
  O19      1.0000 0.85090  0.36220  0.27120  Biso   1.000  O
  O20      1.0000 0.14910  0.63780  0.72880  Biso   1.000  O
  O21      1.0000 0.71730  0.13190  0.37070  Biso   1.000  O
  O22      1.0000 0.28270  0.86810  0.62930  Biso   1.000  O
  O23      1.0000 0.65890  0.25630  0.21100  Biso   1.000  O
  O24      1.0000 0.34110  0.74370  0.78900  Biso   1.000  O
  N1       1.0000 0.12160  0.04080  0.21850  Biso   1.000  N
  N2       1.0000 0.87840  0.95920  0.78150  Biso   1.000  N
  N3       1.0000 0.86720  0.98970  0.08750  Biso   1.000  N
  N4       1.0000 0.13280  0.01030  0.91250  Biso   1.000  N
  N5       1.0000 0.15890  0.39130  0.48950  Biso   1.000  N
  N6       1.0000 0.84110  0.60870  0.51050  Biso   1.000  N
  N7       1.0000 0.91530  0.24550  0.41960  Biso   1.000  N
  N8       1.0000 0.08470  0.75450  0.58040  Biso   1.000  N
  C1       1.0000 0.24560  0.22580  0.22150  Biso   1.000  C
  C2       1.0000 0.75440  0.77420  0.77850  Biso   1.000  C
  C3       1.0000 0.23510  0.10280  0.25820  Biso   1.000  C
  C4       1.0000 0.76490  0.89720  0.74180  Biso   1.000  C
  C5       1.0000 0.09520  0.92220  0.24570  Biso   1.000  C
  C6       1.0000 0.90480  0.07780  0.75430  Biso   1.000  C
  C7       1.0000 0.95780  0.88780  0.22830  Biso   1.000  C
  C8       1.0000 0.04220  0.11220  0.77170  Biso   1.000  C
  C9       1.0000 0.86850  0.87440  0.12700  Biso   1.000  C
  C10      1.0000 0.13150  0.12560  0.87300  Biso   1.000  C
  C11      1.0000 0.76140  0.01420  0.02750  Biso   1.000  C
  C12      1.0000 0.23860  0.98580  0.97250  Biso   1.000  C
  C13      1.0000 0.77380  0.14050  0.99630  Biso   1.000  C
  C14      1.0000 0.22620  0.85950  0.00370  Biso   1.000  C
  C15      1.0000 0.20770  0.53970  0.39540  Biso   1.000  C
  C16      1.0000 0.79230  0.46030  0.60460  Biso   1.000  C
  C17      1.0000 0.24850  0.47420  0.48770  Biso   1.000  C
  C18      1.0000 0.75150  0.52580  0.51230  Biso   1.000  C
  C19      1.0000 0.18300  0.31750  0.56820  Biso   1.000  C
  C20      1.0000 0.81700  0.68250  0.43180  Biso   1.000  C
  C21      1.0000 0.11390  0.18360  0.52400  Biso   1.000  C
  C22      1.0000 0.88610  0.81640  0.47600  Biso   1.000  C
  C23      1.0000 0.96580  0.18580  0.50600  Biso   1.000  C
  C24      1.0000 0.03420  0.81420  0.49400  Biso   1.000  C
  C25      1.0000 0.79810  0.21030  0.36180  Biso   1.000  C
  C26      1.0000 0.20190  0.78970  0.63820  Biso   1.000  C
  C27      1.0000 0.76420  0.28040  0.27360  Biso   1.000  C
  C28      1.0000 0.23580  0.71960  0.72640  Biso   1.000  C
  K1       1.0000 0.50710  0.28090  0.44980  Biso   1.000  K
  K2       1.0000 0.49290  0.71910  0.55020  Biso   1.000  K
  K3       1.0000 0.51830  0.02850  0.17460  Biso   1.000  K
  K4       1.0000 0.48170  0.97150  0.82540  Biso   1.000  K
  K5       1.0000 0.50970  0.47160  0.23230  Biso   1.000  K
  K6       1.0000 0.49030  0.52840  0.76770  Biso   1.000  K
  K7       1.0000 0.90700  0.47700  0.12730  Biso   1.000  K
  K8       1.0000 0.09300  0.52300  0.87270  Biso   1.000  K
  O25      1.0000 0.61310  0.09420  0.55840  Biso   1.000  O
  O26      1.0000 0.38690  0.90580  0.44160  Biso   1.000  O
  O27      1.0000 0.60170  0.86870  0.31020  Biso   1.000  O
  O28      1.0000 0.39830  0.13130  0.68980  Biso   1.000  O
  O29      1.0000 0.45070  0.29850  0.01680  Biso   1.000  O
  O30      1.0000 0.54930  0.70150  0.98320  Biso   1.000  O
  O31      1.0000 0.33640  0.65720  0.19390  Biso   1.000  O
  O32      1.0000 0.66360  0.34280  0.80610  Biso   1.000  O
  O33      1.0000 0.67840  0.62240  0.16250  Biso   1.000  O
  O34      1.0000 0.32160  0.37760  0.83750  Biso   1.000  O
  O35      1.0000 0.14760  0.45740  0.06510  Biso   1.000  O
  O36      1.0000 0.85240  0.54260  0.93490  Biso   1.000  O
