data_image0
_cell_length_a       14.762
_cell_length_b       17.901
_cell_length_c       15.75
_cell_angle_alpha    90
_cell_angle_beta     106.5
_cell_angle_gamma    90

_symmetry_space_group_name_H-M    "P 1"
_symmetry_int_tables_number       1

loop_
  _symmetry_equiv_pos_as_xyz
  'x, y, z'

loop_
  _atom_site_label
  _atom_site_occupancy
  _atom_site_fract_x
  _atom_site_fract_y
  _atom_site_fract_z
  _atom_site_thermal_displace_type
  _atom_site_B_iso_or_equiv
  _atom_site_type_symbol
  Cu1      1.0000 0.16695  0.01871  0.09544  Biso   1.000  Cu
  Cu2      1.0000 0.33305  0.51871  0.40456  Biso   1.000  Cu
  Cu3      1.0000 0.83305  0.98129  0.90456  Biso   1.000  Cu
  Cu4      1.0000 0.66695  0.48129  0.59544  Biso   1.000  Cu
  Cu5      1.0000 0.05438  0.38293  0.05711  Biso   1.000  Cu
  Cu6      1.0000 0.44562  0.88293  0.44289  Biso   1.000  Cu
  Cu7      1.0000 0.94562  0.61707  0.94289  Biso   1.000  Cu
  Cu8      1.0000 0.55438  0.11707  0.55711  Biso   1.000  Cu
  O1       1.0000 0.21370  0.03560  0.99430  Biso   1.000  O
  O2       1.0000 0.28630  0.53560  0.50570  Biso   1.000  O
  O3       1.0000 0.78630  0.96440  0.00570  Biso   1.000  O
  O4       1.0000 0.71370  0.46440  0.49430  Biso   1.000  O
  O5       1.0000 0.96100  0.38490  0.11910  Biso   1.000  O
  O6       1.0000 0.53900  0.88490  0.38090  Biso   1.000  O
  O7       1.0000 0.03900  0.61510  0.88090  Biso   1.000  O
  O8       1.0000 0.46100  0.11510  0.61910  Biso   1.000  O
  N1       1.0000 0.10450  0.25290  0.09350  Biso   1.000  N
  N2       1.0000 0.39550  0.75290  0.40650  Biso   1.000  N
  N3       1.0000 0.89550  0.74710  0.90650  Biso   1.000  N
  N4       1.0000 0.60450  0.24710  0.59350  Biso   1.000  N
  N5       1.0000 0.14360  0.13070  0.10740  Biso   1.000  N
  N6       1.0000 0.35640  0.63070  0.39260  Biso   1.000  N
  N7       1.0000 0.85640  0.86930  0.89260  Biso   1.000  N
  N8       1.0000 0.64360  0.36930  0.60740  Biso   1.000  N
  N9       1.0000 0.04760  0.01200  0.13810  Biso   1.000  N
  N10      1.0000 0.45240  0.51200  0.36190  Biso   1.000  N
  N11      1.0000 0.95240  0.98800  0.86190  Biso   1.000  N
  N12      1.0000 0.54760  0.48800  0.63810  Biso   1.000  N
  N13      1.0000 0.16480  0.90930  0.07810  Biso   1.000  N
  N14      1.0000 0.33520  0.40930  0.42190  Biso   1.000  N
  N15      1.0000 0.83520  0.09070  0.92190  Biso   1.000  N
  N16      1.0000 0.66480  0.59070  0.57810  Biso   1.000  N
  N17      1.0000 0.22430  0.50540  0.27440  Biso   1.000  N
  N18      1.0000 0.27570  0.00540  0.22560  Biso   1.000  N
  N19      1.0000 0.77570  0.49460  0.72560  Biso   1.000  N
  N20      1.0000 0.72430  0.99460  0.77440  Biso   1.000  N
  N21      1.0000 0.14420  0.43450  0.15910  Biso   1.000  N
  N22      1.0000 0.35580  0.93450  0.34090  Biso   1.000  N
  N23      1.0000 0.85580  0.56550  0.84090  Biso   1.000  N
  N24      1.0000 0.64420  0.06550  0.65910  Biso   1.000  N
  N25      1.0000 0.14280  0.42900  0.99290  Biso   1.000  N
  N26      1.0000 0.35720  0.92900  0.50710  Biso   1.000  N
  N27      1.0000 0.85720  0.57100  0.00710  Biso   1.000  N
  N28      1.0000 0.64280  0.07100  0.49290  Biso   1.000  N
  N29      1.0000 0.96120  0.35200  0.94700  Biso   1.000  N
  N30      1.0000 0.53880  0.85200  0.55300  Biso   1.000  N
  N31      1.0000 0.03880  0.64800  0.05300  Biso   1.000  N
  N32      1.0000 0.46120  0.14800  0.44700  Biso   1.000  N
  C1       1.0000 0.26960  0.21940  0.10020  Biso   1.000  C
  C2       1.0000 0.23040  0.71940  0.39980  Biso   1.000  C
  C3       1.0000 0.73040  0.78060  0.89980  Biso   1.000  C
  C4       1.0000 0.76960  0.28060  0.60020  Biso   1.000  C
  C5       1.0000 0.33660  0.16630  0.10200  Biso   1.000  C
  C6       1.0000 0.16340  0.66630  0.39800  Biso   1.000  C
  C7       1.0000 0.66340  0.83370  0.89800  Biso   1.000  C
  C8       1.0000 0.83660  0.33370  0.60200  Biso   1.000  C
  C9       1.0000 0.43020  0.18520  0.11000  Biso   1.000  C
  C10      1.0000 0.06980  0.68520  0.39000  Biso   1.000  C
  C11      1.0000 0.56980  0.81480  0.89000  Biso   1.000  C
  C12      1.0000 0.93020  0.31480  0.61000  Biso   1.000  C
  C13      1.0000 0.45690  0.25910  0.11730  Biso   1.000  C
  C14      1.0000 0.04310  0.75910  0.38270  Biso   1.000  C
  C15      1.0000 0.54310  0.74090  0.88270  Biso   1.000  C
  C16      1.0000 0.95690  0.24090  0.61730  Biso   1.000  C
  C17      1.0000 0.39160  0.31280  0.11580  Biso   1.000  C
  C18      1.0000 0.10840  0.81280  0.38420  Biso   1.000  C
  C19      1.0000 0.60840  0.68720  0.88420  Biso   1.000  C
  C20      1.0000 0.89160  0.18720  0.61580  Biso   1.000  C
  C21      1.0000 0.29890  0.29240  0.10890  Biso   1.000  C
  C22      1.0000 0.20110  0.79240  0.39110  Biso   1.000  C
  C23      1.0000 0.70110  0.70760  0.89110  Biso   1.000  C
  C24      1.0000 0.79890  0.20760  0.60890  Biso   1.000  C
  C25      1.0000 0.17170  0.20050  0.09670  Biso   1.000  C
  C26      1.0000 0.32830  0.70050  0.40330  Biso   1.000  C
  C27      1.0000 0.82830  0.79950  0.90330  Biso   1.000  C
  C28      1.0000 0.67170  0.29950  0.59670  Biso   1.000  C
  C29      1.0000 0.02880  0.21510  0.10550  Biso   1.000  C
  C30      1.0000 0.47120  0.71510  0.39450  Biso   1.000  C
  C31      1.0000 0.97120  0.78490  0.89450  Biso   1.000  C
  C32      1.0000 0.52880  0.28490  0.60550  Biso   1.000  C
  C33      1.0000 0.05320  0.14020  0.11440  Biso   1.000  C
  C34      1.0000 0.44680  0.64020  0.38560  Biso   1.000  C
  C35      1.0000 0.94680  0.85980  0.88560  Biso   1.000  C
  C36      1.0000 0.55320  0.35980  0.61440  Biso   1.000  C
  C37      1.0000 0.00710  0.07600  0.13520  Biso   1.000  C
  C38      1.0000 0.49290  0.57600  0.36480  Biso   1.000  C
  C39      1.0000 0.99290  0.92400  0.86480  Biso   1.000  C
  C40      1.0000 0.50710  0.42400  0.63520  Biso   1.000  C
  C41      1.0000 0.00780  0.94830  0.17180  Biso   1.000  C
  C42      1.0000 0.49220  0.44830  0.32820  Biso   1.000  C
  C43      1.0000 0.99220  0.05170  0.82820  Biso   1.000  C
  C44      1.0000 0.50780  0.55170  0.67180  Biso   1.000  C
  C45      1.0000 0.02800  0.87640  0.13140  Biso   1.000  C
  C46      1.0000 0.47200  0.37640  0.36860  Biso   1.000  C
  C47      1.0000 0.97200  0.12360  0.86860  Biso   1.000  C
  C48      1.0000 0.52800  0.62360  0.63140  Biso   1.000  C
  C49      1.0000 0.13170  0.86280  0.13930  Biso   1.000  C
  C50      1.0000 0.36830  0.36280  0.36070  Biso   1.000  C
  C51      1.0000 0.86830  0.13720  0.86070  Biso   1.000  C
  C52      1.0000 0.63170  0.63720  0.63930  Biso   1.000  C
  C53      1.0000 0.19570  0.87560  0.02080  Biso   1.000  C
  C54      1.0000 0.30430  0.37560  0.47920  Biso   1.000  C
  C55      1.0000 0.80430  0.12440  0.97920  Biso   1.000  C
  C56      1.0000 0.69570  0.62440  0.52080  Biso   1.000  C
  C57      1.0000 0.23390  0.90840  0.95510  Biso   1.000  C
  C58      1.0000 0.26610  0.40840  0.54490  Biso   1.000  C
  C59      1.0000 0.76610  0.09160  0.04490  Biso   1.000  C
  C60      1.0000 0.73390  0.59160  0.45510  Biso   1.000  C
  C61      1.0000 0.26540  0.86020  0.89960  Biso   1.000  C
  C62      1.0000 0.23460  0.36020  0.60040  Biso   1.000  C
  C63      1.0000 0.73460  0.13980  0.10040  Biso   1.000  C
  C64      1.0000 0.76540  0.63980  0.39960  Biso   1.000  C
  C65      1.0000 0.30570  0.88550  0.83680  Biso   1.000  C
  C66      1.0000 0.19430  0.38550  0.66320  Biso   1.000  C
  C67      1.0000 0.69430  0.11450  0.16320  Biso   1.000  C
  C68      1.0000 0.80570  0.61450  0.33680  Biso   1.000  C
  C69      1.0000 0.31470  0.96270  0.82920  Biso   1.000  C
  C70      1.0000 0.18530  0.46270  0.67080  Biso   1.000  C
  C71      1.0000 0.68530  0.03730  0.17080  Biso   1.000  C
  C72      1.0000 0.81470  0.53730  0.32920  Biso   1.000  C
  C73      1.0000 0.28480  0.01090  0.88240  Biso   1.000  C
  C74      1.0000 0.21520  0.51090  0.61760  Biso   1.000  C
  C75      1.0000 0.71520  0.98910  0.11760  Biso   1.000  C
  C76      1.0000 0.78480  0.48910  0.38240  Biso   1.000  C
  C77      1.0000 0.24150  0.98730  0.94630  Biso   1.000  C
  C78      1.0000 0.25850  0.48730  0.55370  Biso   1.000  C
  C79      1.0000 0.75850  0.01270  0.05370  Biso   1.000  C
  C80      1.0000 0.74150  0.51270  0.44630  Biso   1.000  C
  C81      1.0000 0.10990  0.41270  0.30090  Biso   1.000  C
  C82      1.0000 0.39010  0.91270  0.19910  Biso   1.000  C
  C83      1.0000 0.89010  0.58730  0.69910  Biso   1.000  C
  C84      1.0000 0.60990  0.08730  0.80090  Biso   1.000  C
  C85      1.0000 0.09390  0.33640  0.29180  Biso   1.000  C
  C86      1.0000 0.40610  0.83640  0.20820  Biso   1.000  C
  C87      1.0000 0.90610  0.66360  0.70820  Biso   1.000  C
  C88      1.0000 0.59390  0.16360  0.79180  Biso   1.000  C
  C89      1.0000 0.04750  0.29820  0.34370  Biso   1.000  C
  C90      1.0000 0.45250  0.79820  0.15630  Biso   1.000  C
  C91      1.0000 0.95250  0.70180  0.65630  Biso   1.000  C
  C92      1.0000 0.54750  0.20180  0.84370  Biso   1.000  C
  C93      1.0000 0.01500  0.33640  0.40480  Biso   1.000  C
  C94      1.0000 0.48500  0.83640  0.09520  Biso   1.000  C
  C95      1.0000 0.98500  0.66360  0.59520  Biso   1.000  C
  C96      1.0000 0.51500  0.16360  0.90480  Biso   1.000  C
  C97      1.0000 0.03080  0.41250  0.41550  Biso   1.000  C
  C98      1.0000 0.46920  0.91250  0.08450  Biso   1.000  C
  C99      1.0000 0.96920  0.58750  0.58450  Biso   1.000  C
  C100     1.0000 0.53080  0.08750  0.91550  Biso   1.000  C
  C101     1.0000 0.07770  0.45060  0.36350  Biso   1.000  C
  C102     1.0000 0.42230  0.95060  0.13650  Biso   1.000  C
  C103     1.0000 0.92230  0.54940  0.63650  Biso   1.000  C
  C104     1.0000 0.57770  0.04940  0.86350  Biso   1.000  C
  C105     1.0000 0.15890  0.45160  0.24440  Biso   1.000  C
  C106     1.0000 0.34110  0.95160  0.25560  Biso   1.000  C
  C107     1.0000 0.84110  0.54840  0.75560  Biso   1.000  C
  C108     1.0000 0.65890  0.04840  0.74440  Biso   1.000  C
  C109     1.0000 0.25370  0.52280  0.20300  Biso   1.000  C
  C110     1.0000 0.24630  0.02280  0.29700  Biso   1.000  C
  C111     1.0000 0.74630  0.47720  0.79700  Biso   1.000  C
  C112     1.0000 0.75370  0.97720  0.70300  Biso   1.000  C
  C113     1.0000 0.20490  0.48080  0.13170  Biso   1.000  C
  C114     1.0000 0.29510  0.98080  0.36830  Biso   1.000  C
  C115     1.0000 0.79510  0.51920  0.86830  Biso   1.000  C
  C116     1.0000 0.70490  0.01920  0.63170  Biso   1.000  C
  C117     1.0000 0.20290  0.47410  0.04130  Biso   1.000  C
  C118     1.0000 0.29710  0.97410  0.45870  Biso   1.000  C
  C119     1.0000 0.79710  0.52590  0.95870  Biso   1.000  C
  C120     1.0000 0.70290  0.02590  0.54130  Biso   1.000  C
  C121     1.0000 0.14140  0.42010  0.90120  Biso   1.000  C
  C122     1.0000 0.35860  0.92010  0.59880  Biso   1.000  C
  C123     1.0000 0.85860  0.57990  0.09880  Biso   1.000  C
  C124     1.0000 0.64140  0.07990  0.40120  Biso   1.000  C
  C125     1.0000 0.04200  0.40890  0.84280  Biso   1.000  C
  C126     1.0000 0.45800  0.90890  0.65720  Biso   1.000  C
  C127     1.0000 0.95800  0.59110  0.15720  Biso   1.000  C
  C128     1.0000 0.54200  0.09110  0.34280  Biso   1.000  C
  C129     1.0000 0.99450  0.34070  0.86930  Biso   1.000  C
  C130     1.0000 0.50550  0.84070  0.63070  Biso   1.000  C
  C131     1.0000 0.00550  0.65930  0.13070  Biso   1.000  C
  C132     1.0000 0.49450  0.15930  0.36930  Biso   1.000  C
  C133     1.0000 0.87220  0.34210  0.93770  Biso   1.000  C
  C134     1.0000 0.62780  0.84210  0.56230  Biso   1.000  C
  C135     1.0000 0.12780  0.65790  0.06230  Biso   1.000  C
  C136     1.0000 0.37220  0.15790  0.43770  Biso   1.000  C
  C137     1.0000 0.82430  0.34890  0.00330  Biso   1.000  C
  C138     1.0000 0.67570  0.84890  0.49670  Biso   1.000  C
  C139     1.0000 0.17570  0.65110  0.99670  Biso   1.000  C
  C140     1.0000 0.32430  0.15110  0.50330  Biso   1.000  C
  C141     1.0000 0.72740  0.33670  0.97860  Biso   1.000  C
  C142     1.0000 0.77260  0.83670  0.52140  Biso   1.000  C
  C143     1.0000 0.27260  0.66330  0.02140  Biso   1.000  C
  C144     1.0000 0.22740  0.16330  0.47860  Biso   1.000  C
  C145     1.0000 0.67510  0.34370  0.03770  Biso   1.000  C
  C146     1.0000 0.82490  0.84370  0.46230  Biso   1.000  C
  C147     1.0000 0.32490  0.65630  0.96230  Biso   1.000  C
  C148     1.0000 0.17510  0.15630  0.53770  Biso   1.000  C
  C149     1.0000 0.72000  0.36300  0.12450  Biso   1.000  C
  C150     1.0000 0.78000  0.86300  0.37550  Biso   1.000  C
  C151     1.0000 0.28000  0.63700  0.87550  Biso   1.000  C
  C152     1.0000 0.22000  0.13700  0.62450  Biso   1.000  C
  C153     1.0000 0.81580  0.37530  0.15060  Biso   1.000  C
  C154     1.0000 0.68420  0.87530  0.34940  Biso   1.000  C
  C155     1.0000 0.18420  0.62470  0.84940  Biso   1.000  C
  C156     1.0000 0.31580  0.12470  0.65060  Biso   1.000  C
  C157     1.0000 0.87120  0.36990  0.09150  Biso   1.000  C
  C158     1.0000 0.62880  0.86990  0.40850  Biso   1.000  C
  C159     1.0000 0.12880  0.63010  0.90850  Biso   1.000  C
  C160     1.0000 0.37120  0.13010  0.59150  Biso   1.000  C
  O9       1.0000 0.22060  0.20720  0.87040  Biso   1.000  O
  O10      1.0000 0.27940  0.70720  0.62960  Biso   1.000  O
  O11      1.0000 0.77940  0.79280  0.12960  Biso   1.000  O
  O12      1.0000 0.72060  0.29280  0.37040  Biso   1.000  O
  O13      1.0000 0.00100  0.03560  0.38560  Biso   1.000  O
  O14      1.0000 0.49900  0.53560  0.11440  Biso   1.000  O
  O15      1.0000 0.99900  0.96440  0.61440  Biso   1.000  O
  O16      1.0000 0.50100  0.46440  0.88560  Biso   1.000  O
  C161     1.0000 0.90000  0.08000  0.38200  Biso   1.000  C
  C162     1.0000 0.60000  0.58000  0.11800  Biso   1.000  C
  C163     1.0000 0.10000  0.92000  0.61800  Biso   1.000  C
  C164     1.0000 0.40000  0.42000  0.88200  Biso   1.000  C
