data_image0
_cell_length_a       9.1665
_cell_length_b       10.0157
_cell_length_c       10.8275
_cell_angle_alpha    78.835
_cell_angle_beta     77.128
_cell_angle_gamma    75.841

_symmetry_space_group_name_H-M    "P 1"
_symmetry_int_tables_number       1

loop_
  _symmetry_equiv_pos_as_xyz
  'x, y, z'

loop_
  _atom_site_label
  _atom_site_occupancy
  _atom_site_fract_x
  _atom_site_fract_y
  _atom_site_fract_z
  _atom_site_thermal_displace_type
  _atom_site_B_iso_or_equiv
  _atom_site_type_symbol
  Cu1      1.0000 0.50000  0.50000  0.50000  Biso   1.000  Cu
  Cl1      1.0000 0.45207  0.61272  0.30035  Biso   1.000  Cl
  Cl2      1.0000 0.54793  0.38728  0.69965  Biso   1.000  Cl
  N1       1.0000 0.29934  0.60695  0.58665  Biso   1.000  N
  N2       1.0000 0.70066  0.39305  0.41335  Biso   1.000  N
  C1       1.0000 0.16498  0.60480  0.55708  Biso   1.000  C
  C2       1.0000 0.83502  0.39520  0.44292  Biso   1.000  C
  H1       1.0000 0.16550  0.56130  0.48840  Biso   1.000  H
  H2       1.0000 0.83450  0.43870  0.51160  Biso   1.000  H
  C3       1.0000 0.02588  0.66531  0.62568  Biso   1.000  C
  C4       1.0000 0.97412  0.33469  0.37432  Biso   1.000  C
  H3       1.0000 0.93450  0.66090  0.60440  Biso   1.000  H
  H4       1.0000 0.06550  0.33910  0.39560  Biso   1.000  H
  C5       1.0000 0.02486  0.73249  0.72656  Biso   1.000  C
  C6       1.0000 0.97514  0.26751  0.27344  Biso   1.000  C
  H5       1.0000 0.93260  0.77130  0.77540  Biso   1.000  H
  H6       1.0000 0.06740  0.22870  0.22460  Biso   1.000  H
  N3       1.0000 0.27110  0.75179  0.94810  Biso   1.000  N
  N4       1.0000 0.72890  0.24821  0.05190  Biso   1.000  N
  H7       1.0000 0.36820  0.75010  0.90390  Biso   1.000  H
  H8       1.0000 0.63180  0.24990  0.09610  Biso   1.000  H
  C7       1.0000 0.26273  0.60233  0.00186  Biso   1.000  C
  C8       1.0000 0.73727  0.39767  0.99814  Biso   1.000  C
  H9       1.0000 0.35430  0.55760  0.03690  Biso   1.000  H
  H10      1.0000 0.64570  0.44240  0.96310  Biso   1.000  H
  H11      1.0000 0.26190  0.55430  0.93240  Biso   1.000  H
  H12      1.0000 0.73810  0.44570  0.06760  Biso   1.000  H
  C9       1.0000 0.16552  0.82520  0.85476  Biso   1.000  C
  C10      1.0000 0.83448  0.17480  0.14524  Biso   1.000  C
  H13      1.0000 0.06230  0.84950  0.90270  Biso   1.000  H
  H14      1.0000 0.93770  0.15050  0.09730  Biso   1.000  H
  H15      1.0000 0.19640  0.91120  0.81250  Biso   1.000  H
  H16      1.0000 0.80360  0.08880  0.18750  Biso   1.000  H
  C11      1.0000 0.16339  0.74132  0.75407  Biso   1.000  C
  C12      1.0000 0.83661  0.25868  0.24593  Biso   1.000  C
  C13      1.0000 0.29765  0.67529  0.68209  Biso   1.000  C
  C14      1.0000 0.70235  0.32471  0.31791  Biso   1.000  C
  H17      1.0000 0.39070  0.67870  0.70100  Biso   1.000  H
  H18      1.0000 0.60930  0.32130  0.29900  Biso   1.000  H
  O1       1.0000 0.99046  0.65849  0.05627  Biso   1.000  O
  O2       1.0000 0.00954  0.34151  0.94373  Biso   1.000  O
  O3       1.0000 0.20166  0.07537  0.95111  Biso   1.000  O
  O4       1.0000 0.79834  0.92463  0.04889  Biso   1.000  O
  O5       1.0000 0.35539  0.33058  0.46951  Biso   1.000  O
  O6       1.0000 0.64461  0.66942  0.53049  Biso   1.000  O
  C15      1.0000 0.25868  0.20078  0.90887  Biso   1.000  C
  C16      1.0000 0.74132  0.79922  0.09113  Biso   1.000  C
  H19      1.0000 0.35400  0.18350  0.84810  Biso   1.000  H
  H20      1.0000 0.64600  0.81650  0.15190  Biso   1.000  H
  H21      1.0000 0.27790  0.23350  0.98120  Biso   1.000  H
  H22      1.0000 0.72210  0.76650  0.01880  Biso   1.000  H
  C17      1.0000 0.12390  0.58574  0.10523  Biso   1.000  C
  C18      1.0000 0.87610  0.41426  0.89477  Biso   1.000  C
  H23      1.0000 0.12110  0.48790  0.13040  Biso   1.000  H
  H24      1.0000 0.87890  0.51210  0.86960  Biso   1.000  H
  H25      1.0000 0.12920  0.62300  0.18000  Biso   1.000  H
  H26      1.0000 0.87080  0.37700  0.82000  Biso   1.000  H
  C19      1.0000 0.36770  0.19420  0.53881  Biso   1.000  C
  C20      1.0000 0.63230  0.80580  0.46119  Biso   1.000  C
  H27      1.0000 0.40200  0.19120  0.61710  Biso   1.000  H
  H28      1.0000 0.59800  0.80880  0.38290  Biso   1.000  H
  H29      1.0000 0.44000  0.12990  0.48820  Biso   1.000  H
  H30      1.0000 0.56000  0.87010  0.51180  Biso   1.000  H
  H31      1.0000 0.26950  0.16930  0.55810  Biso   1.000  H
  H32      1.0000 0.73050  0.83070  0.44190  Biso   1.000  H
  C21      1.0000 0.30889  0.96955  0.01137  Biso   1.000  C
  C22      1.0000 0.69111  0.03045  0.98863  Biso   1.000  C
  H33      1.0000 0.32720  0.00060  0.08500  Biso   1.000  H
  H34      1.0000 0.67280  0.99940  0.91500  Biso   1.000  H
  H35      1.0000 0.40530  0.95200  0.95190  Biso   1.000  H
  H36      1.0000 0.59470  0.04800  0.04810  Biso   1.000  H
  C23      1.0000 0.24947  0.83690  0.05386  Biso   1.000  C
  C24      1.0000 0.75053  0.16310  0.94614  Biso   1.000  C
  H37      1.0000 0.30130  0.78050  0.12130  Biso   1.000  H
  H38      1.0000 0.69870  0.21950  0.87870  Biso   1.000  H
  H39      1.0000 0.14120  0.86030  0.08980  Biso   1.000  H
  H40      1.0000 0.85880  0.13970  0.91020  Biso   1.000  H
  C25      1.0000 0.85948  0.69157  0.15339  Biso   1.000  C
  C26      1.0000 0.14052  0.30843  0.84661  Biso   1.000  C
  H41      1.0000 0.88680  0.72790  0.22000  Biso   1.000  H
  H42      1.0000 0.11320  0.27210  0.78000  Biso   1.000  H
  H43      1.0000 0.81950  0.60890  0.19180  Biso   1.000  H
  H44      1.0000 0.18050  0.39110  0.80820  Biso   1.000  H
  H45      1.0000 0.36570  0.32860  0.38120  Biso   1.000  H
  H46      1.0000 0.63430  0.67140  0.61880  Biso   1.000  H
  Cl3      1.0000 0.39574  0.24987  0.19722  Biso   1.000  Cl
  Cl4      1.0000 0.60426  0.75013  0.80278  Biso   1.000  Cl
  N5       1.0000 0.00150  0.08834  0.66860  Biso   1.000  N
  N6       1.0000 0.99850  0.91166  0.33140  Biso   1.000  N
  C27      1.0000 0.89530  0.07537  0.63867  Biso   1.000  C
  C28      1.0000 0.10470  0.92463  0.36133  Biso   1.000  C
  C29      1.0000 0.75880  0.05870  0.60137  Biso   1.000  C
  C30      1.0000 0.24120  0.94130  0.39863  Biso   1.000  C
  H47      1.0000 0.67990  0.14090  0.61170  Biso   1.000  H
  H48      1.0000 0.32010  0.85910  0.38830  Biso   1.000  H
  H49      1.0000 0.72410  0.97980  0.65440  Biso   1.000  H
  H50      1.0000 0.27590  0.02020  0.34560  Biso   1.000  H
  H51      1.0000 0.78210  0.04440  0.51340  Biso   1.000  H
  H52      1.0000 0.21790  0.95560  0.48660  Biso   1.000  H
