data_image0
_cell_length_a       16.752
_cell_length_b       14.445
_cell_length_c       7.37
_cell_angle_alpha    90
_cell_angle_beta     93.27
_cell_angle_gamma    90

_symmetry_space_group_name_H-M    "P 1"
_symmetry_int_tables_number       1

loop_
  _symmetry_equiv_pos_as_xyz
  'x, y, z'

loop_
  _atom_site_label
  _atom_site_occupancy
  _atom_site_fract_x
  _atom_site_fract_y
  _atom_site_fract_z
  _atom_site_thermal_displace_type
  _atom_site_B_iso_or_equiv
  _atom_site_type_symbol
  Cu1      1.0000 0.25000  0.75000  0.00000  Biso   1.000  Cu
  Cu2      1.0000 0.75000  0.25000  0.00000  Biso   1.000  Cu
  Cu3      1.0000 0.25000  0.25000  0.50000  Biso   1.000  Cu
  Cu4      1.0000 0.75000  0.75000  0.50000  Biso   1.000  Cu
  O1       1.0000 0.35260  0.69750  0.08860  Biso   1.000  O
  O2       1.0000 0.85260  0.19750  0.08860  Biso   1.000  O
  O3       1.0000 0.35260  0.30250  0.58860  Biso   1.000  O
  O4       1.0000 0.85260  0.80250  0.58860  Biso   1.000  O
  O5       1.0000 0.64740  0.30250  0.91140  Biso   1.000  O
  O6       1.0000 0.14740  0.80250  0.91140  Biso   1.000  O
  O7       1.0000 0.64740  0.69750  0.41140  Biso   1.000  O
  O8       1.0000 0.14740  0.19750  0.41140  Biso   1.000  O
  H1       1.0000 0.35900  0.65500  0.14600  Biso   1.000  H
  H2       1.0000 0.85900  0.15500  0.14600  Biso   1.000  H
  H3       1.0000 0.35900  0.34500  0.64600  Biso   1.000  H
  H4       1.0000 0.85900  0.84500  0.64600  Biso   1.000  H
  H5       1.0000 0.64100  0.34500  0.85400  Biso   1.000  H
  H6       1.0000 0.14100  0.84500  0.85400  Biso   1.000  H
  H7       1.0000 0.64100  0.65500  0.35400  Biso   1.000  H
  H8       1.0000 0.14100  0.15500  0.35400  Biso   1.000  H
  H9       1.0000 0.39100  0.69600  0.03300  Biso   1.000  H
  H10      1.0000 0.89100  0.19600  0.03300  Biso   1.000  H
  H11      1.0000 0.39100  0.30400  0.53300  Biso   1.000  H
  H12      1.0000 0.89100  0.80400  0.53300  Biso   1.000  H
  H13      1.0000 0.60900  0.30400  0.96700  Biso   1.000  H
  H14      1.0000 0.10900  0.80400  0.96700  Biso   1.000  H
  H15      1.0000 0.60900  0.69600  0.46700  Biso   1.000  H
  H16      1.0000 0.10900  0.19600  0.46700  Biso   1.000  H
  O9       1.0000 0.21780  0.79480  0.31070  Biso   1.000  O
  O10      1.0000 0.71780  0.29480  0.31070  Biso   1.000  O
  O11      1.0000 0.21780  0.20520  0.81070  Biso   1.000  O
  O12      1.0000 0.71780  0.70520  0.81070  Biso   1.000  O
  O13      1.0000 0.78220  0.20520  0.68930  Biso   1.000  O
  O14      1.0000 0.28220  0.70520  0.68930  Biso   1.000  O
  O15      1.0000 0.78220  0.79480  0.18930  Biso   1.000  O
  O16      1.0000 0.28220  0.29480  0.18930  Biso   1.000  O
  H17      1.0000 0.23200  0.79000  0.40000  Biso   1.000  H
  H18      1.0000 0.73200  0.29000  0.40000  Biso   1.000  H
  H19      1.0000 0.23200  0.21000  0.90000  Biso   1.000  H
  H20      1.0000 0.73200  0.71000  0.90000  Biso   1.000  H
  H21      1.0000 0.76800  0.21000  0.60000  Biso   1.000  H
  H22      1.0000 0.26800  0.71000  0.60000  Biso   1.000  H
  H23      1.0000 0.76800  0.79000  0.10000  Biso   1.000  H
  H24      1.0000 0.26800  0.29000  0.10000  Biso   1.000  H
  H25      1.0000 0.17000  0.82400  0.29600  Biso   1.000  H
  H26      1.0000 0.67000  0.32400  0.29600  Biso   1.000  H
  H27      1.0000 0.17000  0.17600  0.79600  Biso   1.000  H
  H28      1.0000 0.67000  0.67600  0.79600  Biso   1.000  H
  H29      1.0000 0.83000  0.17600  0.70400  Biso   1.000  H
  H30      1.0000 0.33000  0.67600  0.70400  Biso   1.000  H
  H31      1.0000 0.83000  0.82400  0.20400  Biso   1.000  H
  H32      1.0000 0.33000  0.32400  0.20400  Biso   1.000  H
  N1       1.0000 0.19880  0.62820  0.04260  Biso   1.000  N
  N2       1.0000 0.69880  0.12820  0.04260  Biso   1.000  N
  N3       1.0000 0.19880  0.37180  0.54260  Biso   1.000  N
  N4       1.0000 0.69880  0.87180  0.54260  Biso   1.000  N
  N5       1.0000 0.80120  0.37180  0.95740  Biso   1.000  N
  N6       1.0000 0.30120  0.87180  0.95740  Biso   1.000  N
  N7       1.0000 0.80120  0.62820  0.45740  Biso   1.000  N
  N8       1.0000 0.30120  0.12820  0.45740  Biso   1.000  N
  C1       1.0000 0.12990  0.60830  0.11390  Biso   1.000  C
  C2       1.0000 0.62990  0.10830  0.11390  Biso   1.000  C
  C3       1.0000 0.12990  0.39170  0.61390  Biso   1.000  C
  C4       1.0000 0.62990  0.89170  0.61390  Biso   1.000  C
  C5       1.0000 0.87010  0.39170  0.88610  Biso   1.000  C
  C6       1.0000 0.37010  0.89170  0.88610  Biso   1.000  C
  C7       1.0000 0.87010  0.60830  0.38610  Biso   1.000  C
  C8       1.0000 0.37010  0.10830  0.38610  Biso   1.000  C
  H33      1.0000 0.09410  0.65110  0.15730  Biso   1.000  H
  H34      1.0000 0.59410  0.15110  0.15730  Biso   1.000  H
  H35      1.0000 0.09410  0.34890  0.65730  Biso   1.000  H
  H36      1.0000 0.59410  0.84890  0.65730  Biso   1.000  H
  H37      1.0000 0.90590  0.34890  0.84270  Biso   1.000  H
  H38      1.0000 0.40590  0.84890  0.84270  Biso   1.000  H
  H39      1.0000 0.90590  0.65110  0.34270  Biso   1.000  H
  H40      1.0000 0.40590  0.15110  0.34270  Biso   1.000  H
  N9       1.0000 0.12050  0.51710  0.11290  Biso   1.000  N
  N10      1.0000 0.62050  0.01710  0.11290  Biso   1.000  N
  N11      1.0000 0.12050  0.48290  0.61290  Biso   1.000  N
  N12      1.0000 0.62050  0.98290  0.61290  Biso   1.000  N
  N13      1.0000 0.87950  0.48290  0.88710  Biso   1.000  N
  N14      1.0000 0.37950  0.98290  0.88710  Biso   1.000  N
  N15      1.0000 0.87950  0.51710  0.38710  Biso   1.000  N
  N16      1.0000 0.37950  0.01710  0.38710  Biso   1.000  N
  N17      1.0000 0.18340  0.47480  0.03790  Biso   1.000  N
  N18      1.0000 0.68340  0.97480  0.03790  Biso   1.000  N
  N19      1.0000 0.18340  0.52520  0.53790  Biso   1.000  N
  N20      1.0000 0.68340  0.02520  0.53790  Biso   1.000  N
  N21      1.0000 0.81660  0.52520  0.96210  Biso   1.000  N
  N22      1.0000 0.31660  0.02520  0.96210  Biso   1.000  N
  N23      1.0000 0.81660  0.47480  0.46210  Biso   1.000  N
  N24      1.0000 0.31660  0.97480  0.46210  Biso   1.000  N
  C9       1.0000 0.22820  0.54460  0.00030  Biso   1.000  C
  C10      1.0000 0.72820  0.04460  0.00030  Biso   1.000  C
  C11      1.0000 0.22820  0.45540  0.50030  Biso   1.000  C
  C12      1.0000 0.72820  0.95540  0.50030  Biso   1.000  C
  C13      1.0000 0.77180  0.45540  0.99970  Biso   1.000  C
  C14      1.0000 0.27180  0.95540  0.99970  Biso   1.000  C
  C15      1.0000 0.77180  0.54460  0.49970  Biso   1.000  C
  C16      1.0000 0.27180  0.04460  0.49970  Biso   1.000  C
  H41      1.0000 0.27710  0.53750  0.94810  Biso   1.000  H
  H42      1.0000 0.77710  0.03750  0.94810  Biso   1.000  H
  H43      1.0000 0.27710  0.46250  0.44810  Biso   1.000  H
  H44      1.0000 0.77710  0.96250  0.44810  Biso   1.000  H
  H45      1.0000 0.72290  0.46250  0.05190  Biso   1.000  H
  H46      1.0000 0.22290  0.96250  0.05190  Biso   1.000  H
  H47      1.0000 0.72290  0.53750  0.55190  Biso   1.000  H
  H48      1.0000 0.22290  0.03750  0.55190  Biso   1.000  H
  N25      1.0000 0.00000  0.51180  0.25000  Biso   1.000  N
  N26      1.0000 0.50000  0.01180  0.25000  Biso   1.000  N
  N27      1.0000 0.00000  0.48820  0.75000  Biso   1.000  N
  N28      1.0000 0.50000  0.98820  0.75000  Biso   1.000  N
  C17      1.0000 0.05810  0.46320  0.18150  Biso   1.000  C
  C18      1.0000 0.55810  0.96320  0.18150  Biso   1.000  C
  C19      1.0000 0.05810  0.53680  0.68150  Biso   1.000  C
  C20      1.0000 0.55810  0.03680  0.68150  Biso   1.000  C
  C21      1.0000 0.94190  0.53680  0.81850  Biso   1.000  C
  C22      1.0000 0.44190  0.03680  0.81850  Biso   1.000  C
  C23      1.0000 0.94190  0.46320  0.31850  Biso   1.000  C
  C24      1.0000 0.44190  0.96320  0.31850  Biso   1.000  C
  C25      1.0000 0.06140  0.36790  0.17260  Biso   1.000  C
  C26      1.0000 0.56140  0.86790  0.17260  Biso   1.000  C
  C27      1.0000 0.06140  0.63210  0.67260  Biso   1.000  C
  C28      1.0000 0.56140  0.13210  0.67260  Biso   1.000  C
  C29      1.0000 0.93860  0.63210  0.82740  Biso   1.000  C
  C30      1.0000 0.43860  0.13210  0.82740  Biso   1.000  C
  C31      1.0000 0.93860  0.36790  0.32740  Biso   1.000  C
  C32      1.0000 0.43860  0.86790  0.32740  Biso   1.000  C
  H49      1.0000 0.10250  0.33730  0.11770  Biso   1.000  H
  H50      1.0000 0.60250  0.83730  0.11770  Biso   1.000  H
  H51      1.0000 0.10250  0.66270  0.61770  Biso   1.000  H
  H52      1.0000 0.60250  0.16270  0.61770  Biso   1.000  H
  H53      1.0000 0.89750  0.66270  0.88230  Biso   1.000  H
  H54      1.0000 0.39750  0.16270  0.88230  Biso   1.000  H
  H55      1.0000 0.89750  0.33730  0.38230  Biso   1.000  H
  H56      1.0000 0.39750  0.83730  0.38230  Biso   1.000  H
  C33      1.0000 0.00000  0.32040  0.25000  Biso   1.000  C
  C34      1.0000 0.50000  0.82040  0.25000  Biso   1.000  C
  C35      1.0000 0.00000  0.67960  0.75000  Biso   1.000  C
  C36      1.0000 0.50000  0.17960  0.75000  Biso   1.000  C
  H57      1.0000 0.00000  0.25600  0.25000  Biso   1.000  H
  H58      1.0000 0.50000  0.75600  0.25000  Biso   1.000  H
  H59      1.0000 0.00000  0.74400  0.75000  Biso   1.000  H
  H60      1.0000 0.50000  0.24400  0.75000  Biso   1.000  H
  S1       1.0000 0.00000  0.84198  0.25000  Biso   1.000  S
  S2       1.0000 0.50000  0.34198  0.25000  Biso   1.000  S
  S3       1.0000 0.00000  0.15802  0.75000  Biso   1.000  S
  S4       1.0000 0.50000  0.65802  0.75000  Biso   1.000  S
  O17      1.0000 0.93270  0.90090  0.19330  Biso   1.000  O
  O18      1.0000 0.43270  0.40090  0.19330  Biso   1.000  O
  O19      1.0000 0.93270  0.09910  0.69330  Biso   1.000  O
  O20      1.0000 0.43270  0.59910  0.69330  Biso   1.000  O
  O21      1.0000 0.06730  0.09910  0.80670  Biso   1.000  O
  O22      1.0000 0.56730  0.59910  0.80670  Biso   1.000  O
  O23      1.0000 0.06730  0.90090  0.30670  Biso   1.000  O
  O24      1.0000 0.56730  0.40090  0.30670  Biso   1.000  O
  O25      1.0000 0.01970  0.79190  0.09450  Biso   1.000  O
  O26      1.0000 0.51970  0.29190  0.09450  Biso   1.000  O
  O27      1.0000 0.01970  0.20810  0.59450  Biso   1.000  O
  O28      1.0000 0.51970  0.70810  0.59450  Biso   1.000  O
  O29      1.0000 0.98030  0.20810  0.90550  Biso   1.000  O
  O30      1.0000 0.48030  0.70810  0.90550  Biso   1.000  O
  O31      1.0000 0.98030  0.79190  0.40550  Biso   1.000  O
  O32      1.0000 0.48030  0.29190  0.40550  Biso   1.000  O
  O33      1.0000 0.38380  0.56500  0.33150  Biso   1.000  O
  O34      1.0000 0.88380  0.06500  0.33150  Biso   1.000  O
  O35      1.0000 0.38380  0.43500  0.83150  Biso   1.000  O
  O36      1.0000 0.88380  0.93500  0.83150  Biso   1.000  O
  O37      1.0000 0.61620  0.43500  0.66850  Biso   1.000  O
  O38      1.0000 0.11620  0.93500  0.66850  Biso   1.000  O
  O39      1.0000 0.61620  0.56500  0.16850  Biso   1.000  O
  O40      1.0000 0.11620  0.06500  0.16850  Biso   1.000  O
  H61      1.0000 0.40800  0.58300  0.39900  Biso   1.000  H
  H62      1.0000 0.90800  0.08300  0.39900  Biso   1.000  H
  H63      1.0000 0.40800  0.41700  0.89900  Biso   1.000  H
  H64      1.0000 0.90800  0.91700  0.89900  Biso   1.000  H
  H65      1.0000 0.59200  0.41700  0.60100  Biso   1.000  H
  H66      1.0000 0.09200  0.91700  0.60100  Biso   1.000  H
  H67      1.0000 0.59200  0.58300  0.10100  Biso   1.000  H
  H68      1.0000 0.09200  0.08300  0.10100  Biso   1.000  H
  H69      1.0000 0.40900  0.53000  0.31400  Biso   1.000  H
  H70      1.0000 0.90900  0.03000  0.31400  Biso   1.000  H
  H71      1.0000 0.40900  0.47000  0.81400  Biso   1.000  H
  H72      1.0000 0.90900  0.97000  0.81400  Biso   1.000  H
  H73      1.0000 0.59100  0.47000  0.68600  Biso   1.000  H
  H74      1.0000 0.09100  0.97000  0.68600  Biso   1.000  H
  H75      1.0000 0.59100  0.53000  0.18600  Biso   1.000  H
  H76      1.0000 0.09100  0.03000  0.18600  Biso   1.000  H
