data_image0
_cell_length_a       17.375
_cell_length_b       19.743
_cell_length_c       7.126
_cell_angle_alpha    90
_cell_angle_beta     90
_cell_angle_gamma    90

_symmetry_space_group_name_H-M    "P 1"
_symmetry_int_tables_number       1

loop_
  _symmetry_equiv_pos_as_xyz
  'x, y, z'

loop_
  _atom_site_label
  _atom_site_occupancy
  _atom_site_fract_x
  _atom_site_fract_y
  _atom_site_fract_z
  _atom_site_thermal_displace_type
  _atom_site_B_iso_or_equiv
  _atom_site_type_symbol
  Cu1      1.0000 0.00000  0.50000  0.00000  Biso   1.000  Cu
  Cu2      1.0000 0.50000  0.00000  0.00000  Biso   1.000  Cu
  Cu3      1.0000 0.00000  0.00000  0.00000  Biso   1.000  Cu
  Cu4      1.0000 0.50000  0.50000  0.00000  Biso   1.000  Cu
  N1       1.0000 0.08410  0.44312  0.11640  Biso   1.000  N
  N2       1.0000 0.58410  0.94312  0.11640  Biso   1.000  N
  N3       1.0000 0.08410  0.94312  0.88360  Biso   1.000  N
  N4       1.0000 0.08410  0.05688  0.11640  Biso   1.000  N
  N5       1.0000 0.91590  0.44312  0.11640  Biso   1.000  N
  N6       1.0000 0.58410  0.44312  0.88360  Biso   1.000  N
  N7       1.0000 0.58410  0.55688  0.11640  Biso   1.000  N
  N8       1.0000 0.41590  0.94312  0.11640  Biso   1.000  N
  N9       1.0000 0.91590  0.55688  0.88360  Biso   1.000  N
  N10      1.0000 0.41590  0.05688  0.88360  Biso   1.000  N
  N11      1.0000 0.91590  0.05688  0.11640  Biso   1.000  N
  N12      1.0000 0.91590  0.94312  0.88360  Biso   1.000  N
  N13      1.0000 0.08410  0.55688  0.88360  Biso   1.000  N
  N14      1.0000 0.41590  0.55688  0.11640  Biso   1.000  N
  N15      1.0000 0.41590  0.44312  0.88360  Biso   1.000  N
  N16      1.0000 0.58410  0.05688  0.88360  Biso   1.000  N
  C1       1.0000 0.10173  0.37855  0.10550  Biso   1.000  C
  C2       1.0000 0.60173  0.87855  0.10550  Biso   1.000  C
  C3       1.0000 0.10173  0.87855  0.89450  Biso   1.000  C
  C4       1.0000 0.10173  0.12145  0.10550  Biso   1.000  C
  C5       1.0000 0.89827  0.37855  0.10550  Biso   1.000  C
  C6       1.0000 0.60173  0.37855  0.89450  Biso   1.000  C
  C7       1.0000 0.60173  0.62145  0.10550  Biso   1.000  C
  C8       1.0000 0.39827  0.87855  0.10550  Biso   1.000  C
  C9       1.0000 0.89827  0.62145  0.89450  Biso   1.000  C
  C10      1.0000 0.39827  0.12145  0.89450  Biso   1.000  C
  C11      1.0000 0.89827  0.12145  0.10550  Biso   1.000  C
  C12      1.0000 0.89827  0.87855  0.89450  Biso   1.000  C
  C13      1.0000 0.10173  0.62145  0.89450  Biso   1.000  C
  C14      1.0000 0.39827  0.62145  0.10550  Biso   1.000  C
  C15      1.0000 0.39827  0.37855  0.89450  Biso   1.000  C
  C16      1.0000 0.60173  0.12145  0.89450  Biso   1.000  C
  H1       1.0000 0.07200  0.34560  0.04670  Biso   1.000  H
  H2       1.0000 0.57200  0.84560  0.04670  Biso   1.000  H
  H3       1.0000 0.07200  0.84560  0.95330  Biso   1.000  H
  H4       1.0000 0.07200  0.15440  0.04670  Biso   1.000  H
  H5       1.0000 0.92800  0.34560  0.04670  Biso   1.000  H
  H6       1.0000 0.57200  0.34560  0.95330  Biso   1.000  H
  H7       1.0000 0.57200  0.65440  0.04670  Biso   1.000  H
  H8       1.0000 0.42800  0.84560  0.04670  Biso   1.000  H
  H9       1.0000 0.92800  0.65440  0.95330  Biso   1.000  H
  H10      1.0000 0.42800  0.15440  0.95330  Biso   1.000  H
  H11      1.0000 0.92800  0.15440  0.04670  Biso   1.000  H
  H12      1.0000 0.92800  0.84560  0.95330  Biso   1.000  H
  H13      1.0000 0.07200  0.65440  0.95330  Biso   1.000  H
  H14      1.0000 0.42800  0.65440  0.04670  Biso   1.000  H
  H15      1.0000 0.42800  0.34560  0.95330  Biso   1.000  H
  H16      1.0000 0.57200  0.15440  0.95330  Biso   1.000  H
  N17      1.0000 0.16836  0.36746  0.19100  Biso   1.000  N
  N18      1.0000 0.66836  0.86746  0.19100  Biso   1.000  N
  N19      1.0000 0.16836  0.86746  0.80900  Biso   1.000  N
  N20      1.0000 0.16836  0.13254  0.19100  Biso   1.000  N
  N21      1.0000 0.83164  0.36746  0.19100  Biso   1.000  N
  N22      1.0000 0.66836  0.36746  0.80900  Biso   1.000  N
  N23      1.0000 0.66836  0.63254  0.19100  Biso   1.000  N
  N24      1.0000 0.33164  0.86746  0.19100  Biso   1.000  N
  N25      1.0000 0.83164  0.63254  0.80900  Biso   1.000  N
  N26      1.0000 0.33164  0.13254  0.80900  Biso   1.000  N
  N27      1.0000 0.83164  0.13254  0.19100  Biso   1.000  N
  N28      1.0000 0.83164  0.86746  0.80900  Biso   1.000  N
  N29      1.0000 0.16836  0.63254  0.80900  Biso   1.000  N
  N30      1.0000 0.33164  0.63254  0.19100  Biso   1.000  N
  N31      1.0000 0.33164  0.36746  0.80900  Biso   1.000  N
  N32      1.0000 0.66836  0.13254  0.80900  Biso   1.000  N
  N33      1.0000 0.19609  0.42630  0.26340  Biso   1.000  N
  N34      1.0000 0.69609  0.92630  0.26340  Biso   1.000  N
  N35      1.0000 0.19609  0.92630  0.73660  Biso   1.000  N
  N36      1.0000 0.19609  0.07370  0.26340  Biso   1.000  N
  N37      1.0000 0.80391  0.42630  0.26340  Biso   1.000  N
  N38      1.0000 0.69609  0.42630  0.73660  Biso   1.000  N
  N39      1.0000 0.69609  0.57370  0.26340  Biso   1.000  N
  N40      1.0000 0.30391  0.92630  0.26340  Biso   1.000  N
  N41      1.0000 0.80391  0.57370  0.73660  Biso   1.000  N
  N42      1.0000 0.30391  0.07370  0.73660  Biso   1.000  N
  N43      1.0000 0.80391  0.07370  0.26340  Biso   1.000  N
  N44      1.0000 0.80391  0.92630  0.73660  Biso   1.000  N
  N45      1.0000 0.19609  0.57370  0.73660  Biso   1.000  N
  N46      1.0000 0.30391  0.57370  0.26340  Biso   1.000  N
  N47      1.0000 0.30391  0.42630  0.73660  Biso   1.000  N
  N48      1.0000 0.69609  0.07370  0.73660  Biso   1.000  N
  C17      1.0000 0.14330  0.46955  0.21590  Biso   1.000  C
  C18      1.0000 0.64330  0.96955  0.21590  Biso   1.000  C
  C19      1.0000 0.14330  0.96955  0.78410  Biso   1.000  C
  C20      1.0000 0.14330  0.03045  0.21590  Biso   1.000  C
  C21      1.0000 0.85670  0.46955  0.21590  Biso   1.000  C
  C22      1.0000 0.64330  0.46955  0.78410  Biso   1.000  C
  C23      1.0000 0.64330  0.53045  0.21590  Biso   1.000  C
  C24      1.0000 0.35670  0.96955  0.21590  Biso   1.000  C
  C25      1.0000 0.85670  0.53045  0.78410  Biso   1.000  C
  C26      1.0000 0.35670  0.03045  0.78410  Biso   1.000  C
  C27      1.0000 0.85670  0.03045  0.21590  Biso   1.000  C
  C28      1.0000 0.85670  0.96955  0.78410  Biso   1.000  C
  C29      1.0000 0.14330  0.53045  0.78410  Biso   1.000  C
  C30      1.0000 0.35670  0.53045  0.21590  Biso   1.000  C
  C31      1.0000 0.35670  0.46955  0.78410  Biso   1.000  C
  C32      1.0000 0.64330  0.03045  0.78410  Biso   1.000  C
  H17      1.0000 0.14590  0.51520  0.24780  Biso   1.000  H
  H18      1.0000 0.64590  0.01520  0.24780  Biso   1.000  H
  H19      1.0000 0.14590  0.01520  0.75220  Biso   1.000  H
  H20      1.0000 0.14590  0.98480  0.24780  Biso   1.000  H
  H21      1.0000 0.85410  0.51520  0.24780  Biso   1.000  H
  H22      1.0000 0.64590  0.51520  0.75220  Biso   1.000  H
  H23      1.0000 0.64590  0.48480  0.24780  Biso   1.000  H
  H24      1.0000 0.35410  0.01520  0.24780  Biso   1.000  H
  H25      1.0000 0.85410  0.48480  0.75220  Biso   1.000  H
  H26      1.0000 0.35410  0.98480  0.75220  Biso   1.000  H
  H27      1.0000 0.85410  0.98480  0.24780  Biso   1.000  H
  H28      1.0000 0.85410  0.01520  0.75220  Biso   1.000  H
  H29      1.0000 0.14590  0.48480  0.75220  Biso   1.000  H
  H30      1.0000 0.35410  0.48480  0.24780  Biso   1.000  H
  H31      1.0000 0.35410  0.51520  0.75220  Biso   1.000  H
  H32      1.0000 0.64590  0.98480  0.75220  Biso   1.000  H
  N49      1.0000 0.17108  0.25000  0.18730  Biso   1.000  N
  N50      1.0000 0.67108  0.75000  0.18730  Biso   1.000  N
  N51      1.0000 0.17108  0.75000  0.81270  Biso   1.000  N
  N52      1.0000 0.82892  0.25000  0.18730  Biso   1.000  N
  N53      1.0000 0.67108  0.25000  0.81270  Biso   1.000  N
  N54      1.0000 0.32892  0.75000  0.18730  Biso   1.000  N
  N55      1.0000 0.82892  0.75000  0.81270  Biso   1.000  N
  N56      1.0000 0.32892  0.25000  0.81270  Biso   1.000  N
  C33      1.0000 0.20972  0.30640  0.22050  Biso   1.000  C
  C34      1.0000 0.70972  0.80640  0.22050  Biso   1.000  C
  C35      1.0000 0.20972  0.80640  0.77950  Biso   1.000  C
  C36      1.0000 0.20972  0.19360  0.22050  Biso   1.000  C
  C37      1.0000 0.79028  0.30640  0.22050  Biso   1.000  C
  C38      1.0000 0.70972  0.30640  0.77950  Biso   1.000  C
  C39      1.0000 0.70972  0.69360  0.22050  Biso   1.000  C
  C40      1.0000 0.29028  0.80640  0.22050  Biso   1.000  C
  C41      1.0000 0.79028  0.69360  0.77950  Biso   1.000  C
  C42      1.0000 0.29028  0.19360  0.77950  Biso   1.000  C
  C43      1.0000 0.79028  0.19360  0.22050  Biso   1.000  C
  C44      1.0000 0.79028  0.80640  0.77950  Biso   1.000  C
  C45      1.0000 0.20972  0.69360  0.77950  Biso   1.000  C
  C46      1.0000 0.29028  0.69360  0.22050  Biso   1.000  C
  C47      1.0000 0.29028  0.30640  0.77950  Biso   1.000  C
  C48      1.0000 0.70972  0.19360  0.77950  Biso   1.000  C
  C49      1.0000 0.28493  0.31013  0.28160  Biso   1.000  C
  C50      1.0000 0.78493  0.81013  0.28160  Biso   1.000  C
  C51      1.0000 0.28493  0.81013  0.71840  Biso   1.000  C
  C52      1.0000 0.28493  0.18987  0.28160  Biso   1.000  C
  C53      1.0000 0.71507  0.31013  0.28160  Biso   1.000  C
  C54      1.0000 0.78493  0.31013  0.71840  Biso   1.000  C
  C55      1.0000 0.78493  0.68987  0.28160  Biso   1.000  C
  C56      1.0000 0.21507  0.81013  0.28160  Biso   1.000  C
  C57      1.0000 0.71507  0.68987  0.71840  Biso   1.000  C
  C58      1.0000 0.21507  0.18987  0.71840  Biso   1.000  C
  C59      1.0000 0.71507  0.18987  0.28160  Biso   1.000  C
  C60      1.0000 0.71507  0.81013  0.71840  Biso   1.000  C
  C61      1.0000 0.28493  0.68987  0.71840  Biso   1.000  C
  C62      1.0000 0.21507  0.68987  0.28160  Biso   1.000  C
  C63      1.0000 0.21507  0.31013  0.71840  Biso   1.000  C
  C64      1.0000 0.78493  0.18987  0.71840  Biso   1.000  C
  H33      1.0000 0.30890  0.35160  0.30180  Biso   1.000  H
  H34      1.0000 0.80890  0.85160  0.30180  Biso   1.000  H
  H35      1.0000 0.30890  0.85160  0.69820  Biso   1.000  H
  H36      1.0000 0.30890  0.14840  0.30180  Biso   1.000  H
  H37      1.0000 0.69110  0.35160  0.30180  Biso   1.000  H
  H38      1.0000 0.80890  0.35160  0.69820  Biso   1.000  H
  H39      1.0000 0.80890  0.64840  0.30180  Biso   1.000  H
  H40      1.0000 0.19110  0.85160  0.30180  Biso   1.000  H
  H41      1.0000 0.69110  0.64840  0.69820  Biso   1.000  H
  H42      1.0000 0.19110  0.14840  0.69820  Biso   1.000  H
  H43      1.0000 0.69110  0.14840  0.30180  Biso   1.000  H
  H44      1.0000 0.69110  0.85160  0.69820  Biso   1.000  H
  H45      1.0000 0.30890  0.64840  0.69820  Biso   1.000  H
  H46      1.0000 0.19110  0.64840  0.30180  Biso   1.000  H
  H47      1.0000 0.19110  0.35160  0.69820  Biso   1.000  H
  H48      1.0000 0.80890  0.14840  0.69820  Biso   1.000  H
  C65      1.0000 0.32310  0.25000  0.31150  Biso   1.000  C
  C66      1.0000 0.82310  0.75000  0.31150  Biso   1.000  C
  C67      1.0000 0.32310  0.75000  0.68850  Biso   1.000  C
  C68      1.0000 0.67690  0.25000  0.31150  Biso   1.000  C
  C69      1.0000 0.82310  0.25000  0.68850  Biso   1.000  C
  C70      1.0000 0.17690  0.75000  0.31150  Biso   1.000  C
  C71      1.0000 0.67690  0.75000  0.68850  Biso   1.000  C
  C72      1.0000 0.17690  0.25000  0.68850  Biso   1.000  C
  H49      1.0000 0.37410  0.25000  0.35130  Biso   1.000  H
  H50      1.0000 0.87410  0.75000  0.35130  Biso   1.000  H
  H51      1.0000 0.37410  0.75000  0.64870  Biso   1.000  H
  H52      1.0000 0.62590  0.25000  0.35130  Biso   1.000  H
  H53      1.0000 0.87410  0.25000  0.64870  Biso   1.000  H
  H54      1.0000 0.12590  0.75000  0.35130  Biso   1.000  H
  H55      1.0000 0.62590  0.75000  0.64870  Biso   1.000  H
  H56      1.0000 0.12590  0.25000  0.64870  Biso   1.000  H
  Cl1      1.0000 0.00000  0.62473  0.37401  Biso   1.000  Cl
  Cl2      1.0000 0.50000  0.12473  0.37401  Biso   1.000  Cl
  Cl3      1.0000 0.00000  0.12473  0.62599  Biso   1.000  Cl
  Cl4      1.0000 0.00000  0.87527  0.37401  Biso   1.000  Cl
  Cl5      1.0000 0.50000  0.62473  0.62599  Biso   1.000  Cl
  Cl6      1.0000 0.50000  0.37527  0.37401  Biso   1.000  Cl
  Cl7      1.0000 0.00000  0.37527  0.62599  Biso   1.000  Cl
  Cl8      1.0000 0.50000  0.87527  0.62599  Biso   1.000  Cl
  O1       1.0000 0.00000  0.67580  0.23060  Biso   1.000  O
  O2       1.0000 0.50000  0.17580  0.23060  Biso   1.000  O
  O3       1.0000 0.00000  0.17580  0.76940  Biso   1.000  O
  O4       1.0000 0.00000  0.82420  0.23060  Biso   1.000  O
  O5       1.0000 0.50000  0.67580  0.76940  Biso   1.000  O
  O6       1.0000 0.50000  0.32420  0.23060  Biso   1.000  O
  O7       1.0000 0.00000  0.32420  0.76940  Biso   1.000  O
  O8       1.0000 0.50000  0.82420  0.76940  Biso   1.000  O
  O9       1.0000 0.05340  0.64440  0.51120  Biso   1.000  O
  O10      1.0000 0.55340  0.14440  0.51120  Biso   1.000  O
  O11      1.0000 0.05340  0.14440  0.48880  Biso   1.000  O
  O12      1.0000 0.05340  0.85560  0.51120  Biso   1.000  O
  O13      1.0000 0.94660  0.64440  0.51120  Biso   1.000  O
  O14      1.0000 0.55340  0.64440  0.48880  Biso   1.000  O
  O15      1.0000 0.55340  0.35560  0.51120  Biso   1.000  O
  O16      1.0000 0.44660  0.14440  0.51120  Biso   1.000  O
  O17      1.0000 0.94660  0.35560  0.48880  Biso   1.000  O
  O18      1.0000 0.44660  0.85560  0.48880  Biso   1.000  O
  O19      1.0000 0.94660  0.85560  0.51120  Biso   1.000  O
  O20      1.0000 0.94660  0.14440  0.48880  Biso   1.000  O
  O21      1.0000 0.05340  0.35560  0.48880  Biso   1.000  O
  O22      1.0000 0.44660  0.35560  0.51120  Biso   1.000  O
  O23      1.0000 0.44660  0.64440  0.48880  Biso   1.000  O
  O24      1.0000 0.55340  0.85560  0.48880  Biso   1.000  O
  O25      1.0000 0.07540  0.61520  0.45210  Biso   1.000  O
  O26      1.0000 0.57540  0.11520  0.45210  Biso   1.000  O
  O27      1.0000 0.07540  0.11520  0.54790  Biso   1.000  O
  O28      1.0000 0.07540  0.88480  0.45210  Biso   1.000  O
  O29      1.0000 0.92460  0.61520  0.45210  Biso   1.000  O
  O30      1.0000 0.57540  0.61520  0.54790  Biso   1.000  O
  O31      1.0000 0.57540  0.38480  0.45210  Biso   1.000  O
  O32      1.0000 0.42460  0.11520  0.45210  Biso   1.000  O
  O33      1.0000 0.92460  0.38480  0.54790  Biso   1.000  O
  O34      1.0000 0.42460  0.88480  0.54790  Biso   1.000  O
  O35      1.0000 0.92460  0.88480  0.45210  Biso   1.000  O
  O36      1.0000 0.92460  0.11520  0.54790  Biso   1.000  O
  O37      1.0000 0.07540  0.38480  0.54790  Biso   1.000  O
  O38      1.0000 0.42460  0.38480  0.45210  Biso   1.000  O
  O39      1.0000 0.42460  0.61520  0.54790  Biso   1.000  O
  O40      1.0000 0.57540  0.88480  0.54790  Biso   1.000  O
  O41      1.0000 0.01840  0.55860  0.30100  Biso   1.000  O
  O42      1.0000 0.51840  0.05860  0.30100  Biso   1.000  O
  O43      1.0000 0.01840  0.05860  0.69900  Biso   1.000  O
  O44      1.0000 0.01840  0.94140  0.30100  Biso   1.000  O
  O45      1.0000 0.98160  0.55860  0.30100  Biso   1.000  O
  O46      1.0000 0.51840  0.55860  0.69900  Biso   1.000  O
  O47      1.0000 0.51840  0.44140  0.30100  Biso   1.000  O
  O48      1.0000 0.48160  0.05860  0.30100  Biso   1.000  O
  O49      1.0000 0.98160  0.44140  0.69900  Biso   1.000  O
  O50      1.0000 0.48160  0.94140  0.69900  Biso   1.000  O
  O51      1.0000 0.98160  0.94140  0.30100  Biso   1.000  O
  O52      1.0000 0.98160  0.05860  0.69900  Biso   1.000  O
  O53      1.0000 0.01840  0.44140  0.69900  Biso   1.000  O
  O54      1.0000 0.48160  0.44140  0.30100  Biso   1.000  O
  O55      1.0000 0.48160  0.55860  0.69900  Biso   1.000  O
  O56      1.0000 0.51840  0.94140  0.69900  Biso   1.000  O
  O57      1.0000 0.96950  0.56800  0.26900  Biso   1.000  O
  O58      1.0000 0.46950  0.06800  0.26900  Biso   1.000  O
  O59      1.0000 0.96950  0.06800  0.73100  Biso   1.000  O
  O60      1.0000 0.96950  0.93200  0.26900  Biso   1.000  O
  O61      1.0000 0.03050  0.56800  0.26900  Biso   1.000  O
  O62      1.0000 0.46950  0.56800  0.73100  Biso   1.000  O
  O63      1.0000 0.46950  0.43200  0.26900  Biso   1.000  O
  O64      1.0000 0.53050  0.06800  0.26900  Biso   1.000  O
  O65      1.0000 0.03050  0.43200  0.73100  Biso   1.000  O
  O66      1.0000 0.53050  0.93200  0.73100  Biso   1.000  O
  O67      1.0000 0.03050  0.93200  0.26900  Biso   1.000  O
  O68      1.0000 0.03050  0.06800  0.73100  Biso   1.000  O
  O69      1.0000 0.96950  0.43200  0.73100  Biso   1.000  O
  O70      1.0000 0.53050  0.43200  0.26900  Biso   1.000  O
  O71      1.0000 0.53050  0.56800  0.73100  Biso   1.000  O
  O72      1.0000 0.46950  0.93200  0.73100  Biso   1.000  O
