data_image0
_cell_length_a       19.49
_cell_length_b       9.443
_cell_length_c       9.434
_cell_angle_alpha    90
_cell_angle_beta     110.37
_cell_angle_gamma    90

_symmetry_space_group_name_H-M    "P 1"
_symmetry_int_tables_number       1

loop_
  _symmetry_equiv_pos_as_xyz
  'x, y, z'

loop_
  _atom_site_label
  _atom_site_occupancy
  _atom_site_fract_x
  _atom_site_fract_y
  _atom_site_fract_z
  _atom_site_thermal_displace_type
  _atom_site_B_iso_or_equiv
  _atom_site_type_symbol
  Cu1      1.0000 0.35937  0.86476  0.90957  Biso   1.000  Cu
  Cu2      1.0000 0.64063  0.86476  0.59043  Biso   1.000  Cu
  Cu3      1.0000 0.64063  0.13524  0.09043  Biso   1.000  Cu
  Cu4      1.0000 0.35937  0.13524  0.40957  Biso   1.000  Cu
  P1       1.0000 0.32556  0.86780  0.55330  Biso   1.000  P
  P2       1.0000 0.67444  0.86780  0.94670  Biso   1.000  P
  P3       1.0000 0.67444  0.13220  0.44670  Biso   1.000  P
  P4       1.0000 0.32556  0.13220  0.05330  Biso   1.000  P
  P5       1.0000 0.30754  0.58980  0.70340  Biso   1.000  P
  P6       1.0000 0.69246  0.58980  0.79660  Biso   1.000  P
  P7       1.0000 0.69246  0.41020  0.29660  Biso   1.000  P
  P8       1.0000 0.30754  0.41020  0.20340  Biso   1.000  P
  O1       1.0000 0.32850  0.93410  0.70060  Biso   1.000  O
  O2       1.0000 0.67150  0.93410  0.79940  Biso   1.000  O
  O3       1.0000 0.67150  0.06590  0.29940  Biso   1.000  O
  O4       1.0000 0.32850  0.06590  0.20060  Biso   1.000  O
  O5       1.0000 0.37690  0.93660  0.48250  Biso   1.000  O
  O6       1.0000 0.62310  0.93660  0.01750  Biso   1.000  O
  O7       1.0000 0.62310  0.06340  0.51750  Biso   1.000  O
  O8       1.0000 0.37690  0.06340  0.98250  Biso   1.000  O
  O9       1.0000 0.32320  0.67600  0.84680  Biso   1.000  O
  O10      1.0000 0.67680  0.67600  0.65320  Biso   1.000  O
  O11      1.0000 0.67680  0.32400  0.15320  Biso   1.000  O
  O12      1.0000 0.32320  0.32400  0.34680  Biso   1.000  O
  O13      1.0000 0.33400  0.44010  0.72460  Biso   1.000  O
  O14      1.0000 0.66600  0.44010  0.77540  Biso   1.000  O
  O15      1.0000 0.66600  0.55990  0.27540  Biso   1.000  O
  O16      1.0000 0.33400  0.55990  0.22460  Biso   1.000  O
  O17      1.0000 0.47500  0.82300  0.93630  Biso   1.000  O
  O18      1.0000 0.52500  0.82300  0.56370  Biso   1.000  O
  O19      1.0000 0.52500  0.17700  0.06370  Biso   1.000  O
  O20      1.0000 0.47500  0.17700  0.43630  Biso   1.000  O
  O21      1.0000 0.36470  0.80500  0.11550  Biso   1.000  O
  O22      1.0000 0.63530  0.80500  0.38450  Biso   1.000  O
  O23      1.0000 0.63530  0.19500  0.88450  Biso   1.000  O
  O24      1.0000 0.36470  0.19500  0.61550  Biso   1.000  O
  C1       1.0000 0.34870  0.68230  0.58700  Biso   1.000  C
  C2       1.0000 0.65130  0.68230  0.91300  Biso   1.000  C
  C3       1.0000 0.65130  0.31770  0.41300  Biso   1.000  C
  C4       1.0000 0.34870  0.31770  0.08700  Biso   1.000  C
  H1       1.0000 0.33470  0.63460  0.49000  Biso   1.000  H
  H2       1.0000 0.66530  0.63460  0.01000  Biso   1.000  H
  H3       1.0000 0.66530  0.36540  0.51000  Biso   1.000  H
  H4       1.0000 0.33470  0.36540  0.99000  Biso   1.000  H
  H5       1.0000 0.40140  0.67460  0.63380  Biso   1.000  H
  H6       1.0000 0.59860  0.67460  0.86620  Biso   1.000  H
  H7       1.0000 0.59860  0.32540  0.36620  Biso   1.000  H
  H8       1.0000 0.40140  0.32540  0.13380  Biso   1.000  H
  C5       1.0000 0.23200  0.88010  0.42020  Biso   1.000  C
  C6       1.0000 0.76800  0.88010  0.07980  Biso   1.000  C
  C7       1.0000 0.76800  0.11990  0.57980  Biso   1.000  C
  C8       1.0000 0.23200  0.11990  0.92020  Biso   1.000  C
  C9       1.0000 0.20500  0.79330  0.30060  Biso   1.000  C
  C10      1.0000 0.79500  0.79330  0.19940  Biso   1.000  C
  C11      1.0000 0.79500  0.20670  0.69940  Biso   1.000  C
  C12      1.0000 0.20500  0.20670  0.80060  Biso   1.000  C
  H9       1.0000 0.23380  0.72200  0.28230  Biso   1.000  H
  H10      1.0000 0.76620  0.72200  0.21770  Biso   1.000  H
  H11      1.0000 0.76620  0.27800  0.71770  Biso   1.000  H
  H12      1.0000 0.23380  0.27800  0.78230  Biso   1.000  H
  C13      1.0000 0.13450  0.81200  0.20680  Biso   1.000  C
  C14      1.0000 0.86550  0.81200  0.29320  Biso   1.000  C
  C15      1.0000 0.86550  0.18800  0.79320  Biso   1.000  C
  C16      1.0000 0.13450  0.18800  0.70680  Biso   1.000  C
  H13      1.0000 0.11500  0.74990  0.12620  Biso   1.000  H
  H14      1.0000 0.88500  0.74990  0.37380  Biso   1.000  H
  H15      1.0000 0.88500  0.25010  0.87380  Biso   1.000  H
  H16      1.0000 0.11500  0.25010  0.62620  Biso   1.000  H
  C17      1.0000 0.09150  0.91860  0.22700  Biso   1.000  C
  C18      1.0000 0.90850  0.91860  0.27300  Biso   1.000  C
  C19      1.0000 0.90850  0.08140  0.77300  Biso   1.000  C
  C20      1.0000 0.09150  0.08140  0.72700  Biso   1.000  C
  H17      1.0000 0.04350  0.92800  0.16120  Biso   1.000  H
  H18      1.0000 0.95650  0.92800  0.33880  Biso   1.000  H
  H19      1.0000 0.95650  0.07200  0.83880  Biso   1.000  H
  H20      1.0000 0.04350  0.07200  0.66120  Biso   1.000  H
  C21      1.0000 0.11910  0.01140  0.34380  Biso   1.000  C
  C22      1.0000 0.88090  0.01140  0.15620  Biso   1.000  C
  C23      1.0000 0.88090  0.98860  0.65620  Biso   1.000  C
  C24      1.0000 0.11910  0.98860  0.84380  Biso   1.000  C
  H21      1.0000 0.09050  0.08550  0.35700  Biso   1.000  H
  H22      1.0000 0.90950  0.08550  0.14300  Biso   1.000  H
  H23      1.0000 0.90950  0.91450  0.64300  Biso   1.000  H
  H24      1.0000 0.09050  0.91450  0.85700  Biso   1.000  H
  C25      1.0000 0.19100  0.99400  0.44360  Biso   1.000  C
  C26      1.0000 0.80900  0.99400  0.05640  Biso   1.000  C
  C27      1.0000 0.80900  0.00600  0.55640  Biso   1.000  C
  C28      1.0000 0.19100  0.00600  0.94360  Biso   1.000  C
  H25      1.0000 0.21110  0.05640  0.52360  Biso   1.000  H
  H26      1.0000 0.78890  0.05640  0.97640  Biso   1.000  H
  H27      1.0000 0.78890  0.94360  0.47640  Biso   1.000  H
  H28      1.0000 0.21110  0.94360  0.02360  Biso   1.000  H
  C29      1.0000 0.20960  0.58740  0.60440  Biso   1.000  C
  C30      1.0000 0.79040  0.58740  0.89560  Biso   1.000  C
  C31      1.0000 0.79040  0.41260  0.39560  Biso   1.000  C
  C32      1.0000 0.20960  0.41260  0.10440  Biso   1.000  C
  C33      1.0000 0.17640  0.48880  0.49110  Biso   1.000  C
  C34      1.0000 0.82360  0.48880  0.00890  Biso   1.000  C
  C35      1.0000 0.82360  0.51120  0.50890  Biso   1.000  C
  C36      1.0000 0.17640  0.51120  0.99110  Biso   1.000  C
  H29      1.0000 0.20490  0.41920  0.46890  Biso   1.000  H
  H30      1.0000 0.79510  0.41920  0.03110  Biso   1.000  H
  H31      1.0000 0.79510  0.58080  0.53110  Biso   1.000  H
  H32      1.0000 0.20490  0.58080  0.96890  Biso   1.000  H
  C37      1.0000 0.10530  0.49250  0.41480  Biso   1.000  C
  C38      1.0000 0.89470  0.49250  0.08520  Biso   1.000  C
  C39      1.0000 0.89470  0.50750  0.58520  Biso   1.000  C
  C40      1.0000 0.10530  0.50750  0.91480  Biso   1.000  C
  H33      1.0000 0.08480  0.42670  0.33850  Biso   1.000  H
  H34      1.0000 0.91520  0.42670  0.16150  Biso   1.000  H
  H35      1.0000 0.91520  0.57330  0.66150  Biso   1.000  H
  H36      1.0000 0.08480  0.57330  0.83850  Biso   1.000  H
  C41      1.0000 0.06100  0.59240  0.44640  Biso   1.000  C
  C42      1.0000 0.93900  0.59240  0.05360  Biso   1.000  C
  C43      1.0000 0.93900  0.40760  0.55360  Biso   1.000  C
  C44      1.0000 0.06100  0.40760  0.94640  Biso   1.000  C
  H37      1.0000 0.01070  0.59060  0.39560  Biso   1.000  H
  H38      1.0000 0.98930  0.59060  0.10440  Biso   1.000  H
  H39      1.0000 0.98930  0.40940  0.60440  Biso   1.000  H
  H40      1.0000 0.01070  0.40940  0.89560  Biso   1.000  H
  C45      1.0000 0.09200  0.69540  0.55420  Biso   1.000  C
  C46      1.0000 0.90800  0.69540  0.94580  Biso   1.000  C
  C47      1.0000 0.90800  0.30460  0.44580  Biso   1.000  C
  C48      1.0000 0.09200  0.30460  0.05420  Biso   1.000  C
  H41      1.0000 0.06280  0.76570  0.57260  Biso   1.000  H
  H42      1.0000 0.93720  0.76570  0.92740  Biso   1.000  H
  H43      1.0000 0.93720  0.23430  0.42740  Biso   1.000  H
  H44      1.0000 0.06280  0.23430  0.07260  Biso   1.000  H
  C49      1.0000 0.16530  0.69390  0.63310  Biso   1.000  C
  C50      1.0000 0.83470  0.69390  0.86690  Biso   1.000  C
  C51      1.0000 0.83470  0.30610  0.36690  Biso   1.000  C
  C52      1.0000 0.16530  0.30610  0.13310  Biso   1.000  C
  H45      1.0000 0.18610  0.76280  0.70580  Biso   1.000  H
  H46      1.0000 0.81390  0.76280  0.79420  Biso   1.000  H
  H47      1.0000 0.81390  0.23720  0.29420  Biso   1.000  H
  H48      1.0000 0.18610  0.23720  0.20580  Biso   1.000  H
  O25      1.0000 0.47830  0.40820  0.87740  Biso   1.000  O
  O26      1.0000 0.52170  0.40820  0.62260  Biso   1.000  O
  O27      1.0000 0.52170  0.59180  0.12260  Biso   1.000  O
  O28      1.0000 0.47830  0.59180  0.37740  Biso   1.000  O
