data_image0
_cell_length_a       8.758
_cell_length_b       19.9716
_cell_length_c       20.9905
_cell_angle_alpha    61.727
_cell_angle_beta     83.514
_cell_angle_gamma    77.575

_symmetry_space_group_name_H-M    "P 1"
_symmetry_int_tables_number       1

loop_
  _symmetry_equiv_pos_as_xyz
  'x, y, z'

loop_
  _atom_site_label
  _atom_site_occupancy
  _atom_site_fract_x
  _atom_site_fract_y
  _atom_site_fract_z
  _atom_site_thermal_displace_type
  _atom_site_B_iso_or_equiv
  _atom_site_type_symbol
  Cu1      1.0000 0.91492  0.25186  0.54160  Biso   1.000  Cu
  Cu2      1.0000 0.08508  0.74814  0.45840  Biso   1.000  Cu
  F1       1.0000 0.16050  0.28230  0.56411  Biso   1.000  F
  F2       1.0000 0.83950  0.71770  0.43589  Biso   1.000  F
  F3       1.0000 0.40420  0.26210  0.59970  Biso   1.000  F
  F4       1.0000 0.59580  0.73790  0.40030  Biso   1.000  F
  F5       1.0000 0.34480  0.34320  0.49160  Biso   1.000  F
  F6       1.0000 0.65520  0.65680  0.50840  Biso   1.000  F
  F7       1.0000 0.25040  0.37230  0.57090  Biso   1.000  F
  F8       1.0000 0.74960  0.62770  0.42910  Biso   1.000  F
  B1       1.0000 0.28660  0.31550  0.55720  Biso   1.000  B
  B2       1.0000 0.71340  0.68450  0.44280  Biso   1.000  B
  O1       1.0000 0.09450  0.92690  0.87828  Biso   1.000  O
  O2       1.0000 0.90550  0.07310  0.12172  Biso   1.000  O
  O3       1.0000 0.83360  0.94110  0.87376  Biso   1.000  O
  O4       1.0000 0.16640  0.05890  0.12624  Biso   1.000  O
  O5       1.0000 0.49190  0.94400  0.82356  Biso   1.000  O
  O6       1.0000 0.50810  0.05600  0.17644  Biso   1.000  O
  O7       1.0000 0.61970  0.02970  0.54350  Biso   1.000  O
  O8       1.0000 0.38030  0.97030  0.45650  Biso   1.000  O
  O9       1.0000 0.54320  0.92000  0.62890  Biso   1.000  O
  O10      1.0000 0.45680  0.08000  0.37110  Biso   1.000  O
  O11      1.0000 0.54980  0.75800  0.75113  Biso   1.000  O
  O12      1.0000 0.45020  0.24200  0.24887  Biso   1.000  O
  O13      1.0000 0.14200  0.55480  0.90030  Biso   1.000  O
  O14      1.0000 0.85800  0.44520  0.09970  Biso   1.000  O
  O15      1.0000 0.02980  0.67890  0.83590  Biso   1.000  O
  O16      1.0000 0.97020  0.32110  0.16410  Biso   1.000  O
  O17      1.0000 0.81030  0.71150  0.94689  Biso   1.000  O
  O18      1.0000 0.18970  0.28850  0.05311  Biso   1.000  O
  O19      1.0000 0.42820  0.52830  0.62381  Biso   1.000  O
  O20      1.0000 0.57180  0.47170  0.37619  Biso   1.000  O
  O21      1.0000 0.64950  0.50544  0.68248  Biso   1.000  O
  O22      1.0000 0.35050  0.49456  0.31752  Biso   1.000  O
  O23      1.0000 0.47670  0.36930  0.80730  Biso   1.000  O
  O24      1.0000 0.52330  0.63070  0.19270  Biso   1.000  O
  O25      1.0000 0.03270  0.39310  0.76220  Biso   1.000  O
  O26      1.0000 0.96730  0.60690  0.23780  Biso   1.000  O
  O27      1.0000 0.11870  0.45550  0.81317  Biso   1.000  O
  O28      1.0000 0.88130  0.54450  0.18683  Biso   1.000  O
  O29      1.0000 0.74890  0.51380  0.84920  Biso   1.000  O
  O30      1.0000 0.25110  0.48620  0.15080  Biso   1.000  O
  O31      1.0000 0.90480  0.08610  0.91580  Biso   1.000  O
  O32      1.0000 0.09520  0.91390  0.08420  Biso   1.000  O
  O33      1.0000 0.88430  0.20620  0.81990  Biso   1.000  O
  O34      1.0000 0.11570  0.79380  0.18010  Biso   1.000  O
  O35      1.0000 0.92530  0.25530  0.93718  Biso   1.000  O
  O36      1.0000 0.07470  0.74470  0.06282  Biso   1.000  O
  O37      1.0000 0.69810  0.22545  0.51372  Biso   1.000  O
  O38      1.0000 0.30190  0.77455  0.48628  Biso   1.000  O
  H1       1.0000 0.68550  0.18790  0.51010  Biso   1.000  H
  H2       1.0000 0.31450  0.81210  0.48990  Biso   1.000  H
  H3       1.0000 0.61450  0.24600  0.52420  Biso   1.000  H
  H4       1.0000 0.38550  0.75400  0.47580  Biso   1.000  H
  N1       1.0000 0.93360  0.16240  0.64240  Biso   1.000  N
  N2       1.0000 0.06640  0.83760  0.35760  Biso   1.000  N
  N3       1.0000 0.65350  0.82880  0.88670  Biso   1.000  N
  N4       1.0000 0.34650  0.17120  0.11330  Biso   1.000  N
  N5       1.0000 0.93960  0.81500  0.49640  Biso   1.000  N
  N6       1.0000 0.06040  0.18500  0.50360  Biso   1.000  N
  N7       1.0000 0.51640  0.85180  0.78700  Biso   1.000  N
  N8       1.0000 0.48360  0.14820  0.21300  Biso   1.000  N
  N9       1.0000 0.42910  0.70190  0.97120  Biso   1.000  N
  N10      1.0000 0.57090  0.29810  0.02880  Biso   1.000  N
  N11      1.0000 0.69170  0.73550  0.84560  Biso   1.000  N
  N12      1.0000 0.30830  0.26450  0.15440  Biso   1.000  N
  N13      1.0000 0.79310  0.32030  0.58300  Biso   1.000  N
  N14      1.0000 0.20690  0.67970  0.41700  Biso   1.000  N
  N15      1.0000 0.60840  0.44250  0.82990  Biso   1.000  N
  N16      1.0000 0.39160  0.55750  0.17010  Biso   1.000  N
  N17      1.0000 0.08410  0.65280  0.55570  Biso   1.000  N
  N18      1.0000 0.91590  0.34720  0.44430  Biso   1.000  N
  N19      1.0000 0.84050  0.38430  0.89470  Biso   1.000  N
  N20      1.0000 0.15950  0.61570  0.10530  Biso   1.000  N
  N21      1.0000 0.44990  0.12350  0.83820  Biso   1.000  N
  N22      1.0000 0.55010  0.87650  0.16180  Biso   1.000  N
  N23      1.0000 0.69690  0.31040  0.87500  Biso   1.000  N
  N24      1.0000 0.30310  0.68960  0.12500  Biso   1.000  N
  C1       1.0000 0.07080  0.12650  0.67700  Biso   1.000  C
  C2       1.0000 0.92920  0.87350  0.32300  Biso   1.000  C
  H5       1.0000 0.16190  0.14670  0.65360  Biso   1.000  H
  H6       1.0000 0.83810  0.85330  0.34640  Biso   1.000  H
  C3       1.0000 0.08720  0.06340  0.74330  Biso   1.000  C
  C4       1.0000 0.91280  0.93660  0.25670  Biso   1.000  C
  H7       1.0000 0.18670  0.04060  0.76530  Biso   1.000  H
  H8       1.0000 0.81330  0.95940  0.23470  Biso   1.000  H
  C5       1.0000 0.95600  0.03330  0.77760  Biso   1.000  C
  C6       1.0000 0.04400  0.96670  0.22240  Biso   1.000  C
  C7       1.0000 0.81150  0.06940  0.74470  Biso   1.000  C
  C8       1.0000 0.18850  0.93060  0.25530  Biso   1.000  C
  H9       1.0000 0.71890  0.05040  0.76740  Biso   1.000  H
  H10      1.0000 0.28110  0.94960  0.23260  Biso   1.000  H
  C9       1.0000 0.80720  0.13350  0.67810  Biso   1.000  C
  C10      1.0000 0.19280  0.86650  0.32190  Biso   1.000  C
  H11      1.0000 0.70830  0.15900  0.65590  Biso   1.000  H
  H12      1.0000 0.29170  0.84100  0.34410  Biso   1.000  H
  C11      1.0000 0.97180  0.96150  0.84870  Biso   1.000  C
  C12      1.0000 0.02820  0.03850  0.15130  Biso   1.000  C
  C13      1.0000 0.83360  0.86900  0.93930  Biso   1.000  C
  C14      1.0000 0.16640  0.13100  0.06070  Biso   1.000  C
  H13      1.0000 0.84870  0.87530  0.98200  Biso   1.000  H
  H14      1.0000 0.15130  0.12470  0.01800  Biso   1.000  H
  H15      1.0000 0.91870  0.82830  0.93750  Biso   1.000  H
  H16      1.0000 0.08130  0.17170  0.06250  Biso   1.000  H
  C15      1.0000 0.67780  0.84770  0.94340  Biso   1.000  C
  C16      1.0000 0.32220  0.15230  0.05660  Biso   1.000  C
  H17      1.0000 0.66710  0.80270  0.99100  Biso   1.000  H
  H18      1.0000 0.33290  0.19730  0.00900  Biso   1.000  H
  H19      1.0000 0.59480  0.89140  0.94050  Biso   1.000  H
  H20      1.0000 0.40520  0.10860  0.05950  Biso   1.000  H
  C17      1.0000 0.55030  0.88010  0.83080  Biso   1.000  C
  C18      1.0000 0.44970  0.11990  0.16920  Biso   1.000  C
  C19      1.0000 0.95640  0.88750  0.47650  Biso   1.000  C
  C20      1.0000 0.04360  0.11250  0.52350  Biso   1.000  C
  H21      1.0000 0.04150  0.90630  0.44530  Biso   1.000  H
  H22      1.0000 0.95850  0.09370  0.55470  Biso   1.000  H
  C21      1.0000 0.85670  0.93620  0.49880  Biso   1.000  C
  C22      1.0000 0.14330  0.06380  0.50120  Biso   1.000  C
  H23      1.0000 0.87180  0.98750  0.48250  Biso   1.000  H
  H24      1.0000 0.12820  0.01250  0.51750  Biso   1.000  H
  C23      1.0000 0.73390  0.90860  0.54570  Biso   1.000  C
  C24      1.0000 0.26610  0.09140  0.45430  Biso   1.000  C
  C25      1.0000 0.71360  0.83370  0.56730  Biso   1.000  C
  C26      1.0000 0.28640  0.16630  0.43270  Biso   1.000  C
  H25      1.0000 0.63090  0.81310  0.59930  Biso   1.000  H
  H26      1.0000 0.36910  0.18690  0.40070  Biso   1.000  H
  C27      1.0000 0.81790  0.79030  0.54040  Biso   1.000  C
  C28      1.0000 0.18210  0.20970  0.45960  Biso   1.000  C
  H27      1.0000 0.80250  0.73950  0.55400  Biso   1.000  H
  H28      1.0000 0.19750  0.26050  0.44600  Biso   1.000  H
  C29      1.0000 0.62590  0.96140  0.57130  Biso   1.000  C
  C30      1.0000 0.37410  0.03860  0.42870  Biso   1.000  C
  C31      1.0000 0.44810  0.96110  0.66540  Biso   1.000  C
  C32      1.0000 0.55190  0.03890  0.33460  Biso   1.000  C
  H29      1.0000 0.35910  0.99810  0.63490  Biso   1.000  H
  H30      1.0000 0.64090  0.00190  0.36510  Biso   1.000  H
  H31      1.0000 0.51120  0.98990  0.67640  Biso   1.000  H
  H32      1.0000 0.48880  0.01010  0.32360  Biso   1.000  H
  C33      1.0000 0.39060  0.89960  0.73410  Biso   1.000  C
  C34      1.0000 0.60940  0.10040  0.26590  Biso   1.000  C
  H33      1.0000 0.30740  0.92450  0.75620  Biso   1.000  H
  H34      1.0000 0.69260  0.07550  0.24380  Biso   1.000  H
  H35      1.0000 0.34430  0.86580  0.72220  Biso   1.000  H
  H36      1.0000 0.65570  0.13420  0.27780  Biso   1.000  H
  C35      1.0000 0.58380  0.78030  0.79080  Biso   1.000  C
  C36      1.0000 0.41620  0.21970  0.20920  Biso   1.000  C
  C37      1.0000 0.45720  0.62790  0.98180  Biso   1.000  C
  C38      1.0000 0.54280  0.37210  0.01820  Biso   1.000  C
  H37      1.0000 0.54330  0.59280  0.01080  Biso   1.000  H
  H38      1.0000 0.45670  0.40720  0.98920  Biso   1.000  H
  C39      1.0000 0.36530  0.60150  0.95220  Biso   1.000  C
  C40      1.0000 0.63470  0.39850  0.04780  Biso   1.000  C
  H39      1.0000 0.38780  0.54910  0.96110  Biso   1.000  H
  H40      1.0000 0.61220  0.45090  0.03890  Biso   1.000  H
  C41      1.0000 0.24080  0.65230  0.90950  Biso   1.000  C
  C42      1.0000 0.75920  0.34770  0.09050  Biso   1.000  C
  C43      1.0000 0.21200  0.72880  0.89730  Biso   1.000  C
  C44      1.0000 0.78800  0.27120  0.10270  Biso   1.000  C
  H41      1.0000 0.12830  0.76530  0.86750  Biso   1.000  H
  H42      1.0000 0.87170  0.23470  0.13250  Biso   1.000  H
  C45      1.0000 0.30780  0.75010  0.92940  Biso   1.000  C
  C46      1.0000 0.69220  0.24990  0.07060  Biso   1.000  C
  H43      1.0000 0.28680  0.80210  0.92140  Biso   1.000  H
  H44      1.0000 0.71320  0.19790  0.07860  Biso   1.000  H
  C47      1.0000 0.13450  0.62270  0.88150  Biso   1.000  C
  C48      1.0000 0.86550  0.37730  0.11850  Biso   1.000  C
  C49      1.0000 0.91080  0.65780  0.80990  Biso   1.000  C
  C50      1.0000 0.08920  0.34220  0.19010  Biso   1.000  C
  H45      1.0000 0.94800  0.60550  0.81390  Biso   1.000  H
  H46      1.0000 0.05200  0.39450  0.18610  Biso   1.000  H
  H47      1.0000 0.89020  0.69480  0.75830  Biso   1.000  H
  H48      1.0000 0.10980  0.30520  0.24170  Biso   1.000  H
  C51      1.0000 0.76210  0.65850  0.85360  Biso   1.000  C
  C52      1.0000 0.23790  0.34150  0.14640  Biso   1.000  C
  H49      1.0000 0.68570  0.63900  0.83840  Biso   1.000  H
  H50      1.0000 0.31430  0.36100  0.16160  Biso   1.000  H
  H51      1.0000 0.78490  0.62290  0.90530  Biso   1.000  H
  H52      1.0000 0.21510  0.37710  0.09470  Biso   1.000  H
  C53      1.0000 0.72620  0.75560  0.89600  Biso   1.000  C
  C54      1.0000 0.27380  0.24440  0.10400  Biso   1.000  C
  C55      1.0000 0.85500  0.32930  0.63310  Biso   1.000  C
  C56      1.0000 0.14500  0.67070  0.36690  Biso   1.000  C
  H53      1.0000 0.95130  0.29710  0.65430  Biso   1.000  H
  H54      1.0000 0.04870  0.70290  0.34570  Biso   1.000  H
  C57      1.0000 0.78370  0.38420  0.65560  Biso   1.000  C
  C58      1.0000 0.21630  0.61580  0.34440  Biso   1.000  C
  H55      1.0000 0.83110  0.39030  0.69060  Biso   1.000  H
  H56      1.0000 0.16890  0.60970  0.30940  Biso   1.000  H
  C59      1.0000 0.64070  0.42980  0.62520  Biso   1.000  C
  C60      1.0000 0.35930  0.57020  0.37480  Biso   1.000  C
  C61      1.0000 0.57350  0.41730  0.57680  Biso   1.000  C
  C62      1.0000 0.42650  0.58270  0.42320  Biso   1.000  C
  H57      1.0000 0.47260  0.44510  0.55830  Biso   1.000  H
  H58      1.0000 0.52740  0.55490  0.44170  Biso   1.000  H
  C63      1.0000 0.65400  0.36410  0.55560  Biso   1.000  C
  C64      1.0000 0.34600  0.63590  0.44440  Biso   1.000  C
  H59      1.0000 0.60930  0.35790  0.52000  Biso   1.000  H
  H60      1.0000 0.39070  0.64210  0.48000  Biso   1.000  H
  C65      1.0000 0.55870  0.49290  0.64340  Biso   1.000  C
  C66      1.0000 0.44130  0.50710  0.35660  Biso   1.000  C
  C67      1.0000 0.57780  0.55840  0.71090  Biso   1.000  C
  C68      1.0000 0.42220  0.44160  0.28910  Biso   1.000  C
  H61      1.0000 0.49840  0.59960  0.67690  Biso   1.000  H
  H62      1.0000 0.50160  0.40040  0.32310  Biso   1.000  H
  H63      1.0000 0.65800  0.58300  0.71700  Biso   1.000  H
  H64      1.0000 0.34200  0.41700  0.28300  Biso   1.000  H
  C69      1.0000 0.50120  0.51340  0.78360  Biso   1.000  C
  C70      1.0000 0.49880  0.48660  0.21640  Biso   1.000  C
  H65      1.0000 0.47050  0.54630  0.80810  Biso   1.000  H
  H66      1.0000 0.52950  0.45370  0.19190  Biso   1.000  H
  H67      1.0000 0.40540  0.49960  0.77570  Biso   1.000  H
  H68      1.0000 0.59460  0.50040  0.22430  Biso   1.000  H
  C71      1.0000 0.73450  0.45130  0.85790  Biso   1.000  C
  C72      1.0000 0.26550  0.54870  0.14210  Biso   1.000  C
  C73      1.0000 0.04840  0.58910  0.56030  Biso   1.000  C
  C74      1.0000 0.95160  0.41090  0.43970  Biso   1.000  C
  H69      1.0000 0.02370  0.58930  0.51730  Biso   1.000  H
  H70      1.0000 0.97630  0.41070  0.48270  Biso   1.000  H
  C75      1.0000 0.04590  0.52270  0.62520  Biso   1.000  C
  C76      1.0000 0.95410  0.47730  0.37480  Biso   1.000  C
  H71      1.0000 0.02180  0.47810  0.62610  Biso   1.000  H
  H72      1.0000 0.97820  0.52190  0.37390  Biso   1.000  H
  C77      1.0000 0.07850  0.52130  0.68850  Biso   1.000  C
  C78      1.0000 0.92150  0.47870  0.31150  Biso   1.000  C
  C79      1.0000 0.11670  0.58650  0.68480  Biso   1.000  C
  C80      1.0000 0.88330  0.41350  0.31520  Biso   1.000  C
  H73      1.0000 0.14010  0.58780  0.72720  Biso   1.000  H
  H74      1.0000 0.85990  0.41220  0.27280  Biso   1.000  H
  C81      1.0000 0.11990  0.65060  0.61690  Biso   1.000  C
  C82      1.0000 0.88010  0.34940  0.38310  Biso   1.000  C
  H75      1.0000 0.14900  0.69510  0.61410  Biso   1.000  H
  H76      1.0000 0.85100  0.30490  0.38590  Biso   1.000  H
  C83      1.0000 0.07430  0.44950  0.75780  Biso   1.000  C
  C84      1.0000 0.92570  0.55050  0.24220  Biso   1.000  C
  C85      1.0000 0.12520  0.38710  0.88370  Biso   1.000  C
  C86      1.0000 0.87480  0.61290  0.11630  Biso   1.000  C
  H77      1.0000 0.21380  0.38350  0.91130  Biso   1.000  H
  H78      1.0000 0.78620  0.61650  0.08870  Biso   1.000  H
  H79      1.0000 0.14350  0.34020  0.87690  Biso   1.000  H
  H80      1.0000 0.85650  0.65980  0.12310  Biso   1.000  H
  C87      1.0000 0.97580  0.39050  0.92590  Biso   1.000  C
  C88      1.0000 0.02420  0.60950  0.07410  Biso   1.000  C
  H81      1.0000 0.99050  0.34800  0.97600  Biso   1.000  H
  H82      1.0000 0.00950  0.65200  0.02400  Biso   1.000  H
  H83      1.0000 0.95320  0.43990  0.92840  Biso   1.000  H
  H84      1.0000 0.04680  0.56010  0.07160  Biso   1.000  H
  C89      1.0000 0.82910  0.31210  0.90410  Biso   1.000  C
  C90      1.0000 0.17090  0.68790  0.09590  Biso   1.000  C
  C91      1.0000 0.38650  0.06760  0.89590  Biso   1.000  C
  C92      1.0000 0.61350  0.93240  0.10410  Biso   1.000  C
  H85      1.0000 0.45430  0.02680  0.93220  Biso   1.000  H
  H86      1.0000 0.54570  0.97320  0.06780  Biso   1.000  H
  C93      1.0000 0.23050  0.06770  0.90360  Biso   1.000  C
  C94      1.0000 0.76950  0.93230  0.09640  Biso   1.000  C
  H87      1.0000 0.18870  0.02360  0.93760  Biso   1.000  H
  H88      1.0000 0.81130  0.97640  0.06240  Biso   1.000  H
  C95      1.0000 0.13540  0.13700  0.85790  Biso   1.000  C
  C96      1.0000 0.86460  0.86300  0.14210  Biso   1.000  C
  C97      1.0000 0.20090  0.19770  0.80690  Biso   1.000  C
  C98      1.0000 0.79910  0.80230  0.19310  Biso   1.000  C
  H89      1.0000 0.13370  0.24530  0.77910  Biso   1.000  H
  H90      1.0000 0.86630  0.75470  0.22090  Biso   1.000  H
  C99      1.0000 0.36130  0.19280  0.79400  Biso   1.000  C
  C100     1.0000 0.63870  0.80720  0.20600  Biso   1.000  C
  H91      1.0000 0.40570  0.23450  0.75730  Biso   1.000  H
  H92      1.0000 0.59430  0.76550  0.24270  Biso   1.000  H
  C101     1.0000 0.96880  0.13710  0.87090  Biso   1.000  C
  C102     1.0000 0.03120  0.86290  0.12910  Biso   1.000  C
  C103     1.0000 0.71650  0.21390  0.82980  Biso   1.000  C
  C104     1.0000 0.28350  0.78610  0.17020  Biso   1.000  C
  H93      1.0000 0.68500  0.16470  0.84110  Biso   1.000  H
  H94      1.0000 0.31500  0.83530  0.15890  Biso   1.000  H
  H95      1.0000 0.66470  0.25490  0.78460  Biso   1.000  H
  H96      1.0000 0.33530  0.74510  0.21540  Biso   1.000  H
  C105     1.0000 0.66610  0.23390  0.89020  Biso   1.000  C
  C106     1.0000 0.33390  0.76610  0.10980  Biso   1.000  C
  H97      1.0000 0.55270  0.23380  0.89930  Biso   1.000  H
  H98      1.0000 0.44730  0.76620  0.10070  Biso   1.000  H
  H99      1.0000 0.72170  0.19350  0.93470  Biso   1.000  H
  H100     1.0000 0.27830  0.80650  0.06530  Biso   1.000  H
  C107     1.0000 0.58690  0.37350  0.83460  Biso   1.000  C
  C108     1.0000 0.41310  0.62650  0.16540  Biso   1.000  C
  F9       1.0000 0.99350  0.12380  0.23680  Biso   1.000  F
  F10      1.0000 0.00650  0.87620  0.76320  Biso   1.000  F
  F11      1.0000 0.00490  0.04800  0.35220  Biso   1.000  F
  F12      1.0000 0.99510  0.95200  0.64780  Biso   1.000  F
  F13      1.0000 0.95860  0.16770  0.31610  Biso   1.000  F
  F14      1.0000 0.04140  0.83230  0.68390  Biso   1.000  F
  F15      1.0000 0.16590  0.11250  0.29910  Biso   1.000  F
  F16      1.0000 0.83410  0.88750  0.70090  Biso   1.000  F
  B3       1.0000 0.02380  0.11030  0.30200  Biso   1.000  B
  B4       1.0000 0.97620  0.88970  0.69800  Biso   1.000  B
  O39      1.0000 0.30350  0.69890  0.72580  Biso   1.000  O
  O40      1.0000 0.69650  0.30110  0.27420  Biso   1.000  O
  H101     1.0000 0.21170  0.69840  0.73860  Biso   1.000  H
  H102     1.0000 0.78830  0.30160  0.26140  Biso   1.000  H
  H103     1.0000 0.35440  0.70100  0.75510  Biso   1.000  H
  H104     1.0000 0.64560  0.29900  0.24490  Biso   1.000  H
  O41      1.0000 0.28860  0.84270  0.57130  Biso   1.000  O
  O42      1.0000 0.71140  0.15730  0.42870  Biso   1.000  O
  H105     1.0000 0.36870  0.81070  0.57610  Biso   1.000  H
  H106     1.0000 0.63130  0.18930  0.42390  Biso   1.000  H
  H107     1.0000 0.21720  0.83090  0.55890  Biso   1.000  H
  H108     1.0000 0.78280  0.16910  0.44110  Biso   1.000  H
