data_image0
_cell_length_a       14.3708
_cell_length_b       16.6625
_cell_length_c       20.502
_cell_angle_alpha    90
_cell_angle_beta     107.974
_cell_angle_gamma    90

_symmetry_space_group_name_H-M    "P 1"
_symmetry_int_tables_number       1

loop_
  _symmetry_equiv_pos_as_xyz
  'x, y, z'

loop_
  _atom_site_label
  _atom_site_occupancy
  _atom_site_fract_x
  _atom_site_fract_y
  _atom_site_fract_z
  _atom_site_thermal_displace_type
  _atom_site_B_iso_or_equiv
  _atom_site_type_symbol
  Cu1      1.0000 0.11243  0.30329  0.12091  Biso   1.000  Cu
  Cu2      1.0000 0.38757  0.80329  0.37909  Biso   1.000  Cu
  Cu3      1.0000 0.88757  0.69671  0.87909  Biso   1.000  Cu
  Cu4      1.0000 0.61243  0.19671  0.62091  Biso   1.000  Cu
  S1       1.0000 0.16451  0.34417  0.27829  Biso   1.000  S
  S2       1.0000 0.33549  0.84417  0.22171  Biso   1.000  S
  S3       1.0000 0.83549  0.65583  0.72171  Biso   1.000  S
  S4       1.0000 0.66451  0.15583  0.77829  Biso   1.000  S
  S5       1.0000 0.25921  0.13687  0.17867  Biso   1.000  S
  S6       1.0000 0.24079  0.63687  0.32133  Biso   1.000  S
  S7       1.0000 0.74079  0.86313  0.82133  Biso   1.000  S
  S8       1.0000 0.75921  0.36313  0.67867  Biso   1.000  S
  O1       1.0000 0.72870  0.03145  0.06878  Biso   1.000  O
  O2       1.0000 0.77130  0.53145  0.43122  Biso   1.000  O
  O3       1.0000 0.27130  0.96855  0.93122  Biso   1.000  O
  O4       1.0000 0.22870  0.46855  0.56878  Biso   1.000  O
  O5       1.0000 0.73300  0.03930  0.96063  Biso   1.000  O
  O6       1.0000 0.76700  0.53930  0.53937  Biso   1.000  O
  O7       1.0000 0.26700  0.96070  0.03937  Biso   1.000  O
  O8       1.0000 0.23300  0.46070  0.46063  Biso   1.000  O
  O9       1.0000 0.87520  0.71774  0.21106  Biso   1.000  O
  O10      1.0000 0.62480  0.21774  0.28894  Biso   1.000  O
  O11      1.0000 0.12480  0.28226  0.78894  Biso   1.000  O
  O12      1.0000 0.37520  0.78226  0.71106  Biso   1.000  O
  O13      1.0000 0.03820  0.71610  0.23348  Biso   1.000  O
  O14      1.0000 0.46180  0.21610  0.26652  Biso   1.000  O
  O15      1.0000 0.96180  0.28390  0.76652  Biso   1.000  O
  O16      1.0000 0.53820  0.78390  0.73348  Biso   1.000  O
  O17      1.0000 0.98040  0.04342  0.31625  Biso   1.000  O
  O18      1.0000 0.51960  0.54342  0.18375  Biso   1.000  O
  O19      1.0000 0.01960  0.95658  0.68375  Biso   1.000  O
  O20      1.0000 0.48040  0.45658  0.81625  Biso   1.000  O
  O21      1.0000 0.07880  0.13770  0.29770  Biso   1.000  O
  O22      1.0000 0.42120  0.63770  0.20230  Biso   1.000  O
  O23      1.0000 0.92120  0.86230  0.70230  Biso   1.000  O
  O24      1.0000 0.57880  0.36230  0.79770  Biso   1.000  O
  O25      1.0000 0.69300  0.07710  0.19649  Biso   1.000  O
  O26      1.0000 0.80700  0.57710  0.30351  Biso   1.000  O
  O27      1.0000 0.30700  0.92290  0.80351  Biso   1.000  O
  O28      1.0000 0.19300  0.42290  0.69649  Biso   1.000  O
  O29      1.0000 0.66250  0.80860  0.15458  Biso   1.000  O
  O30      1.0000 0.83750  0.30860  0.34542  Biso   1.000  O
  O31      1.0000 0.33750  0.19140  0.84542  Biso   1.000  O
  O32      1.0000 0.16250  0.69140  0.65458  Biso   1.000  O
  O33      1.0000 0.86480  0.90010  0.35757  Biso   1.000  O
  O34      1.0000 0.63520  0.40010  0.14243  Biso   1.000  O
  O35      1.0000 0.13520  0.09990  0.64243  Biso   1.000  O
  O36      1.0000 0.36480  0.59990  0.85757  Biso   1.000  O
  O37      1.0000 0.22230  0.20343  0.12720  Biso   1.000  O
  O38      1.0000 0.27770  0.70343  0.37280  Biso   1.000  O
  O39      1.0000 0.77770  0.79657  0.87280  Biso   1.000  O
  O40      1.0000 0.72230  0.29657  0.62720  Biso   1.000  O
  O41      1.0000 0.11250  0.29210  0.21633  Biso   1.000  O
  O42      1.0000 0.38750  0.79210  0.28367  Biso   1.000  O
  O43      1.0000 0.88750  0.70790  0.78367  Biso   1.000  O
  O44      1.0000 0.61250  0.20790  0.71633  Biso   1.000  O
  N1       1.0000 0.00030  0.22380  0.09275  Biso   1.000  N
  N2       1.0000 0.49970  0.72380  0.40725  Biso   1.000  N
  N3       1.0000 0.99970  0.77620  0.90725  Biso   1.000  N
  N4       1.0000 0.50030  0.27620  0.59275  Biso   1.000  N
  N5       1.0000 0.90440  0.67700  0.97982  Biso   1.000  N
  N6       1.0000 0.59560  0.17700  0.52018  Biso   1.000  N
  N7       1.0000 0.09560  0.32300  0.02018  Biso   1.000  N
  N8       1.0000 0.40440  0.82300  0.47982  Biso   1.000  N
  N9       1.0000 0.28190  0.88770  0.35403  Biso   1.000  N
  N10      1.0000 0.21810  0.38770  0.14597  Biso   1.000  N
  N11      1.0000 0.71810  0.11230  0.64597  Biso   1.000  N
  N12      1.0000 0.78190  0.61230  0.85403  Biso   1.000  N
  N13      1.0000 0.67810  0.94300  0.17293  Biso   1.000  N
  N14      1.0000 0.82190  0.44300  0.32707  Biso   1.000  N
  N15      1.0000 0.32190  0.05700  0.82707  Biso   1.000  N
  N16      1.0000 0.17810  0.55700  0.67293  Biso   1.000  N
  N17      1.0000 0.76610  0.85250  0.25648  Biso   1.000  N
  N18      1.0000 0.73390  0.35250  0.24352  Biso   1.000  N
  N19      1.0000 0.23390  0.14750  0.74352  Biso   1.000  N
  N20      1.0000 0.26610  0.64750  0.75648  Biso   1.000  N
  N21      1.0000 0.78190  0.99070  0.27741  Biso   1.000  N
  N22      1.0000 0.71810  0.49070  0.22259  Biso   1.000  N
  N23      1.0000 0.21810  0.00930  0.72259  Biso   1.000  N
  N24      1.0000 0.28190  0.50930  0.77741  Biso   1.000  N
  C1       1.0000 0.93130  0.21830  0.12420  Biso   1.000  C
  C2       1.0000 0.56870  0.71830  0.37580  Biso   1.000  C
  C3       1.0000 0.06870  0.78170  0.87580  Biso   1.000  C
  C4       1.0000 0.43130  0.28170  0.62420  Biso   1.000  C
  H1       1.0000 0.93600  0.25230  0.16230  Biso   1.000  H
  H2       1.0000 0.56400  0.75230  0.33770  Biso   1.000  H
  H3       1.0000 0.06400  0.74770  0.83770  Biso   1.000  H
  H4       1.0000 0.43600  0.24770  0.66230  Biso   1.000  H
  C5       1.0000 0.85410  0.16550  0.10360  Biso   1.000  C
  C6       1.0000 0.64590  0.66550  0.39640  Biso   1.000  C
  C7       1.0000 0.14590  0.83450  0.89640  Biso   1.000  C
  C8       1.0000 0.35410  0.33450  0.60360  Biso   1.000  C
  H5       1.0000 0.80730  0.16230  0.12770  Biso   1.000  H
  H6       1.0000 0.69270  0.66230  0.37230  Biso   1.000  H
  H7       1.0000 0.19270  0.83770  0.87230  Biso   1.000  H
  H8       1.0000 0.30730  0.33770  0.62770  Biso   1.000  H
  C9       1.0000 0.84580  0.11680  0.04670  Biso   1.000  C
  C10      1.0000 0.65420  0.61680  0.45330  Biso   1.000  C
  C11      1.0000 0.15420  0.88320  0.95330  Biso   1.000  C
  C12      1.0000 0.34580  0.38320  0.54670  Biso   1.000  C
  C13      1.0000 0.91680  0.12130  0.01430  Biso   1.000  C
  C14      1.0000 0.58320  0.62130  0.48570  Biso   1.000  C
  C15      1.0000 0.08320  0.87870  0.98570  Biso   1.000  C
  C16      1.0000 0.41680  0.37870  0.51430  Biso   1.000  C
  H9       1.0000 0.91300  0.08850  0.97560  Biso   1.000  H
  H10      1.0000 0.58700  0.58850  0.52440  Biso   1.000  H
  H11      1.0000 0.08700  0.91150  0.02440  Biso   1.000  H
  H12      1.0000 0.41300  0.41150  0.47560  Biso   1.000  H
  C17      1.0000 0.99310  0.17400  0.03910  Biso   1.000  C
  C18      1.0000 0.50690  0.67400  0.46090  Biso   1.000  C
  C19      1.0000 0.00690  0.82600  0.96090  Biso   1.000  C
  C20      1.0000 0.49310  0.32600  0.53910  Biso   1.000  C
  H13      1.0000 0.04300  0.17570  0.01760  Biso   1.000  H
  H14      1.0000 0.45700  0.67570  0.48240  Biso   1.000  H
  H15      1.0000 0.95700  0.82430  0.98240  Biso   1.000  H
  H16      1.0000 0.54300  0.32430  0.51760  Biso   1.000  H
  C21      1.0000 0.76410  0.05820  0.02030  Biso   1.000  C
  C22      1.0000 0.73590  0.55820  0.47970  Biso   1.000  C
  C23      1.0000 0.23590  0.94180  0.97970  Biso   1.000  C
  C24      1.0000 0.26410  0.44180  0.52030  Biso   1.000  C
  C25      1.0000 0.65910  0.96600  0.05040  Biso   1.000  C
  C26      1.0000 0.84090  0.46600  0.44960  Biso   1.000  C
  C27      1.0000 0.34090  0.03400  0.94960  Biso   1.000  C
  C28      1.0000 0.15910  0.53400  0.55040  Biso   1.000  C
  H17      1.0000 0.69340  0.91530  0.04730  Biso   1.000  H
  H18      1.0000 0.80660  0.41530  0.45270  Biso   1.000  H
  H19      1.0000 0.30660  0.08470  0.95270  Biso   1.000  H
  H20      1.0000 0.19340  0.58470  0.54730  Biso   1.000  H
  H21      1.0000 0.61020  0.97670  0.00530  Biso   1.000  H
  H22      1.0000 0.88980  0.47670  0.49470  Biso   1.000  H
  H23      1.0000 0.38980  0.02330  0.99470  Biso   1.000  H
  H24      1.0000 0.11020  0.52330  0.50530  Biso   1.000  H
  C29      1.0000 0.60910  0.95920  0.10500  Biso   1.000  C
  C30      1.0000 0.89090  0.45920  0.39500  Biso   1.000  C
  C31      1.0000 0.39090  0.04080  0.89500  Biso   1.000  C
  C32      1.0000 0.10910  0.54080  0.60500  Biso   1.000  C
  H25      1.0000 0.57380  0.00980  0.10670  Biso   1.000  H
  H26      1.0000 0.92620  0.50980  0.39330  Biso   1.000  H
  H27      1.0000 0.42620  0.99020  0.89330  Biso   1.000  H
  H28      1.0000 0.07380  0.49020  0.60670  Biso   1.000  H
  H29      1.0000 0.56030  0.91540  0.09260  Biso   1.000  H
  H30      1.0000 0.93970  0.41540  0.40740  Biso   1.000  H
  H31      1.0000 0.43970  0.08460  0.90740  Biso   1.000  H
  H32      1.0000 0.06030  0.58460  0.59260  Biso   1.000  H
  C33      1.0000 0.78920  0.77020  0.28360  Biso   1.000  C
  C34      1.0000 0.71080  0.27020  0.21640  Biso   1.000  C
  C35      1.0000 0.21080  0.22980  0.71640  Biso   1.000  C
  C36      1.0000 0.28920  0.72980  0.78360  Biso   1.000  C
  H33      1.0000 0.73780  0.73310  0.25680  Biso   1.000  H
  H34      1.0000 0.76220  0.23310  0.24320  Biso   1.000  H
  H35      1.0000 0.26220  0.26690  0.74320  Biso   1.000  H
  H36      1.0000 0.23780  0.76690  0.75680  Biso   1.000  H
  H37      1.0000 0.78860  0.76880  0.33180  Biso   1.000  H
  H38      1.0000 0.71140  0.26880  0.16820  Biso   1.000  H
  H39      1.0000 0.21140  0.23120  0.66820  Biso   1.000  H
  H40      1.0000 0.28860  0.73120  0.83180  Biso   1.000  H
  C37      1.0000 0.88700  0.74130  0.28090  Biso   1.000  C
  C38      1.0000 0.61300  0.24130  0.21910  Biso   1.000  C
  C39      1.0000 0.11300  0.25870  0.71910  Biso   1.000  C
  C40      1.0000 0.38700  0.75870  0.78090  Biso   1.000  C
  H41      1.0000 0.93620  0.78470  0.29510  Biso   1.000  H
  H42      1.0000 0.56380  0.28470  0.20490  Biso   1.000  H
  H43      1.0000 0.06380  0.21530  0.70490  Biso   1.000  H
  H44      1.0000 0.43620  0.71530  0.79510  Biso   1.000  H
  H45      1.0000 0.90950  0.69510  0.31210  Biso   1.000  H
  H46      1.0000 0.59050  0.19510  0.18790  Biso   1.000  H
  H47      1.0000 0.09050  0.30490  0.68790  Biso   1.000  H
  H48      1.0000 0.40950  0.80490  0.81210  Biso   1.000  H
  C41      1.0000 0.95700  0.71040  0.19450  Biso   1.000  C
  C42      1.0000 0.54300  0.21040  0.30550  Biso   1.000  C
  C43      1.0000 0.04300  0.28960  0.80550  Biso   1.000  C
  C44      1.0000 0.45700  0.78960  0.69450  Biso   1.000  C
  C45      1.0000 0.99030  0.65640  0.02520  Biso   1.000  C
  C46      1.0000 0.50970  0.15640  0.47480  Biso   1.000  C
  C47      1.0000 0.00970  0.34360  0.97480  Biso   1.000  C
  C48      1.0000 0.49030  0.84360  0.52520  Biso   1.000  C
  H49      1.0000 0.04050  0.63580  0.00880  Biso   1.000  H
  H50      1.0000 0.45950  0.13580  0.49120  Biso   1.000  H
  H51      1.0000 0.95950  0.36420  0.99120  Biso   1.000  H
  H52      1.0000 0.54050  0.86420  0.50880  Biso   1.000  H
  C49      1.0000 0.00820  0.66420  0.09540  Biso   1.000  C
  C50      1.0000 0.49180  0.16420  0.40460  Biso   1.000  C
  C51      1.0000 0.99180  0.33580  0.90460  Biso   1.000  C
  C52      1.0000 0.50820  0.83580  0.59540  Biso   1.000  C
  H53      1.0000 0.06950  0.64890  0.12660  Biso   1.000  H
  H54      1.0000 0.43050  0.14890  0.37340  Biso   1.000  H
  H55      1.0000 0.93050  0.35110  0.87340  Biso   1.000  H
  H56      1.0000 0.56950  0.85110  0.62660  Biso   1.000  H
  C53      1.0000 0.93520  0.69480  0.11890  Biso   1.000  C
  C54      1.0000 0.56480  0.19480  0.38110  Biso   1.000  C
  C55      1.0000 0.06480  0.30520  0.88110  Biso   1.000  C
  C56      1.0000 0.43520  0.80520  0.61890  Biso   1.000  C
  C57      1.0000 0.84510  0.71240  0.07280  Biso   1.000  C
  C58      1.0000 0.65490  0.21240  0.42720  Biso   1.000  C
  C59      1.0000 0.15490  0.28760  0.92720  Biso   1.000  C
  C60      1.0000 0.34510  0.78760  0.57280  Biso   1.000  C
  H57      1.0000 0.79280  0.73070  0.08810  Biso   1.000  H
  H58      1.0000 0.70720  0.23070  0.41190  Biso   1.000  H
  H59      1.0000 0.20720  0.26930  0.91190  Biso   1.000  H
  H60      1.0000 0.29280  0.76930  0.58810  Biso   1.000  H
  C61      1.0000 0.83310  0.70290  0.00410  Biso   1.000  C
  C62      1.0000 0.66690  0.20290  0.49590  Biso   1.000  C
  C63      1.0000 0.16690  0.29710  0.99590  Biso   1.000  C
  C64      1.0000 0.33310  0.79710  0.50410  Biso   1.000  C
  H61      1.0000 0.77120  0.71520  0.97220  Biso   1.000  H
  H62      1.0000 0.72880  0.21520  0.52780  Biso   1.000  H
  H63      1.0000 0.22880  0.28480  0.02780  Biso   1.000  H
  H64      1.0000 0.27120  0.78480  0.47220  Biso   1.000  H
  C65      1.0000 0.82050  0.05920  0.32350  Biso   1.000  C
  C66      1.0000 0.67950  0.55920  0.17650  Biso   1.000  C
  C67      1.0000 0.17950  0.94080  0.67650  Biso   1.000  C
  C68      1.0000 0.32050  0.44080  0.82350  Biso   1.000  C
  H65      1.0000 0.84520  0.03980  0.37140  Biso   1.000  H
  H66      1.0000 0.65480  0.53980  0.12860  Biso   1.000  H
  H67      1.0000 0.15480  0.96020  0.62860  Biso   1.000  H
  H68      1.0000 0.34520  0.46020  0.87140  Biso   1.000  H
  H69      1.0000 0.76690  0.09780  0.32050  Biso   1.000  H
  H70      1.0000 0.73310  0.59780  0.17950  Biso   1.000  H
  H71      1.0000 0.23310  0.90220  0.67950  Biso   1.000  H
  H72      1.0000 0.26690  0.40220  0.82050  Biso   1.000  H
  C69      1.0000 0.90170  0.10110  0.30520  Biso   1.000  C
  C70      1.0000 0.59830  0.60110  0.19480  Biso   1.000  C
  C71      1.0000 0.09830  0.89890  0.69480  Biso   1.000  C
  C72      1.0000 0.40170  0.39890  0.80520  Biso   1.000  C
  H73      1.0000 0.87920  0.11860  0.25670  Biso   1.000  H
  H74      1.0000 0.62080  0.61860  0.24330  Biso   1.000  H
  H75      1.0000 0.12080  0.88140  0.74330  Biso   1.000  H
  H76      1.0000 0.37920  0.38140  0.75670  Biso   1.000  H
  H77      1.0000 0.92380  0.14890  0.33460  Biso   1.000  H
  H78      1.0000 0.57620  0.64890  0.16540  Biso   1.000  H
  H79      1.0000 0.07620  0.85110  0.66540  Biso   1.000  H
  H80      1.0000 0.42380  0.35110  0.83460  Biso   1.000  H
  C73      1.0000 0.06300  0.06960  0.31050  Biso   1.000  C
  C74      1.0000 0.43700  0.56960  0.18950  Biso   1.000  C
  C75      1.0000 0.93700  0.93040  0.68950  Biso   1.000  C
  C76      1.0000 0.56300  0.43040  0.81050  Biso   1.000  C
  C77      1.0000 0.18670  0.86860  0.33070  Biso   1.000  C
  C78      1.0000 0.31330  0.36860  0.16930  Biso   1.000  C
  C79      1.0000 0.81330  0.13140  0.66930  Biso   1.000  C
  C80      1.0000 0.68670  0.63140  0.83070  Biso   1.000  C
  H81      1.0000 0.16890  0.81360  0.32390  Biso   1.000  H
  H82      1.0000 0.33110  0.31360  0.17610  Biso   1.000  H
  H83      1.0000 0.83110  0.18640  0.67610  Biso   1.000  H
  H84      1.0000 0.66890  0.68640  0.82390  Biso   1.000  H
  C81      1.0000 0.11400  0.92540  0.31620  Biso   1.000  C
  C82      1.0000 0.38600  0.42540  0.18380  Biso   1.000  C
  C83      1.0000 0.88600  0.07460  0.68380  Biso   1.000  C
  C84      1.0000 0.61400  0.57460  0.81620  Biso   1.000  C
  H85      1.0000 0.04720  0.90960  0.30130  Biso   1.000  H
  H86      1.0000 0.45280  0.40960  0.19870  Biso   1.000  H
  H87      1.0000 0.95280  0.09040  0.69870  Biso   1.000  H
  H88      1.0000 0.54720  0.59040  0.80130  Biso   1.000  H
  C85      1.0000 0.13840  0.00470  0.32360  Biso   1.000  C
  C86      1.0000 0.36160  0.50470  0.17640  Biso   1.000  C
  C87      1.0000 0.86160  0.99530  0.67640  Biso   1.000  C
  C88      1.0000 0.63840  0.49530  0.82360  Biso   1.000  C
  C89      1.0000 0.23650  0.02520  0.34410  Biso   1.000  C
  C90      1.0000 0.26350  0.52520  0.15590  Biso   1.000  C
  C91      1.0000 0.76350  0.97480  0.65590  Biso   1.000  C
  C92      1.0000 0.73650  0.47480  0.84410  Biso   1.000  C
  H89      1.0000 0.25580  0.08000  0.34680  Biso   1.000  H
  H90      1.0000 0.24420  0.58000  0.15320  Biso   1.000  H
  H91      1.0000 0.74420  0.92000  0.65320  Biso   1.000  H
  H92      1.0000 0.75580  0.42000  0.84680  Biso   1.000  H
  C93      1.0000 0.30570  0.96520  0.36070  Biso   1.000  C
  C94      1.0000 0.19430  0.46520  0.13930  Biso   1.000  C
  C95      1.0000 0.69430  0.03480  0.63930  Biso   1.000  C
  C96      1.0000 0.80570  0.53480  0.86070  Biso   1.000  C
  H93      1.0000 0.37290  0.97960  0.37750  Biso   1.000  H
  H94      1.0000 0.12710  0.47960  0.12250  Biso   1.000  H
  H95      1.0000 0.62710  0.02040  0.62250  Biso   1.000  H
  H96      1.0000 0.87290  0.52040  0.87750  Biso   1.000  H
  C97      1.0000 0.71590  0.00850  0.21440  Biso   1.000  C
  C98      1.0000 0.78410  0.50850  0.28560  Biso   1.000  C
  C99      1.0000 0.28410  0.99150  0.78560  Biso   1.000  C
  C100     1.0000 0.21590  0.49150  0.71440  Biso   1.000  C
  C101     1.0000 0.69990  0.86340  0.19180  Biso   1.000  C
  C102     1.0000 0.80010  0.36340  0.30820  Biso   1.000  C
  C103     1.0000 0.30010  0.13660  0.80820  Biso   1.000  C
  C104     1.0000 0.19990  0.63660  0.69180  Biso   1.000  C
  C105     1.0000 0.80830  0.91400  0.30130  Biso   1.000  C
  C106     1.0000 0.69170  0.41400  0.19870  Biso   1.000  C
  C107     1.0000 0.19170  0.08600  0.69870  Biso   1.000  C
  C108     1.0000 0.30830  0.58600  0.80130  Biso   1.000  C
  C109     1.0000 0.17380  0.05760  0.15190  Biso   1.000  C
  C110     1.0000 0.32620  0.55760  0.34810  Biso   1.000  C
  C111     1.0000 0.82620  0.94240  0.84810  Biso   1.000  C
  C112     1.0000 0.67380  0.44240  0.65190  Biso   1.000  C
  H97      1.0000 0.11290  0.07180  0.16120  Biso   1.000  H
  H98      1.0000 0.38710  0.57180  0.33880  Biso   1.000  H
  H99      1.0000 0.88710  0.92820  0.83880  Biso   1.000  H
  H100     1.0000 0.61290  0.42820  0.66120  Biso   1.000  H
  H101     1.0000 0.20080  0.00860  0.17710  Biso   1.000  H
  H102     1.0000 0.29920  0.50860  0.32290  Biso   1.000  H
  H103     1.0000 0.79920  0.99140  0.82290  Biso   1.000  H
  H104     1.0000 0.70080  0.49140  0.67710  Biso   1.000  H
  H105     1.0000 0.16030  0.04840  0.10260  Biso   1.000  H
  H106     1.0000 0.33970  0.54840  0.39740  Biso   1.000  H
  H107     1.0000 0.83970  0.95160  0.89740  Biso   1.000  H
  H108     1.0000 0.66030  0.45160  0.60260  Biso   1.000  H
  C113     1.0000 0.35840  0.09380  0.15400  Biso   1.000  C
  C114     1.0000 0.14160  0.59380  0.34600  Biso   1.000  C
  C115     1.0000 0.64160  0.90620  0.84600  Biso   1.000  C
  C116     1.0000 0.85840  0.40620  0.65400  Biso   1.000  C
  H109     1.0000 0.41400  0.13090  0.16600  Biso   1.000  H
  H110     1.0000 0.08600  0.63090  0.33400  Biso   1.000  H
  H111     1.0000 0.58600  0.86910  0.83400  Biso   1.000  H
  H112     1.0000 0.91400  0.36910  0.66600  Biso   1.000  H
  H113     1.0000 0.33700  0.08420  0.10450  Biso   1.000  H
  H114     1.0000 0.16300  0.58420  0.39550  Biso   1.000  H
  H115     1.0000 0.66300  0.91580  0.89550  Biso   1.000  H
  H116     1.0000 0.83700  0.41580  0.60450  Biso   1.000  H
  H117     1.0000 0.37810  0.04280  0.17830  Biso   1.000  H
  H118     1.0000 0.12190  0.54280  0.32170  Biso   1.000  H
  H119     1.0000 0.62190  0.95720  0.82170  Biso   1.000  H
  H120     1.0000 0.87810  0.45720  0.67830  Biso   1.000  H
  C117     1.0000 0.26020  0.28260  0.32940  Biso   1.000  C
  C118     1.0000 0.23980  0.78260  0.17060  Biso   1.000  C
  C119     1.0000 0.73980  0.71740  0.67060  Biso   1.000  C
  C120     1.0000 0.76020  0.21740  0.82940  Biso   1.000  C
  H121     1.0000 0.31240  0.27890  0.30810  Biso   1.000  H
  H122     1.0000 0.18760  0.77890  0.19190  Biso   1.000  H
  H123     1.0000 0.68760  0.72110  0.69190  Biso   1.000  H
  H124     1.0000 0.81240  0.22110  0.80810  Biso   1.000  H
  H125     1.0000 0.23470  0.22890  0.33310  Biso   1.000  H
  H126     1.0000 0.26530  0.72890  0.16690  Biso   1.000  H
  H127     1.0000 0.76530  0.77110  0.66690  Biso   1.000  H
  H128     1.0000 0.73470  0.27110  0.83310  Biso   1.000  H
  H129     1.0000 0.28640  0.30620  0.37530  Biso   1.000  H
  H130     1.0000 0.21360  0.80620  0.12470  Biso   1.000  H
  H131     1.0000 0.71360  0.69380  0.62470  Biso   1.000  H
  H132     1.0000 0.78640  0.19380  0.87530  Biso   1.000  H
  C121     1.0000 0.08470  0.34020  0.32940  Biso   1.000  C
  C122     1.0000 0.41530  0.84020  0.17060  Biso   1.000  C
  C123     1.0000 0.91530  0.65980  0.67060  Biso   1.000  C
  C124     1.0000 0.58470  0.15980  0.82940  Biso   1.000  C
  H133     1.0000 0.02560  0.37150  0.30740  Biso   1.000  H
  H134     1.0000 0.47440  0.87150  0.19260  Biso   1.000  H
  H135     1.0000 0.97440  0.62850  0.69260  Biso   1.000  H
  H136     1.0000 0.52560  0.12850  0.80740  Biso   1.000  H
  H137     1.0000 0.11780  0.36260  0.37490  Biso   1.000  H
  H138     1.0000 0.38220  0.86260  0.12510  Biso   1.000  H
  H139     1.0000 0.88220  0.63740  0.62510  Biso   1.000  H
  H140     1.0000 0.61780  0.13740  0.87490  Biso   1.000  H
  H141     1.0000 0.06660  0.28430  0.33420  Biso   1.000  H
  H142     1.0000 0.43340  0.78430  0.16580  Biso   1.000  H
  H143     1.0000 0.93340  0.71570  0.66580  Biso   1.000  H
  H144     1.0000 0.56660  0.21570  0.83420  Biso   1.000  H
  Cl1      1.0000 0.93426  0.45653  0.15732  Biso   1.000  Cl
  Cl2      1.0000 0.56574  0.95653  0.34268  Biso   1.000  Cl
  Cl3      1.0000 0.06574  0.54347  0.84268  Biso   1.000  Cl
  Cl4      1.0000 0.43426  0.04347  0.65732  Biso   1.000  Cl
  O45      1.0000 0.96620  0.41950  0.10475  Biso   1.000  O
  O46      1.0000 0.53380  0.91950  0.39525  Biso   1.000  O
  O47      1.0000 0.03380  0.58050  0.89525  Biso   1.000  O
  O48      1.0000 0.46620  0.08050  0.60475  Biso   1.000  O
  O49      1.0000 0.89240  0.39630  0.18950  Biso   1.000  O
  O50      1.0000 0.60760  0.89630  0.31050  Biso   1.000  O
  O51      1.0000 0.10760  0.60370  0.81050  Biso   1.000  O
  O52      1.0000 0.39240  0.10370  0.68950  Biso   1.000  O
  O53      1.0000 0.01730  0.49130  0.20630  Biso   1.000  O
  O54      1.0000 0.48270  0.99130  0.29370  Biso   1.000  O
  O55      1.0000 0.98270  0.50870  0.79370  Biso   1.000  O
  O56      1.0000 0.51730  0.00870  0.70630  Biso   1.000  O
  O57      1.0000 0.86450  0.51660  0.12960  Biso   1.000  O
  O58      1.0000 0.63550  0.01660  0.37040  Biso   1.000  O
  O59      1.0000 0.13550  0.48340  0.87040  Biso   1.000  O
  O60      1.0000 0.36450  0.98340  0.62960  Biso   1.000  O
  Cl5      1.0000 0.95132  0.92525  0.13464  Biso   1.000  Cl
  Cl6      1.0000 0.54868  0.42525  0.36536  Biso   1.000  Cl
  Cl7      1.0000 0.04868  0.07475  0.86536  Biso   1.000  Cl
  Cl8      1.0000 0.45132  0.57475  0.63464  Biso   1.000  Cl
  O61      1.0000 0.96510  0.00480  0.16300  Biso   1.000  O
  O62      1.0000 0.53490  0.50480  0.33700  Biso   1.000  O
  O63      1.0000 0.03490  0.99520  0.83700  Biso   1.000  O
  O64      1.0000 0.46510  0.49520  0.66300  Biso   1.000  O
  O65      1.0000 0.90260  0.92960  0.06250  Biso   1.000  O
  O66      1.0000 0.59740  0.42960  0.43750  Biso   1.000  O
  O67      1.0000 0.09740  0.07040  0.93750  Biso   1.000  O
  O68      1.0000 0.40260  0.57040  0.56250  Biso   1.000  O
  O69      1.0000 0.89500  0.88030  0.16780  Biso   1.000  O
  O70      1.0000 0.60500  0.38030  0.33220  Biso   1.000  O
  O71      1.0000 0.10500  0.11970  0.83220  Biso   1.000  O
  O72      1.0000 0.39500  0.61970  0.66780  Biso   1.000  O
  O73      1.0000 0.04450  0.88720  0.14560  Biso   1.000  O
  O74      1.0000 0.45550  0.38720  0.35440  Biso   1.000  O
  O75      1.0000 0.95550  0.11280  0.85440  Biso   1.000  O
  O76      1.0000 0.54450  0.61280  0.64560  Biso   1.000  O
  Cl9      1.0000 0.57466  0.17638  0.02952  Biso   1.000  Cl
  Cl10     1.0000 0.92534  0.67638  0.47048  Biso   1.000  Cl
  Cl11     1.0000 0.42534  0.82362  0.97048  Biso   1.000  Cl
  Cl12     1.0000 0.07466  0.32362  0.52952  Biso   1.000  Cl
  Cl13     1.0000 0.41250  0.24960  0.04400  Biso   1.000  Cl
  Cl14     1.0000 0.08750  0.74960  0.45600  Biso   1.000  Cl
  Cl15     1.0000 0.58750  0.75040  0.95600  Biso   1.000  Cl
  Cl16     1.0000 0.91250  0.25040  0.54400  Biso   1.000  Cl
  C125     1.0000 0.49790  0.25820  0.00060  Biso   1.000  C
  C126     1.0000 0.00210  0.75820  0.49940  Biso   1.000  C
  C127     1.0000 0.50210  0.74180  0.99940  Biso   1.000  C
  C128     1.0000 0.99790  0.24180  0.50060  Biso   1.000  C
  H145     1.0000 0.53440  0.30930  0.01210  Biso   1.000  H
  H146     1.0000 0.96560  0.80930  0.48790  Biso   1.000  H
  H147     1.0000 0.46560  0.69070  0.98790  Biso   1.000  H
  H148     1.0000 0.03440  0.19070  0.51210  Biso   1.000  H
  H149     1.0000 0.46620  0.25550  0.95040  Biso   1.000  H
  H150     1.0000 0.03380  0.75550  0.54960  Biso   1.000  H
  H151     1.0000 0.53380  0.74450  0.04960  Biso   1.000  H
  H152     1.0000 0.96620  0.24450  0.45040  Biso   1.000  H
  Cl17     1.0000 0.42880  0.30220  0.03730  Biso   1.000  Cl
  Cl18     1.0000 0.07120  0.80220  0.46270  Biso   1.000  Cl
  Cl19     1.0000 0.57120  0.69780  0.96270  Biso   1.000  Cl
  Cl20     1.0000 0.92880  0.19780  0.53730  Biso   1.000  Cl
  H153     1.0000 0.54050  0.30090  0.99200  Biso   1.000  H
  H154     1.0000 0.95950  0.80090  0.50800  Biso   1.000  H
  H155     1.0000 0.45950  0.69910  0.00800  Biso   1.000  H
  H156     1.0000 0.04050  0.19910  0.49200  Biso   1.000  H
  H157     1.0000 0.45400  0.24220  0.95500  Biso   1.000  H
  H158     1.0000 0.04600  0.74220  0.54500  Biso   1.000  H
  H159     1.0000 0.54600  0.75780  0.04500  Biso   1.000  H
  H160     1.0000 0.95400  0.25780  0.45500  Biso   1.000  H
  Cl21     1.0000 0.76470  0.83060  0.52423  Biso   1.000  Cl
  Cl22     1.0000 0.73530  0.33060  0.97577  Biso   1.000  Cl
  Cl23     1.0000 0.23530  0.16940  0.47577  Biso   1.000  Cl
  Cl24     1.0000 0.26470  0.66940  0.02423  Biso   1.000  Cl
  Cl25     1.0000 0.88780  0.96700  0.51877  Biso   1.000  Cl
  Cl26     1.0000 0.61220  0.46700  0.98123  Biso   1.000  Cl
  Cl27     1.0000 0.11220  0.03300  0.48123  Biso   1.000  Cl
  Cl28     1.0000 0.38780  0.53300  0.01877  Biso   1.000  Cl
  C129     1.0000 0.77610  0.91770  0.48290  Biso   1.000  C
  C130     1.0000 0.72390  0.41770  0.01710  Biso   1.000  C
  C131     1.0000 0.22390  0.08230  0.51710  Biso   1.000  C
  C132     1.0000 0.27610  0.58230  0.98290  Biso   1.000  C
  H161     1.0000 0.72240  0.95450  0.48370  Biso   1.000  H
  H162     1.0000 0.77760  0.45450  0.01630  Biso   1.000  H
  H163     1.0000 0.27760  0.04550  0.51630  Biso   1.000  H
  H164     1.0000 0.22240  0.54550  0.98370  Biso   1.000  H
  H165     1.0000 0.76860  0.90520  0.43430  Biso   1.000  H
  H166     1.0000 0.73140  0.40520  0.06570  Biso   1.000  H
  H167     1.0000 0.23140  0.09480  0.56570  Biso   1.000  H
  H168     1.0000 0.26860  0.59480  0.93430  Biso   1.000  H
