data_image0
_cell_length_a       7.1005
_cell_length_b       12.0685
_cell_length_c       10.3404
_cell_angle_alpha    90
_cell_angle_beta     102.908
_cell_angle_gamma    90

_symmetry_space_group_name_H-M    "P 1"
_symmetry_int_tables_number       1

loop_
  _symmetry_equiv_pos_as_xyz
  'x, y, z'

loop_
  _atom_site_label
  _atom_site_occupancy
  _atom_site_fract_x
  _atom_site_fract_y
  _atom_site_fract_z
  _atom_site_thermal_displace_type
  _atom_site_B_iso_or_equiv
  _atom_site_type_symbol
  Cu1      1.0000 0.00000  0.00000  0.00000  Biso   1.000  Cu
  Cu2      1.0000 0.50000  0.50000  0.50000  Biso   1.000  Cu
  O1       1.0000 0.20260  0.96018  0.90395  Biso   1.000  O
  O2       1.0000 0.70260  0.53982  0.40395  Biso   1.000  O
  O3       1.0000 0.79740  0.03982  0.09605  Biso   1.000  O
  O4       1.0000 0.29740  0.46018  0.59605  Biso   1.000  O
  N1       1.0000 0.26680  0.85461  0.91200  Biso   1.000  N
  N2       1.0000 0.76680  0.64539  0.41200  Biso   1.000  N
  N3       1.0000 0.73320  0.14539  0.08800  Biso   1.000  N
  N4       1.0000 0.23320  0.35461  0.58800  Biso   1.000  N
  N5       1.0000 0.26830  0.05450  0.19960  Biso   1.000  N
  N6       1.0000 0.76830  0.44550  0.69960  Biso   1.000  N
  N7       1.0000 0.73170  0.94550  0.80040  Biso   1.000  N
  N8       1.0000 0.23170  0.55450  0.30040  Biso   1.000  N
  N9       1.0000 0.51280  0.16050  0.35180  Biso   1.000  N
  N10      1.0000 0.01280  0.33950  0.85180  Biso   1.000  N
  N11      1.0000 0.48720  0.83950  0.64820  Biso   1.000  N
  N12      1.0000 0.98720  0.66050  0.14820  Biso   1.000  N
  N13      1.0000 0.50310  0.35364  0.41883  Biso   1.000  N
  N14      1.0000 0.00310  0.14636  0.91883  Biso   1.000  N
  N15      1.0000 0.49690  0.64636  0.58117  Biso   1.000  N
  N16      1.0000 0.99690  0.85364  0.08117  Biso   1.000  N
  C1       1.0000 0.15510  0.77450  0.84630  Biso   1.000  C
  C2       1.0000 0.65510  0.72550  0.34630  Biso   1.000  C
  C3       1.0000 0.84490  0.22550  0.15370  Biso   1.000  C
  C4       1.0000 0.34490  0.27450  0.65370  Biso   1.000  C
  H1       1.0000 0.03300  0.79190  0.79600  Biso   1.000  H
  H2       1.0000 0.53300  0.70810  0.29600  Biso   1.000  H
  H3       1.0000 0.96700  0.20810  0.20400  Biso   1.000  H
  H4       1.0000 0.46700  0.29190  0.70400  Biso   1.000  H
  C5       1.0000 0.21820  0.66760  0.85210  Biso   1.000  C
  C6       1.0000 0.71820  0.83240  0.35210  Biso   1.000  C
  C7       1.0000 0.78180  0.33240  0.14790  Biso   1.000  C
  C8       1.0000 0.28180  0.16760  0.64790  Biso   1.000  C
  H5       1.0000 0.13840  0.61270  0.80630  Biso   1.000  H
  H6       1.0000 0.63840  0.88730  0.30630  Biso   1.000  H
  H7       1.0000 0.86160  0.38730  0.19370  Biso   1.000  H
  H8       1.0000 0.36160  0.11270  0.69370  Biso   1.000  H
  C9       1.0000 0.39950  0.63994  0.92520  Biso   1.000  C
  C10      1.0000 0.89950  0.86006  0.42520  Biso   1.000  C
  C11      1.0000 0.60050  0.36006  0.07480  Biso   1.000  C
  C12      1.0000 0.10050  0.13994  0.57480  Biso   1.000  C
  C13      1.0000 0.47410  0.52290  0.93240  Biso   1.000  C
  C14      1.0000 0.97410  0.97710  0.43240  Biso   1.000  C
  C15      1.0000 0.52590  0.47710  0.06760  Biso   1.000  C
  C16      1.0000 0.02590  0.02290  0.56760  Biso   1.000  C
  H9       1.0000 0.37620  0.47590  0.87860  Biso   1.000  H
  H10      1.0000 0.87620  0.02410  0.37860  Biso   1.000  H
  H11      1.0000 0.62380  0.52410  0.12140  Biso   1.000  H
  H12      1.0000 0.12380  0.97590  0.62140  Biso   1.000  H
  H13      1.0000 0.58720  0.52060  0.89440  Biso   1.000  H
  H14      1.0000 0.08720  0.97940  0.39440  Biso   1.000  H
  H15      1.0000 0.41280  0.47940  0.10560  Biso   1.000  H
  H16      1.0000 0.91280  0.02060  0.60560  Biso   1.000  H
  C17      1.0000 0.51070  0.72560  0.99130  Biso   1.000  C
  C18      1.0000 0.01070  0.77440  0.49130  Biso   1.000  C
  C19      1.0000 0.48930  0.27440  0.00870  Biso   1.000  C
  C20      1.0000 0.98930  0.22560  0.50870  Biso   1.000  C
  H17      1.0000 0.63370  0.71040  0.04170  Biso   1.000  H
  H18      1.0000 0.13370  0.78960  0.54170  Biso   1.000  H
  H19      1.0000 0.36630  0.28960  0.95830  Biso   1.000  H
  H20      1.0000 0.86630  0.21040  0.45830  Biso   1.000  H
  C21      1.0000 0.44330  0.83190  0.98380  Biso   1.000  C
  C22      1.0000 0.94330  0.66810  0.48380  Biso   1.000  C
  C23      1.0000 0.55670  0.16810  0.01620  Biso   1.000  C
  C24      1.0000 0.05670  0.33190  0.51620  Biso   1.000  C
  H21      1.0000 0.52020  0.88840  0.02880  Biso   1.000  H
  H22      1.0000 0.02020  0.61160  0.52880  Biso   1.000  H
  H23      1.0000 0.47980  0.11160  0.97120  Biso   1.000  H
  H24      1.0000 0.97980  0.38840  0.47120  Biso   1.000  H
  C25      1.0000 0.37550  0.10880  0.27060  Biso   1.000  C
  C26      1.0000 0.87550  0.39120  0.77060  Biso   1.000  C
  C27      1.0000 0.62450  0.89120  0.72940  Biso   1.000  C
  C28      1.0000 0.12450  0.60880  0.22940  Biso   1.000  C
  C29      1.0000 0.49440  0.26430  0.38260  Biso   1.000  C
  C30      1.0000 0.99440  0.23570  0.88260  Biso   1.000  C
  C31      1.0000 0.50560  0.73570  0.61740  Biso   1.000  C
  C32      1.0000 0.00560  0.76430  0.11740  Biso   1.000  C
