data_image0
_cell_length_a       10.8122
_cell_length_b       11.1482
_cell_length_c       31.445
_cell_angle_alpha    90
_cell_angle_beta     90
_cell_angle_gamma    90

_symmetry_space_group_name_H-M    "P 1"
_symmetry_int_tables_number       1

loop_
  _symmetry_equiv_pos_as_xyz
  'x, y, z'

loop_
  _atom_site_label
  _atom_site_occupancy
  _atom_site_fract_x
  _atom_site_fract_y
  _atom_site_fract_z
  _atom_site_thermal_displace_type
  _atom_site_B_iso_or_equiv
  _atom_site_type_symbol
  C1       1.0000 0.10290  0.15830  0.64570  Biso   1.000  C
  C2       1.0000 0.39710  0.84170  0.14570  Biso   1.000  C
  C3       1.0000 0.89710  0.65830  0.85430  Biso   1.000  C
  C4       1.0000 0.60290  0.34170  0.35430  Biso   1.000  C
  C5       1.0000 0.89710  0.84170  0.35430  Biso   1.000  C
  C6       1.0000 0.60290  0.15830  0.85430  Biso   1.000  C
  C7       1.0000 0.10290  0.34170  0.14570  Biso   1.000  C
  C8       1.0000 0.39710  0.65830  0.64570  Biso   1.000  C
  C9       1.0000 0.15340  0.12390  0.68479  Biso   1.000  C
  C10      1.0000 0.34660  0.87610  0.18479  Biso   1.000  C
  C11      1.0000 0.84660  0.62390  0.81521  Biso   1.000  C
  C12      1.0000 0.65340  0.37610  0.31521  Biso   1.000  C
  C13      1.0000 0.84660  0.87610  0.31521  Biso   1.000  C
  C14      1.0000 0.65340  0.12390  0.81521  Biso   1.000  C
  C15      1.0000 0.15340  0.37610  0.18479  Biso   1.000  C
  C16      1.0000 0.34660  0.62390  0.68479  Biso   1.000  C
  H1       1.0000 0.19510  0.17950  0.70210  Biso   1.000  H
  H2       1.0000 0.30490  0.82050  0.20210  Biso   1.000  H
  H3       1.0000 0.80490  0.67950  0.79790  Biso   1.000  H
  H4       1.0000 0.69510  0.32050  0.29790  Biso   1.000  H
  H5       1.0000 0.80490  0.82050  0.29790  Biso   1.000  H
  H6       1.0000 0.69510  0.17950  0.79790  Biso   1.000  H
  H7       1.0000 0.19510  0.32050  0.20210  Biso   1.000  H
  H8       1.0000 0.30490  0.67950  0.70210  Biso   1.000  H
  C17      1.0000 0.14040  0.00820  0.69683  Biso   1.000  C
  C18      1.0000 0.35960  0.99180  0.19683  Biso   1.000  C
  C19      1.0000 0.85960  0.50820  0.80317  Biso   1.000  C
  C20      1.0000 0.64040  0.49180  0.30317  Biso   1.000  C
  C21      1.0000 0.85960  0.99180  0.30317  Biso   1.000  C
  C22      1.0000 0.64040  0.00820  0.80317  Biso   1.000  C
  C23      1.0000 0.14040  0.49180  0.19683  Biso   1.000  C
  C24      1.0000 0.35960  0.50820  0.69683  Biso   1.000  C
  H9       1.0000 0.17500  0.97920  0.72230  Biso   1.000  H
  H10      1.0000 0.32500  0.02080  0.22230  Biso   1.000  H
  H11      1.0000 0.82500  0.47920  0.77770  Biso   1.000  H
  H12      1.0000 0.67500  0.52080  0.27770  Biso   1.000  H
  H13      1.0000 0.82500  0.02080  0.27770  Biso   1.000  H
  H14      1.0000 0.67500  0.97920  0.77770  Biso   1.000  H
  H15      1.0000 0.17500  0.52080  0.22230  Biso   1.000  H
  H16      1.0000 0.32500  0.47920  0.72230  Biso   1.000  H
  C25      1.0000 0.07280  0.93350  0.66953  Biso   1.000  C
  C26      1.0000 0.42720  0.06650  0.16953  Biso   1.000  C
  C27      1.0000 0.92720  0.43350  0.83047  Biso   1.000  C
  C28      1.0000 0.57280  0.56650  0.33047  Biso   1.000  C
  C29      1.0000 0.92720  0.06650  0.33047  Biso   1.000  C
  C30      1.0000 0.57280  0.93350  0.83047  Biso   1.000  C
  C31      1.0000 0.07280  0.56650  0.16953  Biso   1.000  C
  C32      1.0000 0.42720  0.43350  0.66953  Biso   1.000  C
  C33      1.0000 0.94480  0.64830  0.65270  Biso   1.000  C
  C34      1.0000 0.55520  0.35170  0.15270  Biso   1.000  C
  C35      1.0000 0.05520  0.14830  0.84730  Biso   1.000  C
  C36      1.0000 0.44480  0.85170  0.34730  Biso   1.000  C
  C37      1.0000 0.05520  0.35170  0.34730  Biso   1.000  C
  C38      1.0000 0.44480  0.64830  0.84730  Biso   1.000  C
  C39      1.0000 0.94480  0.85170  0.15270  Biso   1.000  C
  C40      1.0000 0.55520  0.14830  0.65270  Biso   1.000  C
  C41      1.0000 0.98300  0.56430  0.68693  Biso   1.000  C
  C42      1.0000 0.51700  0.43570  0.18693  Biso   1.000  C
  C43      1.0000 0.01700  0.06430  0.81307  Biso   1.000  C
  C44      1.0000 0.48300  0.93570  0.31307  Biso   1.000  C
  C45      1.0000 0.01700  0.43570  0.31307  Biso   1.000  C
  C46      1.0000 0.48300  0.56430  0.81307  Biso   1.000  C
  C47      1.0000 0.98300  0.93570  0.18693  Biso   1.000  C
  C48      1.0000 0.51700  0.06430  0.68693  Biso   1.000  C
  H17      1.0000 0.91620  0.55560  0.70730  Biso   1.000  H
  H18      1.0000 0.58380  0.44440  0.20730  Biso   1.000  H
  H19      1.0000 0.08380  0.05560  0.79270  Biso   1.000  H
  H20      1.0000 0.41620  0.94440  0.29270  Biso   1.000  H
  H21      1.0000 0.08380  0.44440  0.29270  Biso   1.000  H
  H22      1.0000 0.41620  0.55560  0.79270  Biso   1.000  H
  H23      1.0000 0.91620  0.94440  0.20730  Biso   1.000  H
  H24      1.0000 0.58380  0.05560  0.70730  Biso   1.000  H
  H25      1.0000 0.05570  0.59560  0.70120  Biso   1.000  H
  H26      1.0000 0.44430  0.40440  0.20120  Biso   1.000  H
  H27      1.0000 0.94430  0.09560  0.79880  Biso   1.000  H
  H28      1.0000 0.55570  0.90440  0.29880  Biso   1.000  H
  H29      1.0000 0.94430  0.40440  0.29880  Biso   1.000  H
  H30      1.0000 0.55570  0.59560  0.79880  Biso   1.000  H
  H31      1.0000 0.05570  0.90440  0.20120  Biso   1.000  H
  H32      1.0000 0.44430  0.09560  0.70120  Biso   1.000  H
  H33      1.0000 0.00220  0.48660  0.67460  Biso   1.000  H
  H34      1.0000 0.49780  0.51340  0.17460  Biso   1.000  H
  H35      1.0000 0.99780  0.98660  0.82540  Biso   1.000  H
  H36      1.0000 0.50220  0.01340  0.32540  Biso   1.000  H
  H37      1.0000 0.99780  0.51340  0.32540  Biso   1.000  H
  H38      1.0000 0.50220  0.48660  0.82540  Biso   1.000  H
  H39      1.0000 0.00220  0.01340  0.17460  Biso   1.000  H
  H40      1.0000 0.49780  0.98660  0.67460  Biso   1.000  H
  C49      1.0000 0.85880  0.61480  0.61827  Biso   1.000  C
  C50      1.0000 0.64120  0.38520  0.11827  Biso   1.000  C
  C51      1.0000 0.14120  0.11480  0.88173  Biso   1.000  C
  C52      1.0000 0.35880  0.88520  0.38173  Biso   1.000  C
  C53      1.0000 0.14120  0.38520  0.38173  Biso   1.000  C
  C54      1.0000 0.35880  0.61480  0.88173  Biso   1.000  C
  C55      1.0000 0.85880  0.88520  0.11827  Biso   1.000  C
  C56      1.0000 0.64120  0.11480  0.61827  Biso   1.000  C
  C57      1.0000 0.79710  0.50660  0.61668  Biso   1.000  C
  C58      1.0000 0.70290  0.49340  0.11668  Biso   1.000  C
  C59      1.0000 0.20290  0.00660  0.88332  Biso   1.000  C
  C60      1.0000 0.29710  0.99340  0.38332  Biso   1.000  C
  C61      1.0000 0.20290  0.49340  0.38332  Biso   1.000  C
  C62      1.0000 0.29710  0.50660  0.88332  Biso   1.000  C
  C63      1.0000 0.79710  0.99340  0.11668  Biso   1.000  C
  C64      1.0000 0.70290  0.00660  0.61668  Biso   1.000  C
  H41      1.0000 0.81570  0.44710  0.63690  Biso   1.000  H
  H42      1.0000 0.68430  0.55290  0.13690  Biso   1.000  H
  H43      1.0000 0.18430  0.94710  0.86310  Biso   1.000  H
  H44      1.0000 0.31570  0.05290  0.36310  Biso   1.000  H
  H45      1.0000 0.18430  0.55290  0.36310  Biso   1.000  H
  H46      1.0000 0.31570  0.44710  0.86310  Biso   1.000  H
  H47      1.0000 0.81570  0.05290  0.13690  Biso   1.000  H
  H48      1.0000 0.68430  0.94710  0.63690  Biso   1.000  H
  C65      1.0000 0.69080  0.56780  0.55771  Biso   1.000  C
  C66      1.0000 0.80920  0.43220  0.05771  Biso   1.000  C
  C67      1.0000 0.30920  0.06780  0.94229  Biso   1.000  C
  C68      1.0000 0.19080  0.93220  0.44229  Biso   1.000  C
  C69      1.0000 0.30920  0.43220  0.44229  Biso   1.000  C
  C70      1.0000 0.19080  0.56780  0.94229  Biso   1.000  C
  C71      1.0000 0.69080  0.93220  0.05771  Biso   1.000  C
  C72      1.0000 0.80920  0.06780  0.55771  Biso   1.000  C
  H49      1.0000 0.63240  0.55340  0.53620  Biso   1.000  H
  H50      1.0000 0.86760  0.44660  0.03620  Biso   1.000  H
  H51      1.0000 0.36760  0.05340  0.96380  Biso   1.000  H
  H52      1.0000 0.13240  0.94660  0.46380  Biso   1.000  H
  H53      1.0000 0.36760  0.44660  0.46380  Biso   1.000  H
  H54      1.0000 0.13240  0.55340  0.96380  Biso   1.000  H
  H55      1.0000 0.63240  0.94660  0.03620  Biso   1.000  H
  H56      1.0000 0.86760  0.05340  0.53620  Biso   1.000  H
  C73      1.0000 0.75450  0.67630  0.55834  Biso   1.000  C
  C74      1.0000 0.74550  0.32370  0.05834  Biso   1.000  C
  C75      1.0000 0.24550  0.17630  0.94166  Biso   1.000  C
  C76      1.0000 0.25450  0.82370  0.44166  Biso   1.000  C
  C77      1.0000 0.24550  0.32370  0.44166  Biso   1.000  C
  C78      1.0000 0.25450  0.67630  0.94166  Biso   1.000  C
  C79      1.0000 0.75450  0.82370  0.05834  Biso   1.000  C
  C80      1.0000 0.74550  0.17630  0.55834  Biso   1.000  C
  H57      1.0000 0.73990  0.73320  0.53690  Biso   1.000  H
  H58      1.0000 0.76010  0.26680  0.03690  Biso   1.000  H
  H59      1.0000 0.26010  0.23320  0.96310  Biso   1.000  H
  H60      1.0000 0.23990  0.76680  0.46310  Biso   1.000  H
  H61      1.0000 0.26010  0.26680  0.46310  Biso   1.000  H
  H62      1.0000 0.23990  0.73320  0.96310  Biso   1.000  H
  H63      1.0000 0.73990  0.76680  0.03690  Biso   1.000  H
  H64      1.0000 0.76010  0.23320  0.53690  Biso   1.000  H
  Cl1      1.0000 0.12431  0.30296  0.62821  Biso   1.000  Cl
  Cl2      1.0000 0.37569  0.69704  0.12821  Biso   1.000  Cl
  Cl3      1.0000 0.87569  0.80296  0.87179  Biso   1.000  Cl
  Cl4      1.0000 0.62431  0.19704  0.37179  Biso   1.000  Cl
  Cl5      1.0000 0.87569  0.69704  0.37179  Biso   1.000  Cl
  Cl6      1.0000 0.62431  0.30296  0.87179  Biso   1.000  Cl
  Cl7      1.0000 0.12431  0.19704  0.12821  Biso   1.000  Cl
  Cl8      1.0000 0.37569  0.80296  0.62821  Biso   1.000  Cl
  Cu1      1.0000 0.92658  0.85487  0.60087  Biso   1.000  Cu
  Cu2      1.0000 0.57342  0.14513  0.10087  Biso   1.000  Cu
  Cu3      1.0000 0.07342  0.35487  0.89913  Biso   1.000  Cu
  Cu4      1.0000 0.42658  0.64513  0.39913  Biso   1.000  Cu
  Cu5      1.0000 0.07342  0.14513  0.39913  Biso   1.000  Cu
  Cu6      1.0000 0.42658  0.85487  0.89913  Biso   1.000  Cu
  Cu7      1.0000 0.92658  0.64513  0.10087  Biso   1.000  Cu
  Cu8      1.0000 0.57342  0.35487  0.60087  Biso   1.000  Cu
  H65      1.0000 0.08710  0.89300  0.54620  Biso   1.000  H
  H66      1.0000 0.41290  0.10700  0.04620  Biso   1.000  H
  H67      1.0000 0.91290  0.39300  0.95380  Biso   1.000  H
  H68      1.0000 0.58710  0.60700  0.45380  Biso   1.000  H
  H69      1.0000 0.91290  0.10700  0.45380  Biso   1.000  H
  H70      1.0000 0.58710  0.89300  0.95380  Biso   1.000  H
  H71      1.0000 0.08710  0.60700  0.04620  Biso   1.000  H
  H72      1.0000 0.41290  0.39300  0.54620  Biso   1.000  H
  N1       1.0000 0.04060  0.08842  0.62052  Biso   1.000  N
  N2       1.0000 0.45940  0.91158  0.12052  Biso   1.000  N
  N3       1.0000 0.95940  0.58842  0.87948  Biso   1.000  N
  N4       1.0000 0.54060  0.41158  0.37948  Biso   1.000  N
  N5       1.0000 0.95940  0.91158  0.37948  Biso   1.000  N
  N6       1.0000 0.54060  0.08842  0.87948  Biso   1.000  N
  N7       1.0000 0.04060  0.41158  0.12052  Biso   1.000  N
  N8       1.0000 0.45940  0.58842  0.62052  Biso   1.000  N
  N9       1.0000 0.02510  0.97370  0.63318  Biso   1.000  N
  N10      1.0000 0.47490  0.02630  0.13318  Biso   1.000  N
  N11      1.0000 0.97490  0.47370  0.86682  Biso   1.000  N
  N12      1.0000 0.52510  0.52630  0.36682  Biso   1.000  N
  N13      1.0000 0.97490  0.02630  0.36682  Biso   1.000  N
  N14      1.0000 0.52510  0.97370  0.86682  Biso   1.000  N
  N15      1.0000 0.02510  0.52630  0.13318  Biso   1.000  N
  N16      1.0000 0.47490  0.47370  0.63318  Biso   1.000  N
  N17      1.0000 0.05386  0.81424  0.67811  Biso   1.000  N
  N18      1.0000 0.44614  0.18576  0.17811  Biso   1.000  N
  N19      1.0000 0.94614  0.31424  0.82189  Biso   1.000  N
  N20      1.0000 0.55386  0.68576  0.32189  Biso   1.000  N
  N21      1.0000 0.94614  0.18576  0.32189  Biso   1.000  N
  N22      1.0000 0.55386  0.81424  0.82189  Biso   1.000  N
  N23      1.0000 0.05386  0.68576  0.17811  Biso   1.000  N
  N24      1.0000 0.44614  0.31424  0.67811  Biso   1.000  N
  H73      1.0000 0.08680  0.77780  0.69980  Biso   1.000  H
  H74      1.0000 0.41320  0.22220  0.19980  Biso   1.000  H
  H75      1.0000 0.91320  0.27780  0.80020  Biso   1.000  H
  H76      1.0000 0.58680  0.72220  0.30020  Biso   1.000  H
  H77      1.0000 0.91320  0.22220  0.30020  Biso   1.000  H
  H78      1.0000 0.58680  0.77780  0.80020  Biso   1.000  H
  H79      1.0000 0.08680  0.72220  0.19980  Biso   1.000  H
  H80      1.0000 0.41320  0.27780  0.69980  Biso   1.000  H
  N25      1.0000 0.97855  0.75809  0.64948  Biso   1.000  N
  N26      1.0000 0.52145  0.24191  0.14948  Biso   1.000  N
  N27      1.0000 0.02145  0.25809  0.85052  Biso   1.000  N
  N28      1.0000 0.47855  0.74191  0.35052  Biso   1.000  N
  N29      1.0000 0.02145  0.24191  0.35052  Biso   1.000  N
  N30      1.0000 0.47855  0.75809  0.85052  Biso   1.000  N
  N31      1.0000 0.97855  0.74191  0.14948  Biso   1.000  N
  N32      1.0000 0.52145  0.25809  0.64948  Biso   1.000  N
  N33      1.0000 0.83549  0.70055  0.58881  Biso   1.000  N
  N34      1.0000 0.66451  0.29945  0.08881  Biso   1.000  N
  N35      1.0000 0.16451  0.20055  0.91119  Biso   1.000  N
  N36      1.0000 0.33549  0.79945  0.41119  Biso   1.000  N
  N37      1.0000 0.16451  0.29945  0.41119  Biso   1.000  N
  N38      1.0000 0.33549  0.70055  0.91119  Biso   1.000  N
  N39      1.0000 0.83549  0.79945  0.08881  Biso   1.000  N
  N40      1.0000 0.66451  0.20055  0.58881  Biso   1.000  N
  N41      1.0000 0.71131  0.48434  0.58702  Biso   1.000  N
  N42      1.0000 0.78869  0.51566  0.08702  Biso   1.000  N
  N43      1.0000 0.28869  0.98434  0.91298  Biso   1.000  N
  N44      1.0000 0.21131  0.01566  0.41298  Biso   1.000  N
  N45      1.0000 0.28869  0.51566  0.41298  Biso   1.000  N
  N46      1.0000 0.21131  0.48434  0.91298  Biso   1.000  N
  N47      1.0000 0.71131  0.01566  0.08702  Biso   1.000  N
  N48      1.0000 0.78869  0.98434  0.58702  Biso   1.000  N
  O1       1.0000 0.01547  0.87857  0.54410  Biso   1.000  O
  O2       1.0000 0.48453  0.12143  0.04410  Biso   1.000  O
  O3       1.0000 0.98453  0.37857  0.95590  Biso   1.000  O
  O4       1.0000 0.51547  0.62143  0.45590  Biso   1.000  O
  O5       1.0000 0.98453  0.12143  0.45590  Biso   1.000  O
  O6       1.0000 0.51547  0.87857  0.95590  Biso   1.000  O
  O7       1.0000 0.01547  0.62143  0.04410  Biso   1.000  O
  O8       1.0000 0.48453  0.37857  0.54410  Biso   1.000  O
  H81      1.0000 0.99620  0.82360  0.52760  Biso   1.000  H
  H82      1.0000 0.50380  0.17640  0.02760  Biso   1.000  H
  H83      1.0000 0.00380  0.32360  0.97240  Biso   1.000  H
  H84      1.0000 0.49620  0.67640  0.47240  Biso   1.000  H
  H85      1.0000 0.00380  0.17640  0.47240  Biso   1.000  H
  H86      1.0000 0.49620  0.82360  0.97240  Biso   1.000  H
  H87      1.0000 0.99620  0.67640  0.02760  Biso   1.000  H
  H88      1.0000 0.50380  0.32360  0.52760  Biso   1.000  H
  Cl9      1.0000 0.17530  0.73434  0.78798  Biso   1.000  Cl
  Cl10     1.0000 0.32470  0.26566  0.28798  Biso   1.000  Cl
  Cl11     1.0000 0.82470  0.23434  0.71202  Biso   1.000  Cl
  Cl12     1.0000 0.67530  0.76566  0.21202  Biso   1.000  Cl
  Cl13     1.0000 0.82470  0.26566  0.21202  Biso   1.000  Cl
  Cl14     1.0000 0.67530  0.73434  0.71202  Biso   1.000  Cl
  Cl15     1.0000 0.17530  0.76566  0.28798  Biso   1.000  Cl
  Cl16     1.0000 0.32470  0.23434  0.78798  Biso   1.000  Cl
  O9       1.0000 0.06430  0.77670  0.76736  Biso   1.000  O
  O10      1.0000 0.43570  0.22330  0.26736  Biso   1.000  O
  O11      1.0000 0.93570  0.27670  0.73264  Biso   1.000  O
  O12      1.0000 0.56430  0.72330  0.23264  Biso   1.000  O
  O13      1.0000 0.93570  0.22330  0.23264  Biso   1.000  O
  O14      1.0000 0.56430  0.77670  0.73264  Biso   1.000  O
  O15      1.0000 0.06430  0.72330  0.26736  Biso   1.000  O
  O16      1.0000 0.43570  0.27670  0.76736  Biso   1.000  O
  O17      1.0000 0.27910  0.79370  0.76994  Biso   1.000  O
  O18      1.0000 0.22090  0.20630  0.26994  Biso   1.000  O
  O19      1.0000 0.72090  0.29370  0.73006  Biso   1.000  O
  O20      1.0000 0.77910  0.70630  0.23006  Biso   1.000  O
  O21      1.0000 0.72090  0.20630  0.23006  Biso   1.000  O
  O22      1.0000 0.77910  0.79370  0.73006  Biso   1.000  O
  O23      1.0000 0.27910  0.70630  0.26994  Biso   1.000  O
  O24      1.0000 0.22090  0.29370  0.76994  Biso   1.000  O
  O25      1.0000 0.16740  0.75990  0.83228  Biso   1.000  O
  O26      1.0000 0.33260  0.24010  0.33228  Biso   1.000  O
  O27      1.0000 0.83260  0.25990  0.66772  Biso   1.000  O
  O28      1.0000 0.66740  0.74010  0.16772  Biso   1.000  O
  O29      1.0000 0.83260  0.24010  0.16772  Biso   1.000  O
  O30      1.0000 0.66740  0.75990  0.66772  Biso   1.000  O
  O31      1.0000 0.16740  0.74010  0.33228  Biso   1.000  O
  O32      1.0000 0.33260  0.25990  0.83228  Biso   1.000  O
  O33      1.0000 0.18680  0.60940  0.78164  Biso   1.000  O
  O34      1.0000 0.31320  0.39060  0.28164  Biso   1.000  O
  O35      1.0000 0.81320  0.10940  0.71836  Biso   1.000  O
  O36      1.0000 0.68680  0.89060  0.21836  Biso   1.000  O
  O37      1.0000 0.81320  0.39060  0.21836  Biso   1.000  O
  O38      1.0000 0.68680  0.60940  0.71836  Biso   1.000  O
  O39      1.0000 0.18680  0.89060  0.28164  Biso   1.000  O
  O40      1.0000 0.31320  0.10940  0.78164  Biso   1.000  O
  Cl17     1.0000 0.32906  0.05652  0.55472  Biso   1.000  Cl
  Cl18     1.0000 0.17094  0.94348  0.05472  Biso   1.000  Cl
  Cl19     1.0000 0.67094  0.55652  0.94528  Biso   1.000  Cl
  Cl20     1.0000 0.82906  0.44348  0.44528  Biso   1.000  Cl
  Cl21     1.0000 0.67094  0.94348  0.44528  Biso   1.000  Cl
  Cl22     1.0000 0.82906  0.05652  0.94528  Biso   1.000  Cl
  Cl23     1.0000 0.32906  0.44348  0.05472  Biso   1.000  Cl
  Cl24     1.0000 0.17094  0.55652  0.55472  Biso   1.000  Cl
  O41      1.0000 0.27370  0.15400  0.53408  Biso   1.000  O
  O42      1.0000 0.22630  0.84600  0.03408  Biso   1.000  O
  O43      1.0000 0.72630  0.65400  0.96592  Biso   1.000  O
  O44      1.0000 0.77370  0.34600  0.46592  Biso   1.000  O
  O45      1.0000 0.72630  0.84600  0.46592  Biso   1.000  O
  O46      1.0000 0.77370  0.15400  0.96592  Biso   1.000  O
  O47      1.0000 0.27370  0.34600  0.03408  Biso   1.000  O
  O48      1.0000 0.22630  0.65400  0.53408  Biso   1.000  O
  O49      1.0000 0.32870  0.07160  0.59932  Biso   1.000  O
  O50      1.0000 0.17130  0.92840  0.09932  Biso   1.000  O
  O51      1.0000 0.67130  0.57160  0.90068  Biso   1.000  O
  O52      1.0000 0.82870  0.42840  0.40068  Biso   1.000  O
  O53      1.0000 0.67130  0.92840  0.40068  Biso   1.000  O
  O54      1.0000 0.82870  0.07160  0.90068  Biso   1.000  O
  O55      1.0000 0.32870  0.42840  0.09932  Biso   1.000  O
  O56      1.0000 0.17130  0.57160  0.59932  Biso   1.000  O
  O57      1.0000 0.26290  0.94910  0.54563  Biso   1.000  O
  O58      1.0000 0.23710  0.05090  0.04563  Biso   1.000  O
  O59      1.0000 0.73710  0.44910  0.95437  Biso   1.000  O
  O60      1.0000 0.76290  0.55090  0.45437  Biso   1.000  O
  O61      1.0000 0.73710  0.05090  0.45437  Biso   1.000  O
  O62      1.0000 0.76290  0.94910  0.95437  Biso   1.000  O
  O63      1.0000 0.26290  0.55090  0.04563  Biso   1.000  O
  O64      1.0000 0.23710  0.44910  0.54563  Biso   1.000  O
  O65      1.0000 0.45420  0.03930  0.54215  Biso   1.000  O
  O66      1.0000 0.04580  0.96070  0.04215  Biso   1.000  O
  O67      1.0000 0.54580  0.53930  0.95785  Biso   1.000  O
  O68      1.0000 0.95420  0.46070  0.45785  Biso   1.000  O
  O69      1.0000 0.54580  0.96070  0.45785  Biso   1.000  O
  O70      1.0000 0.95420  0.03930  0.95785  Biso   1.000  O
  O71      1.0000 0.45420  0.46070  0.04215  Biso   1.000  O
  O72      1.0000 0.04580  0.53930  0.54215  Biso   1.000  O
  H89      1.0000 0.91600  0.75900  0.46530  Biso   1.000  H
  H90      1.0000 0.58400  0.24100  0.96530  Biso   1.000  H
  H91      1.0000 0.08400  0.25900  0.03470  Biso   1.000  H
  H92      1.0000 0.41600  0.74100  0.53470  Biso   1.000  H
  H93      1.0000 0.08400  0.24100  0.53470  Biso   1.000  H
  H94      1.0000 0.41600  0.75900  0.03470  Biso   1.000  H
  H95      1.0000 0.91600  0.74100  0.96530  Biso   1.000  H
  H96      1.0000 0.58400  0.25900  0.46530  Biso   1.000  H
  H97      1.0000 0.98400  0.66200  0.47940  Biso   1.000  H
  H98      1.0000 0.51600  0.33800  0.97940  Biso   1.000  H
  H99      1.0000 0.01600  0.16200  0.02060  Biso   1.000  H
  H100     1.0000 0.48400  0.83800  0.52060  Biso   1.000  H
  H101     1.0000 0.01600  0.33800  0.52060  Biso   1.000  H
  H102     1.0000 0.48400  0.66200  0.02060  Biso   1.000  H
  H103     1.0000 0.98400  0.83800  0.97940  Biso   1.000  H
  H104     1.0000 0.51600  0.16200  0.47940  Biso   1.000  H
  O73      1.0000 0.98140  0.73580  0.47820  Biso   1.000  O
  O74      1.0000 0.51860  0.26420  0.97820  Biso   1.000  O
  O75      1.0000 0.01860  0.23580  0.02180  Biso   1.000  O
  O76      1.0000 0.48140  0.76420  0.52180  Biso   1.000  O
  O77      1.0000 0.01860  0.26420  0.52180  Biso   1.000  O
  O78      1.0000 0.48140  0.73580  0.02180  Biso   1.000  O
  O79      1.0000 0.98140  0.76420  0.97820  Biso   1.000  O
  O80      1.0000 0.51860  0.23580  0.47820  Biso   1.000  O
