data_image0
_cell_length_a       11.912
_cell_length_b       17.828
_cell_length_c       12.673
_cell_angle_alpha    90
_cell_angle_beta     90
_cell_angle_gamma    90

_symmetry_space_group_name_H-M    "P 1"
_symmetry_int_tables_number       1

loop_
  _symmetry_equiv_pos_as_xyz
  'x, y, z'

loop_
  _atom_site_label
  _atom_site_occupancy
  _atom_site_fract_x
  _atom_site_fract_y
  _atom_site_fract_z
  _atom_site_thermal_displace_type
  _atom_site_B_iso_or_equiv
  _atom_site_type_symbol
  Cu1      1.0000 0.11988  0.25067  0.99834  Biso   1.000  Cu
  Cu2      1.0000 0.38012  0.75067  0.99834  Biso   1.000  Cu
  Cu3      1.0000 0.11988  0.24933  0.49834  Biso   1.000  Cu
  Cu4      1.0000 0.38012  0.74933  0.49834  Biso   1.000  Cu
  Cu5      1.0000 0.88012  0.74933  0.00166  Biso   1.000  Cu
  Cu6      1.0000 0.61988  0.24933  0.00166  Biso   1.000  Cu
  Cu7      1.0000 0.88012  0.75067  0.50166  Biso   1.000  Cu
  Cu8      1.0000 0.61988  0.25067  0.50166  Biso   1.000  Cu
  S1       1.0000 0.37190  0.12980  0.26370  Biso   1.000  S
  S2       1.0000 0.12810  0.62980  0.26370  Biso   1.000  S
  S3       1.0000 0.37190  0.37020  0.76370  Biso   1.000  S
  S4       1.0000 0.12810  0.87020  0.76370  Biso   1.000  S
  S5       1.0000 0.62810  0.87020  0.73630  Biso   1.000  S
  S6       1.0000 0.87190  0.37020  0.73630  Biso   1.000  S
  S7       1.0000 0.62810  0.62980  0.23630  Biso   1.000  S
  S8       1.0000 0.87190  0.12980  0.23630  Biso   1.000  S
  O1       1.0000 0.10860  0.34750  0.91710  Biso   1.000  O
  O2       1.0000 0.39140  0.84750  0.91710  Biso   1.000  O
  O3       1.0000 0.10860  0.15250  0.41710  Biso   1.000  O
  O4       1.0000 0.39140  0.65250  0.41710  Biso   1.000  O
  O5       1.0000 0.89140  0.65250  0.08290  Biso   1.000  O
  O6       1.0000 0.60860  0.15250  0.08290  Biso   1.000  O
  O7       1.0000 0.89140  0.84750  0.58290  Biso   1.000  O
  O8       1.0000 0.60860  0.34750  0.58290  Biso   1.000  O
  O9       1.0000 0.19710  0.19530  0.83520  Biso   1.000  O
  O10      1.0000 0.30290  0.69530  0.83520  Biso   1.000  O
  O11      1.0000 0.19710  0.30470  0.33520  Biso   1.000  O
  O12      1.0000 0.30290  0.80470  0.33520  Biso   1.000  O
  O13      1.0000 0.80290  0.80470  0.16480  Biso   1.000  O
  O14      1.0000 0.69710  0.30470  0.16480  Biso   1.000  O
  O15      1.0000 0.80290  0.69530  0.66480  Biso   1.000  O
  O16      1.0000 0.69710  0.19530  0.66480  Biso   1.000  O
  O17      1.0000 0.14240  0.15270  0.07490  Biso   1.000  O
  O18      1.0000 0.35760  0.65270  0.07490  Biso   1.000  O
  O19      1.0000 0.14240  0.34730  0.57490  Biso   1.000  O
  O20      1.0000 0.35760  0.84730  0.57490  Biso   1.000  O
  O21      1.0000 0.85760  0.84730  0.92510  Biso   1.000  O
  O22      1.0000 0.64240  0.34730  0.92510  Biso   1.000  O
  O23      1.0000 0.85760  0.65270  0.42510  Biso   1.000  O
  O24      1.0000 0.64240  0.15270  0.42510  Biso   1.000  O
  O25      1.0000 0.04810  0.30190  0.16240  Biso   1.000  O
  O26      1.0000 0.45190  0.80190  0.16240  Biso   1.000  O
  O27      1.0000 0.04810  0.19810  0.66240  Biso   1.000  O
  O28      1.0000 0.45190  0.69810  0.66240  Biso   1.000  O
  O29      1.0000 0.95190  0.69810  0.83760  Biso   1.000  O
  O30      1.0000 0.54810  0.19810  0.83760  Biso   1.000  O
  O31      1.0000 0.95190  0.80190  0.33760  Biso   1.000  O
  O32      1.0000 0.54810  0.30190  0.33760  Biso   1.000  O
  O33      1.0000 0.37630  0.21140  0.27380  Biso   1.000  O
  O34      1.0000 0.12370  0.71140  0.27380  Biso   1.000  O
  O35      1.0000 0.37630  0.28860  0.77380  Biso   1.000  O
  O36      1.0000 0.12370  0.78860  0.77380  Biso   1.000  O
  O37      1.0000 0.62370  0.78860  0.72620  Biso   1.000  O
  O38      1.0000 0.87630  0.28860  0.72620  Biso   1.000  O
  O39      1.0000 0.62370  0.71140  0.22620  Biso   1.000  O
  O40      1.0000 0.87630  0.21140  0.22620  Biso   1.000  O
  O41      1.0000 0.49070  0.46240  0.39200  Biso   1.000  O
  O42      1.0000 0.00930  0.96240  0.39200  Biso   1.000  O
  O43      1.0000 0.49070  0.03760  0.89200  Biso   1.000  O
  O44      1.0000 0.00930  0.53760  0.89200  Biso   1.000  O
  O45      1.0000 0.50930  0.53760  0.60800  Biso   1.000  O
  O46      1.0000 0.99070  0.03760  0.60800  Biso   1.000  O
  O47      1.0000 0.50930  0.96240  0.10800  Biso   1.000  O
  O48      1.0000 0.99070  0.46240  0.10800  Biso   1.000  O
  O49      1.0000 0.27160  0.45050  0.38650  Biso   1.000  O
  O50      1.0000 0.22840  0.95050  0.38650  Biso   1.000  O
  O51      1.0000 0.27160  0.04950  0.88650  Biso   1.000  O
  O52      1.0000 0.22840  0.54950  0.88650  Biso   1.000  O
  O53      1.0000 0.72840  0.54950  0.61350  Biso   1.000  O
  O54      1.0000 0.77160  0.04950  0.61350  Biso   1.000  O
  O55      1.0000 0.72840  0.95050  0.11350  Biso   1.000  O
  O56      1.0000 0.77160  0.45050  0.11350  Biso   1.000  O
  N1       1.0000 0.43370  0.46710  0.13430  Biso   1.000  N
  N2       1.0000 0.06630  0.96710  0.13430  Biso   1.000  N
  N3       1.0000 0.43370  0.03290  0.63430  Biso   1.000  N
  N4       1.0000 0.06630  0.53290  0.63430  Biso   1.000  N
  N5       1.0000 0.56630  0.53290  0.86570  Biso   1.000  N
  N6       1.0000 0.93370  0.03290  0.86570  Biso   1.000  N
  N7       1.0000 0.56630  0.96710  0.36570  Biso   1.000  N
  N8       1.0000 0.93370  0.46710  0.36570  Biso   1.000  N
  N9       1.0000 0.25560  0.40970  0.10270  Biso   1.000  N
  N10      1.0000 0.24440  0.90970  0.10270  Biso   1.000  N
  N11      1.0000 0.25560  0.09030  0.60270  Biso   1.000  N
  N12      1.0000 0.24440  0.59030  0.60270  Biso   1.000  N
  N13      1.0000 0.74440  0.59030  0.89730  Biso   1.000  N
  N14      1.0000 0.75560  0.09030  0.89730  Biso   1.000  N
  N15      1.0000 0.74440  0.90970  0.39730  Biso   1.000  N
  N16      1.0000 0.75560  0.40970  0.39730  Biso   1.000  N
  N17      1.0000 0.97200  0.21840  0.96400  Biso   1.000  N
  N18      1.0000 0.52800  0.71840  0.96400  Biso   1.000  N
  N19      1.0000 0.97200  0.28160  0.46400  Biso   1.000  N
  N20      1.0000 0.52800  0.78160  0.46400  Biso   1.000  N
  N21      1.0000 0.02800  0.78160  0.03600  Biso   1.000  N
  N22      1.0000 0.47200  0.28160  0.03600  Biso   1.000  N
  N23      1.0000 0.02800  0.71840  0.53600  Biso   1.000  N
  N24      1.0000 0.47200  0.21840  0.53600  Biso   1.000  N
  N25      1.0000 0.27940  0.28140  0.03630  Biso   1.000  N
  N26      1.0000 0.22060  0.78140  0.03630  Biso   1.000  N
  N27      1.0000 0.27940  0.21860  0.53630  Biso   1.000  N
  N28      1.0000 0.22060  0.71860  0.53630  Biso   1.000  N
  N29      1.0000 0.72060  0.71860  0.96370  Biso   1.000  N
  N30      1.0000 0.77940  0.21860  0.96370  Biso   1.000  N
  N31      1.0000 0.72060  0.78140  0.46370  Biso   1.000  N
  N32      1.0000 0.77940  0.28140  0.46370  Biso   1.000  N
  C1       1.0000 0.31790  0.46960  0.13550  Biso   1.000  C
  C2       1.0000 0.18210  0.96960  0.13550  Biso   1.000  C
  C3       1.0000 0.31790  0.03040  0.63550  Biso   1.000  C
  C4       1.0000 0.18210  0.53040  0.63550  Biso   1.000  C
  C5       1.0000 0.68210  0.53040  0.86450  Biso   1.000  C
  C6       1.0000 0.81790  0.03040  0.86450  Biso   1.000  C
  C7       1.0000 0.68210  0.96960  0.36450  Biso   1.000  C
  C8       1.0000 0.81790  0.46960  0.36450  Biso   1.000  C
  C9       1.0000 0.31540  0.34960  0.07120  Biso   1.000  C
  C10      1.0000 0.18460  0.84960  0.07120  Biso   1.000  C
  C11      1.0000 0.31540  0.15040  0.57120  Biso   1.000  C
  C12      1.0000 0.18460  0.65040  0.57120  Biso   1.000  C
  C13      1.0000 0.68460  0.65040  0.92880  Biso   1.000  C
  C14      1.0000 0.81540  0.15040  0.92880  Biso   1.000  C
  C15      1.0000 0.68460  0.84960  0.42880  Biso   1.000  C
  C16      1.0000 0.81540  0.34960  0.42880  Biso   1.000  C
  C17      1.0000 0.93500  0.15070  0.92490  Biso   1.000  C
  C18      1.0000 0.56500  0.65070  0.92490  Biso   1.000  C
  C19      1.0000 0.93500  0.34930  0.42490  Biso   1.000  C
  C20      1.0000 0.56500  0.84930  0.42490  Biso   1.000  C
  C21      1.0000 0.06500  0.84930  0.07510  Biso   1.000  C
  C22      1.0000 0.43500  0.34930  0.07510  Biso   1.000  C
  C23      1.0000 0.06500  0.65070  0.57510  Biso   1.000  C
  C24      1.0000 0.43500  0.15070  0.57510  Biso   1.000  C
  C25      1.0000 0.49310  0.41120  0.11090  Biso   1.000  C
  C26      1.0000 0.00690  0.91120  0.11090  Biso   1.000  C
  C27      1.0000 0.49310  0.08880  0.61090  Biso   1.000  C
  C28      1.0000 0.00690  0.58880  0.61090  Biso   1.000  C
  C29      1.0000 0.50690  0.58880  0.88910  Biso   1.000  C
  C30      1.0000 0.99310  0.08880  0.88910  Biso   1.000  C
  C31      1.0000 0.50690  0.91120  0.38910  Biso   1.000  C
  C32      1.0000 0.99310  0.41120  0.38910  Biso   1.000  C
  C33      1.0000 0.87100  0.25680  0.98610  Biso   1.000  C
  C34      1.0000 0.62900  0.75680  0.98610  Biso   1.000  C
  C35      1.0000 0.87100  0.24320  0.48610  Biso   1.000  C
  C36      1.0000 0.62900  0.74320  0.48610  Biso   1.000  C
  C37      1.0000 0.12900  0.74320  0.01390  Biso   1.000  C
  C38      1.0000 0.37100  0.24320  0.01390  Biso   1.000  C
  C39      1.0000 0.12900  0.75680  0.51390  Biso   1.000  C
  C40      1.0000 0.37100  0.25680  0.51390  Biso   1.000  C
  O57      1.0000 0.42260  0.09890  0.15760  Biso   1.000  O
  O58      1.0000 0.07740  0.59890  0.15760  Biso   1.000  O
  O59      1.0000 0.42260  0.40110  0.65760  Biso   1.000  O
  O60      1.0000 0.07740  0.90110  0.65760  Biso   1.000  O
  O61      1.0000 0.57740  0.90110  0.84240  Biso   1.000  O
  O62      1.0000 0.92260  0.40110  0.84240  Biso   1.000  O
  O63      1.0000 0.57740  0.59890  0.34240  Biso   1.000  O
  O64      1.0000 0.92260  0.09890  0.34240  Biso   1.000  O
  O65      1.0000 0.43140  0.09310  0.34090  Biso   1.000  O
  O66      1.0000 0.06860  0.59310  0.34090  Biso   1.000  O
  O67      1.0000 0.43140  0.40690  0.84090  Biso   1.000  O
  O68      1.0000 0.06860  0.90690  0.84090  Biso   1.000  O
  O69      1.0000 0.56860  0.90690  0.65910  Biso   1.000  O
  O70      1.0000 0.93140  0.40690  0.65910  Biso   1.000  O
  O71      1.0000 0.56860  0.59310  0.15910  Biso   1.000  O
  O72      1.0000 0.93140  0.09310  0.15910  Biso   1.000  O
  O73      1.0000 0.25040  0.11090  0.25830  Biso   1.000  O
  O74      1.0000 0.24960  0.61090  0.25830  Biso   1.000  O
  O75      1.0000 0.25040  0.38910  0.75830  Biso   1.000  O
  O76      1.0000 0.24960  0.88910  0.75830  Biso   1.000  O
  O77      1.0000 0.74960  0.88910  0.74170  Biso   1.000  O
  O78      1.0000 0.75040  0.38910  0.74170  Biso   1.000  O
  O79      1.0000 0.74960  0.61090  0.24170  Biso   1.000  O
  O80      1.0000 0.75040  0.11090  0.24170  Biso   1.000  O
  H1       1.0000 0.50000  0.50000  0.15000  Biso   1.000  H
  H2       1.0000 0.00000  0.00000  0.15000  Biso   1.000  H
  H3       1.0000 0.50000  0.00000  0.65000  Biso   1.000  H
  H4       1.0000 0.00000  0.50000  0.65000  Biso   1.000  H
  H5       1.0000 0.50000  0.50000  0.85000  Biso   1.000  H
  H6       1.0000 0.00000  0.00000  0.85000  Biso   1.000  H
  H7       1.0000 0.50000  0.00000  0.35000  Biso   1.000  H
  H8       1.0000 0.00000  0.50000  0.35000  Biso   1.000  H
  H9       1.0000 0.26000  0.50000  0.15000  Biso   1.000  H
  H10      1.0000 0.24000  0.00000  0.15000  Biso   1.000  H
  H11      1.0000 0.26000  0.00000  0.65000  Biso   1.000  H
  H12      1.0000 0.24000  0.50000  0.65000  Biso   1.000  H
  H13      1.0000 0.74000  0.50000  0.85000  Biso   1.000  H
  H14      1.0000 0.76000  0.00000  0.85000  Biso   1.000  H
  H15      1.0000 0.74000  0.00000  0.35000  Biso   1.000  H
  H16      1.0000 0.76000  0.50000  0.35000  Biso   1.000  H
  H17      1.0000 0.55000  0.41000  0.08000  Biso   1.000  H
  H18      1.0000 0.95000  0.91000  0.08000  Biso   1.000  H
  H19      1.0000 0.55000  0.09000  0.58000  Biso   1.000  H
  H20      1.0000 0.95000  0.59000  0.58000  Biso   1.000  H
  H21      1.0000 0.45000  0.59000  0.92000  Biso   1.000  H
  H22      1.0000 0.05000  0.09000  0.92000  Biso   1.000  H
  H23      1.0000 0.45000  0.91000  0.42000  Biso   1.000  H
  H24      1.0000 0.05000  0.41000  0.42000  Biso   1.000  H
  H25      1.0000 0.87000  0.31000  0.99000  Biso   1.000  H
  H26      1.0000 0.63000  0.81000  0.99000  Biso   1.000  H
  H27      1.0000 0.87000  0.19000  0.49000  Biso   1.000  H
  H28      1.0000 0.63000  0.69000  0.49000  Biso   1.000  H
  H29      1.0000 0.13000  0.69000  0.01000  Biso   1.000  H
  H30      1.0000 0.37000  0.19000  0.01000  Biso   1.000  H
  H31      1.0000 0.13000  0.81000  0.51000  Biso   1.000  H
  H32      1.0000 0.37000  0.31000  0.51000  Biso   1.000  H
  H33      1.0000 0.26000  0.24000  0.83000  Biso   1.000  H
  H34      1.0000 0.24000  0.74000  0.83000  Biso   1.000  H
  H35      1.0000 0.26000  0.26000  0.33000  Biso   1.000  H
  H36      1.0000 0.24000  0.76000  0.33000  Biso   1.000  H
  H37      1.0000 0.74000  0.76000  0.17000  Biso   1.000  H
  H38      1.0000 0.76000  0.26000  0.17000  Biso   1.000  H
  H39      1.0000 0.74000  0.74000  0.67000  Biso   1.000  H
  H40      1.0000 0.76000  0.24000  0.67000  Biso   1.000  H
  H41      1.0000 0.23000  0.15000  0.86000  Biso   1.000  H
  H42      1.0000 0.27000  0.65000  0.86000  Biso   1.000  H
  H43      1.0000 0.23000  0.35000  0.36000  Biso   1.000  H
  H44      1.0000 0.27000  0.85000  0.36000  Biso   1.000  H
  H45      1.0000 0.77000  0.85000  0.14000  Biso   1.000  H
  H46      1.0000 0.73000  0.35000  0.14000  Biso   1.000  H
  H47      1.0000 0.77000  0.65000  0.64000  Biso   1.000  H
  H48      1.0000 0.73000  0.15000  0.64000  Biso   1.000  H
  H49      1.0000 0.05000  0.13000  0.08000  Biso   1.000  H
  H50      1.0000 0.45000  0.63000  0.08000  Biso   1.000  H
  H51      1.0000 0.05000  0.37000  0.58000  Biso   1.000  H
  H52      1.0000 0.45000  0.87000  0.58000  Biso   1.000  H
  H53      1.0000 0.95000  0.87000  0.92000  Biso   1.000  H
  H54      1.0000 0.55000  0.37000  0.92000  Biso   1.000  H
  H55      1.0000 0.95000  0.63000  0.42000  Biso   1.000  H
  H56      1.0000 0.55000  0.13000  0.42000  Biso   1.000  H
  H57      1.0000 0.01000  0.35000  0.15000  Biso   1.000  H
  H58      1.0000 0.49000  0.85000  0.15000  Biso   1.000  H
  H59      1.0000 0.01000  0.15000  0.65000  Biso   1.000  H
  H60      1.0000 0.49000  0.65000  0.65000  Biso   1.000  H
  H61      1.0000 0.99000  0.65000  0.85000  Biso   1.000  H
  H62      1.0000 0.51000  0.15000  0.85000  Biso   1.000  H
  H63      1.0000 0.99000  0.85000  0.35000  Biso   1.000  H
  H64      1.0000 0.51000  0.35000  0.35000  Biso   1.000  H
  H65      1.0000 0.99000  0.26000  0.19000  Biso   1.000  H
  H66      1.0000 0.51000  0.76000  0.19000  Biso   1.000  H
  H67      1.0000 0.99000  0.24000  0.69000  Biso   1.000  H
  H68      1.0000 0.51000  0.74000  0.69000  Biso   1.000  H
  H69      1.0000 0.01000  0.74000  0.81000  Biso   1.000  H
  H70      1.0000 0.49000  0.24000  0.81000  Biso   1.000  H
  H71      1.0000 0.01000  0.76000  0.31000  Biso   1.000  H
  H72      1.0000 0.49000  0.26000  0.31000  Biso   1.000  H
