data_image0
_cell_length_a       7.3479
_cell_length_b       12.2358
_cell_length_c       32.6615
_cell_angle_alpha    90
_cell_angle_beta     91.1491
_cell_angle_gamma    90

_symmetry_space_group_name_H-M    "P 1"
_symmetry_int_tables_number       1

loop_
  _symmetry_equiv_pos_as_xyz
  'x, y, z'

loop_
  _atom_site_label
  _atom_site_occupancy
  _atom_site_fract_x
  _atom_site_fract_y
  _atom_site_fract_z
  _atom_site_thermal_displace_type
  _atom_site_B_iso_or_equiv
  _atom_site_type_symbol
  Cu1      1.0000 0.62376  0.39117  0.17506  Biso   1.000  Cu
  Cu2      1.0000 0.37624  0.89117  0.82494  Biso   1.000  Cu
  Cu3      1.0000 0.03344  0.90450  0.07261  Biso   1.000  Cu
  Cu4      1.0000 0.96656  0.40450  0.92739  Biso   1.000  Cu
  Cu5      1.0000 0.86961  0.92641  0.32440  Biso   1.000  Cu
  Cu6      1.0000 0.13039  0.42641  0.67560  Biso   1.000  Cu
  Cu7      1.0000 0.46296  0.41157  0.42708  Biso   1.000  Cu
  Cu8      1.0000 0.53704  0.91157  0.57292  Biso   1.000  Cu
  N1       1.0000 0.71780  0.23910  0.17760  Biso   1.000  N
  N2       1.0000 0.28220  0.73910  0.82240  Biso   1.000  N
  N3       1.0000 0.90150  0.43720  0.19130  Biso   1.000  N
  N4       1.0000 0.09850  0.93720  0.80870  Biso   1.000  N
  N5       1.0000 0.55390  0.54100  0.16480  Biso   1.000  N
  N6       1.0000 0.44610  0.04100  0.83520  Biso   1.000  N
  N7       1.0000 0.41240  0.71500  0.15220  Biso   1.000  N
  N8       1.0000 0.58760  0.21500  0.84780  Biso   1.000  N
  N9       1.0000 0.15950  0.77780  0.11340  Biso   1.000  N
  N10      1.0000 0.84050  0.27780  0.88660  Biso   1.000  N
  N11      1.0000 0.51770  0.37800  0.23930  Biso   1.000  N
  N12      1.0000 0.48230  0.87800  0.76070  Biso   1.000  N
  N13      1.0000 0.35630  0.34480  0.29940  Biso   1.000  N
  N14      1.0000 0.64370  0.84480  0.70060  Biso   1.000  N
  N15      1.0000 0.05380  0.25980  0.30820  Biso   1.000  N
  N16      1.0000 0.94620  0.75980  0.69180  Biso   1.000  N
  N17      1.0000 0.43770  0.32970  0.13310  Biso   1.000  N
  N18      1.0000 0.56230  0.82970  0.86690  Biso   1.000  N
  N19      1.0000 0.25800  0.23320  0.08770  Biso   1.000  N
  N20      1.0000 0.74200  0.73320  0.91230  Biso   1.000  N
  N21      1.0000 0.20920  0.03310  0.07870  Biso   1.000  N
  N22      1.0000 0.79080  0.53310  0.92130  Biso   1.000  N
  N23      1.0000 0.88260  0.95010  0.11820  Biso   1.000  N
  N24      1.0000 0.11740  0.45010  0.88180  Biso   1.000  N
  N25      1.0000 0.78100  0.83730  0.05310  Biso   1.000  N
  N26      1.0000 0.21900  0.33730  0.94690  Biso   1.000  N
  N27      1.0000 0.15280  0.85190  0.02560  Biso   1.000  N
  N28      1.0000 0.84720  0.35190  0.97440  Biso   1.000  N
  N29      1.0000 0.31910  0.81540  0.96560  Biso   1.000  N
  N30      1.0000 0.68090  0.31540  0.03440  Biso   1.000  N
  N31      1.0000 0.22900  0.67590  0.90700  Biso   1.000  N
  N32      1.0000 0.77100  0.17590  0.09300  Biso   1.000  N
  N33      1.0000 0.77570  0.07400  0.31610  Biso   1.000  N
  N34      1.0000 0.22430  0.57400  0.68390  Biso   1.000  N
  N35      1.0000 0.60300  0.87890  0.31250  Biso   1.000  N
  N36      1.0000 0.39700  0.37890  0.68750  Biso   1.000  N
  N37      1.0000 0.95420  0.77310  0.33790  Biso   1.000  N
  N38      1.0000 0.04580  0.27310  0.66210  Biso   1.000  N
  N39      1.0000 0.10260  0.60090  0.34150  Biso   1.000  N
  N40      1.0000 0.89740  0.10090  0.65850  Biso   1.000  N
  N41      1.0000 0.34860  0.53700  0.38850  Biso   1.000  N
  N42      1.0000 0.65140  0.03700  0.61150  Biso   1.000  N
  N43      1.0000 0.00470  0.93190  0.26920  Biso   1.000  N
  N44      1.0000 0.99530  0.43190  0.73080  Biso   1.000  N
  N45      1.0000 0.13110  0.97700  0.19820  Biso   1.000  N
  N46      1.0000 0.86890  0.47700  0.80180  Biso   1.000  N
  N47      1.0000 0.41000  0.07300  0.19270  Biso   1.000  N
  N48      1.0000 0.59000  0.57300  0.80730  Biso   1.000  N
  N49      1.0000 0.07140  0.98230  0.35780  Biso   1.000  N
  N50      1.0000 0.92860  0.48230  0.64220  Biso   1.000  N
  N51      1.0000 0.21860  0.09160  0.41490  Biso   1.000  N
  N52      1.0000 0.78140  0.59160  0.58510  Biso   1.000  N
  N53      1.0000 0.30900  0.28130  0.42000  Biso   1.000  N
  N54      1.0000 0.69100  0.78130  0.58000  Biso   1.000  N
  N55      1.0000 0.59690  0.35180  0.38070  Biso   1.000  N
  N56      1.0000 0.40310  0.85180  0.61930  Biso   1.000  N
  N57      1.0000 0.70310  0.47020  0.45080  Biso   1.000  N
  N58      1.0000 0.29690  0.97020  0.54920  Biso   1.000  N
  N59      1.0000 0.32900  0.45900  0.47710  Biso   1.000  N
  N60      1.0000 0.67100  0.95900  0.52290  Biso   1.000  N
  N61      1.0000 0.19210  0.50800  0.54190  Biso   1.000  N
  N62      1.0000 0.80790  0.00800  0.45810  Biso   1.000  N
  N63      1.0000 0.29800  0.62550  0.59230  Biso   1.000  N
  N64      1.0000 0.70200  0.12550  0.40770  Biso   1.000  N
  C1       1.0000 0.88450  0.24750  0.20480  Biso   1.000  C
  C2       1.0000 0.11550  0.74750  0.79520  Biso   1.000  C
  C3       1.0000 0.00500  0.32720  0.19030  Biso   1.000  C
  C4       1.0000 0.99500  0.82720  0.80970  Biso   1.000  C
  C5       1.0000 0.97860  0.50190  0.15560  Biso   1.000  C
  C6       1.0000 0.02140  0.00190  0.84440  Biso   1.000  C
  C7       1.0000 0.93400  0.46150  0.11410  Biso   1.000  C
  C8       1.0000 0.06600  0.96150  0.88590  Biso   1.000  C
  C9       1.0000 0.90300  0.48170  0.23420  Biso   1.000  C
  C10      1.0000 0.09700  0.98170  0.76580  Biso   1.000  C
  C11      1.0000 0.06600  0.55350  0.24290  Biso   1.000  C
  C12      1.0000 0.93400  0.05350  0.75710  Biso   1.000  C
  C13      1.0000 0.47110  0.61680  0.16070  Biso   1.000  C
  C14      1.0000 0.52890  0.11680  0.83930  Biso   1.000  C
  C15      1.0000 0.27000  0.74380  0.13160  Biso   1.000  C
  C16      1.0000 0.73000  0.24380  0.86840  Biso   1.000  C
  C17      1.0000 0.43850  0.36160  0.26790  Biso   1.000  C
  C18      1.0000 0.56150  0.86160  0.73210  Biso   1.000  C
  C19      1.0000 0.19130  0.28610  0.30070  Biso   1.000  C
  C20      1.0000 0.80870  0.78610  0.69930  Biso   1.000  C
  C21      1.0000 0.35720  0.27940  0.11900  Biso   1.000  C
  C22      1.0000 0.64280  0.77940  0.88100  Biso   1.000  C
  C23      1.0000 0.23680  0.12080  0.08510  Biso   1.000  C
  C24      1.0000 0.76320  0.62080  0.91490  Biso   1.000  C
  C25      1.0000 0.71800  0.90240  0.11700  Biso   1.000  C
  C26      1.0000 0.28200  0.40240  0.88300  Biso   1.000  C
  C27      1.0000 0.62800  0.88810  0.08180  Biso   1.000  C
  C28      1.0000 0.37200  0.38810  0.91820  Biso   1.000  C
  C29      1.0000 0.75530  0.86990  0.00610  Biso   1.000  C
  C30      1.0000 0.24470  0.36990  0.99390  Biso   1.000  C
  C31      1.0000 0.78900  0.99050  0.99610  Biso   1.000  C
  C32      1.0000 0.21100  0.49050  0.00390  Biso   1.000  C
  C33      1.0000 0.80670  0.72420  0.05450  Biso   1.000  C
  C34      1.0000 0.19330  0.22420  0.94550  Biso   1.000  C
  C35      1.0000 0.63100  0.65090  0.04140  Biso   1.000  C
  C36      1.0000 0.36900  0.15090  0.95860  Biso   1.000  C
  C37      1.0000 0.22530  0.82650  0.99050  Biso   1.000  C
  C38      1.0000 0.77470  0.32650  0.00950  Biso   1.000  C
  C39      1.0000 0.24760  0.74280  0.93220  Biso   1.000  C
  C40      1.0000 0.75240  0.24280  0.06780  Biso   1.000  C
  C41      1.0000 0.61300  0.07960  0.28990  Biso   1.000  C
  C42      1.0000 0.38700  0.57960  0.71010  Biso   1.000  C
  C43      1.0000 0.49860  0.98170  0.30650  Biso   1.000  C
  C44      1.0000 0.50140  0.48170  0.69350  Biso   1.000  C
  C45      1.0000 0.52660  0.80700  0.34300  Biso   1.000  C
  C46      1.0000 0.47340  0.30700  0.65700  Biso   1.000  C
  C47      1.0000 0.54700  0.84070  0.38640  Biso   1.000  C
  C48      1.0000 0.45300  0.34070  0.61360  Biso   1.000  C
  C49      1.0000 0.59700  0.80390  0.27630  Biso   1.000  C
  C50      1.0000 0.40300  0.30390  0.72370  Biso   1.000  C
  C51      1.0000 0.42400  0.73300  0.26910  Biso   1.000  C
  C52      1.0000 0.57600  0.23300  0.73090  Biso   1.000  C
  C53      1.0000 0.02300  0.69430  0.34270  Biso   1.000  C
  C54      1.0000 0.97700  0.19430  0.65730  Biso   1.000  C
  C55      1.0000 0.22870  0.57520  0.36730  Biso   1.000  C
  C56      1.0000 0.77130  0.07520  0.63270  Biso   1.000  C
  C57      1.0000 0.07370  0.95770  0.23750  Biso   1.000  C
  C58      1.0000 0.92630  0.45770  0.76250  Biso   1.000  C
  C59      1.0000 0.28940  0.01990  0.19620  Biso   1.000  C
  C60      1.0000 0.71060  0.51990  0.80380  Biso   1.000  C
  C61      1.0000 0.13900  0.03770  0.38930  Biso   1.000  C
  C62      1.0000 0.86100  0.53770  0.61070  Biso   1.000  C
  C63      1.0000 0.25670  0.18810  0.41440  Biso   1.000  C
  C64      1.0000 0.74330  0.68810  0.58560  Biso   1.000  C
  C65      1.0000 0.77480  0.42540  0.37520  Biso   1.000  C
  C66      1.0000 0.22520  0.92540  0.62480  Biso   1.000  C
  C67      1.0000 0.82440  0.42690  0.42380  Biso   1.000  C
  C68      1.0000 0.17560  0.92690  0.57620  Biso   1.000  C
  C69      1.0000 0.77140  0.43290  0.48720  Biso   1.000  C
  C70      1.0000 0.22860  0.93290  0.51280  Biso   1.000  C
  C71      1.0000 0.73110  0.31300  0.49850  Biso   1.000  C
  C72      1.0000 0.26890  0.81300  0.50150  Biso   1.000  C
  C73      1.0000 0.70920  0.59750  0.44600  Biso   1.000  C
  C74      1.0000 0.29080  0.09750  0.55400  Biso   1.000  C
  C75      1.0000 0.86400  0.65210  0.46800  Biso   1.000  C
  C76      1.0000 0.13600  0.15210  0.53200  Biso   1.000  C
  C77      1.0000 0.27830  0.48210  0.50290  Biso   1.000  C
  C78      1.0000 0.72170  0.98210  0.49710  Biso   1.000  C
  C79      1.0000 0.23270  0.57850  0.56310  Biso   1.000  C
  C80      1.0000 0.76730  0.07850  0.43690  Biso   1.000  C
  C81      1.0000 0.68100  0.74400  0.25590  Biso   1.000  C
  C82      1.0000 0.31900  0.24400  0.74410  Biso   1.000  C
  H1       1.0000 0.63070  0.19150  0.18920  Biso   1.000  H
  H2       1.0000 0.36930  0.69150  0.81080  Biso   1.000  H
  H3       1.0000 0.74800  0.21360  0.15120  Biso   1.000  H
  H4       1.0000 0.25200  0.71360  0.84880  Biso   1.000  H
  H5       1.0000 0.94300  0.93090  0.14320  Biso   1.000  H
  H6       1.0000 0.05700  0.43090  0.85680  Biso   1.000  H
  H7       1.0000 0.86710  0.02710  0.11700  Biso   1.000  H
  H8       1.0000 0.13290  0.52710  0.88300  Biso   1.000  H
  H9       1.0000 0.74700  0.10360  0.34210  Biso   1.000  H
  H10      1.0000 0.25300  0.60360  0.65790  Biso   1.000  H
  H11      1.0000 0.86820  0.11690  0.30400  Biso   1.000  H
  H12      1.0000 0.13180  0.61690  0.69600  Biso   1.000  H
  H13      1.0000 0.63110  0.27830  0.38620  Biso   1.000  H
  H14      1.0000 0.36890  0.77830  0.61380  Biso   1.000  H
  H15      1.0000 0.52310  0.35430  0.35650  Biso   1.000  H
  H16      1.0000 0.47690  0.85430  0.64350  Biso   1.000  H
  H17      1.0000 0.84920  0.26680  0.23160  Biso   1.000  H
  H18      1.0000 0.15080  0.76680  0.76840  Biso   1.000  H
  H19      1.0000 0.94460  0.17870  0.20550  Biso   1.000  H
  H20      1.0000 0.05540  0.67870  0.79450  Biso   1.000  H
  H21      1.0000 0.03820  0.31050  0.16310  Biso   1.000  H
  H22      1.0000 0.96180  0.81050  0.83690  Biso   1.000  H
  H23      1.0000 0.11060  0.33060  0.20740  Biso   1.000  H
  H24      1.0000 0.88940  0.83060  0.79260  Biso   1.000  H
  H25      1.0000 0.93400  0.57460  0.15730  Biso   1.000  H
  H26      1.0000 0.06600  0.07460  0.84270  Biso   1.000  H
  H27      1.0000 0.10740  0.50230  0.15870  Biso   1.000  H
  H28      1.0000 0.89260  0.00230  0.84130  Biso   1.000  H
  H29      1.0000 0.02670  0.41270  0.10560  Biso   1.000  H
  H30      1.0000 0.97330  0.91270  0.89440  Biso   1.000  H
  H31      1.0000 0.92630  0.52130  0.09560  Biso   1.000  H
  H32      1.0000 0.07370  0.02130  0.90440  Biso   1.000  H
  H33      1.0000 0.82080  0.42420  0.11430  Biso   1.000  H
  H34      1.0000 0.17920  0.92420  0.88570  Biso   1.000  H
  H35      1.0000 0.79530  0.52290  0.23800  Biso   1.000  H
  H36      1.0000 0.20470  0.02290  0.76200  Biso   1.000  H
  H37      1.0000 0.90640  0.42200  0.25280  Biso   1.000  H
  H38      1.0000 0.09360  0.92200  0.74720  Biso   1.000  H
  H39      1.0000 0.15580  0.51340  0.25770  Biso   1.000  H
  H40      1.0000 0.84420  0.01340  0.74230  Biso   1.000  H
  H41      1.0000 0.02890  0.61470  0.25860  Biso   1.000  H
  H42      1.0000 0.97110  0.11470  0.74140  Biso   1.000  H
  H43      1.0000 0.11410  0.57820  0.21780  Biso   1.000  H
  H44      1.0000 0.88590  0.07820  0.78220  Biso   1.000  H
  H45      1.0000 0.73290  0.83190  0.12880  Biso   1.000  H
  H46      1.0000 0.26710  0.33190  0.87120  Biso   1.000  H
  H47      1.0000 0.64180  0.94540  0.13370  Biso   1.000  H
  H48      1.0000 0.35820  0.44540  0.86630  Biso   1.000  H
  H49      1.0000 0.58400  0.95560  0.07110  Biso   1.000  H
  H50      1.0000 0.41600  0.45560  0.92890  Biso   1.000  H
  H51      1.0000 0.52910  0.83890  0.08470  Biso   1.000  H
  H52      1.0000 0.47090  0.33890  0.91530  Biso   1.000  H
  H53      1.0000 0.83750  0.82740  0.99060  Biso   1.000  H
  H54      1.0000 0.16250  0.32740  0.00940  Biso   1.000  H
  H55      1.0000 0.63390  0.85280  0.99780  Biso   1.000  H
  H56      1.0000 0.36610  0.35280  0.00220  Biso   1.000  H
  H57      1.0000 0.68080  0.03090  0.00010  Biso   1.000  H
  H58      1.0000 0.31920  0.53090  0.99990  Biso   1.000  H
  H59      1.0000 0.82550  0.99730  0.96850  Biso   1.000  H
  H60      1.0000 0.17450  0.49730  0.03150  Biso   1.000  H
  H61      1.0000 0.88290  0.01800  0.01380  Biso   1.000  H
  H62      1.0000 0.11710  0.51800  0.98620  Biso   1.000  H
  H63      1.0000 0.90260  0.70620  0.03660  Biso   1.000  H
  H64      1.0000 0.09740  0.20620  0.96340  Biso   1.000  H
  H65      1.0000 0.84130  0.70530  0.08180  Biso   1.000  H
  H66      1.0000 0.15870  0.20530  0.91820  Biso   1.000  H
  H67      1.0000 0.55950  0.63820  0.06480  Biso   1.000  H
  H68      1.0000 0.44050  0.13820  0.93520  Biso   1.000  H
  H69      1.0000 0.67070  0.58300  0.03060  Biso   1.000  H
  H70      1.0000 0.32930  0.08300  0.96940  Biso   1.000  H
  H71      1.0000 0.56100  0.68870  0.02120  Biso   1.000  H
  H72      1.0000 0.43900  0.18870  0.97880  Biso   1.000  H
  H73      1.0000 0.55100  0.14710  0.29310  Biso   1.000  H
  H74      1.0000 0.44900  0.64710  0.70690  Biso   1.000  H
  H75      1.0000 0.64160  0.06980  0.26190  Biso   1.000  H
  H76      1.0000 0.35840  0.56980  0.73810  Biso   1.000  H
  H77      1.0000 0.40180  0.96780  0.28750  Biso   1.000  H
  H78      1.0000 0.59820  0.46780  0.71250  Biso   1.000  H
  H79      1.0000 0.45010  0.00250  0.33210  Biso   1.000  H
  H80      1.0000 0.54990  0.50250  0.66790  Biso   1.000  H
  H81      1.0000 0.40000  0.80040  0.33700  Biso   1.000  H
  H82      1.0000 0.60000  0.30040  0.66300  Biso   1.000  H
  H83      1.0000 0.58310  0.73770  0.34030  Biso   1.000  H
  H84      1.0000 0.41690  0.23770  0.65970  Biso   1.000  H
  H85      1.0000 0.65710  0.81190  0.39750  Biso   1.000  H
  H86      1.0000 0.34290  0.31190  0.60250  Biso   1.000  H
  H87      1.0000 0.44700  0.81350  0.40140  Biso   1.000  H
  H88      1.0000 0.55300  0.31350  0.59860  Biso   1.000  H
  H89      1.0000 0.54910  0.91820  0.38810  Biso   1.000  H
  H90      1.0000 0.45090  0.41820  0.61190  Biso   1.000  H
  H91      1.0000 0.86530  0.39120  0.35930  Biso   1.000  H
  H92      1.0000 0.13470  0.89120  0.64070  Biso   1.000  H
  H93      1.0000 0.74880  0.49580  0.36430  Biso   1.000  H
  H94      1.0000 0.25120  0.99580  0.63570  Biso   1.000  H
  H95      1.0000 0.93420  0.46720  0.42700  Biso   1.000  H
  H96      1.0000 0.06580  0.96720  0.57300  Biso   1.000  H
  H97      1.0000 0.84470  0.35320  0.43180  Biso   1.000  H
  H98      1.0000 0.15530  0.85320  0.56820  Biso   1.000  H
  H99      1.0000 0.89990  0.44120  0.48670  Biso   1.000  H
  H100     1.0000 0.10010  0.94120  0.51330  Biso   1.000  H
  H101     1.0000 0.72360  0.47770  0.50810  Biso   1.000  H
  H102     1.0000 0.27640  0.97770  0.49190  Biso   1.000  H
  H103     1.0000 0.61310  0.30810  0.50980  Biso   1.000  H
  H104     1.0000 0.38690  0.80810  0.49020  Biso   1.000  H
  H105     1.0000 0.81900  0.28840  0.51820  Biso   1.000  H
  H106     1.0000 0.18100  0.78840  0.48180  Biso   1.000  H
  H107     1.0000 0.73660  0.26870  0.47470  Biso   1.000  H
  H108     1.0000 0.26340  0.76870  0.52530  Biso   1.000  H
  H109     1.0000 0.71800  0.61400  0.41770  Biso   1.000  H
  H110     1.0000 0.28200  0.11400  0.58230  Biso   1.000  H
  H111     1.0000 0.59870  0.62640  0.45600  Biso   1.000  H
  H112     1.0000 0.40130  0.12640  0.54400  Biso   1.000  H
  H113     1.0000 0.82430  0.67670  0.49400  Biso   1.000  H
  H114     1.0000 0.17570  0.17670  0.50600  Biso   1.000  H
  H115     1.0000 0.90400  0.71280  0.45240  Biso   1.000  H
  H116     1.0000 0.09600  0.21280  0.54760  Biso   1.000  H
  H117     1.0000 0.96110  0.60180  0.47170  Biso   1.000  H
  H118     1.0000 0.03890  0.10180  0.52830  Biso   1.000  H
