data_image0
_cell_length_a       16.226
_cell_length_b       11.683
_cell_length_c       7.495
_cell_angle_alpha    90
_cell_angle_beta     90
_cell_angle_gamma    90

_symmetry_space_group_name_H-M    "P 1"
_symmetry_int_tables_number       1

loop_
  _symmetry_equiv_pos_as_xyz
  'x, y, z'

loop_
  _atom_site_label
  _atom_site_occupancy
  _atom_site_fract_x
  _atom_site_fract_y
  _atom_site_fract_z
  _atom_site_thermal_displace_type
  _atom_site_B_iso_or_equiv
  _atom_site_type_symbol
  Cu1      1.0000 0.37614  0.14683  0.16249  Biso   1.000  Cu
  Cu2      1.0000 0.62386  0.85317  0.16249  Biso   1.000  Cu
  Cu3      1.0000 0.87614  0.35317  0.83751  Biso   1.000  Cu
  Cu4      1.0000 0.12386  0.64683  0.83751  Biso   1.000  Cu
  N1       1.0000 0.36960  0.30290  0.01920  Biso   1.000  N
  N2       1.0000 0.63040  0.69710  0.01920  Biso   1.000  N
  N3       1.0000 0.86960  0.19710  0.98080  Biso   1.000  N
  N4       1.0000 0.13040  0.80290  0.98080  Biso   1.000  N
  N5       1.0000 0.49698  0.17420  0.15550  Biso   1.000  N
  N6       1.0000 0.50302  0.82580  0.15550  Biso   1.000  N
  N7       1.0000 0.99698  0.32580  0.84450  Biso   1.000  N
  N8       1.0000 0.00302  0.67420  0.84450  Biso   1.000  N
  H1       1.0000 0.51370  0.20390  0.26010  Biso   1.000  H
  H2       1.0000 0.48630  0.79610  0.26010  Biso   1.000  H
  H3       1.0000 0.01370  0.29610  0.73990  Biso   1.000  H
  H4       1.0000 0.98630  0.70390  0.73990  Biso   1.000  H
  H5       1.0000 0.52350  0.10740  0.13880  Biso   1.000  H
  H6       1.0000 0.47650  0.89260  0.13880  Biso   1.000  H
  H7       1.0000 0.02350  0.39260  0.86120  Biso   1.000  H
  H8       1.0000 0.97650  0.60740  0.86120  Biso   1.000  H
  N9       1.0000 0.11880  0.09230  0.30350  Biso   1.000  N
  N10      1.0000 0.88120  0.90770  0.30350  Biso   1.000  N
  N11      1.0000 0.61880  0.40770  0.69650  Biso   1.000  N
  N12      1.0000 0.38120  0.59230  0.69650  Biso   1.000  N
  N13      1.0000 0.39660  0.93870  0.65160  Biso   1.000  N
  N14      1.0000 0.60340  0.06130  0.65160  Biso   1.000  N
  N15      1.0000 0.89660  0.56130  0.34840  Biso   1.000  N
  N16      1.0000 0.10340  0.43870  0.34840  Biso   1.000  N
  N17      1.0000 0.38680  0.01470  0.94900  Biso   1.000  N
  N18      1.0000 0.61320  0.98530  0.94900  Biso   1.000  N
  N19      1.0000 0.88680  0.48530  0.05100  Biso   1.000  N
  N20      1.0000 0.11320  0.51470  0.05100  Biso   1.000  N
  N21      1.0000 0.39390  0.03860  0.36990  Biso   1.000  N
  N22      1.0000 0.60610  0.96140  0.36990  Biso   1.000  N
  N23      1.0000 0.89390  0.46140  0.63010  Biso   1.000  N
  N24      1.0000 0.10610  0.53860  0.63010  Biso   1.000  N
  N25      1.0000 0.25665  0.13760  0.20200  Biso   1.000  N
  N26      1.0000 0.74335  0.86240  0.20200  Biso   1.000  N
  N27      1.0000 0.75665  0.36240  0.79800  Biso   1.000  N
  N28      1.0000 0.24335  0.63760  0.79800  Biso   1.000  N
  N29      1.0000 0.04070  0.17290  0.54410  Biso   1.000  N
  N30      1.0000 0.95930  0.82710  0.54410  Biso   1.000  N
  N31      1.0000 0.54070  0.32710  0.45590  Biso   1.000  N
  N32      1.0000 0.45930  0.67290  0.45590  Biso   1.000  N
  C1       1.0000 0.45490  0.34860  0.01840  Biso   1.000  C
  C2       1.0000 0.54510  0.65140  0.01840  Biso   1.000  C
  C3       1.0000 0.95490  0.15140  0.98160  Biso   1.000  C
  C4       1.0000 0.04510  0.84860  0.98160  Biso   1.000  C
  H9       1.0000 0.46400  0.39310  0.12580  Biso   1.000  H
  H10      1.0000 0.53600  0.60690  0.12580  Biso   1.000  H
  H11      1.0000 0.96400  0.10690  0.87420  Biso   1.000  H
  H12      1.0000 0.03600  0.89310  0.87420  Biso   1.000  H
  H13      1.0000 0.46190  0.39900  0.91670  Biso   1.000  H
  H14      1.0000 0.53810  0.60100  0.91670  Biso   1.000  H
  H15      1.0000 0.96190  0.10100  0.08330  Biso   1.000  H
  H16      1.0000 0.03810  0.89900  0.08330  Biso   1.000  H
  C5       1.0000 0.51740  0.25390  0.00900  Biso   1.000  C
  C6       1.0000 0.48260  0.74610  0.00900  Biso   1.000  C
  C7       1.0000 0.01740  0.24610  0.99100  Biso   1.000  C
  C8       1.0000 0.98260  0.75390  0.99100  Biso   1.000  C
  H17      1.0000 0.51440  0.21520  0.89480  Biso   1.000  H
  H18      1.0000 0.48560  0.78480  0.89480  Biso   1.000  H
  H19      1.0000 0.01440  0.28480  0.10520  Biso   1.000  H
  H20      1.0000 0.98560  0.71520  0.10520  Biso   1.000  H
  H21      1.0000 0.57260  0.28420  0.02420  Biso   1.000  H
  H22      1.0000 0.42740  0.71580  0.02420  Biso   1.000  H
  H23      1.0000 0.07260  0.21580  0.97580  Biso   1.000  H
  H24      1.0000 0.92740  0.78420  0.97580  Biso   1.000  H
  C9       1.0000 0.34590  0.28720  0.82680  Biso   1.000  C
  C10      1.0000 0.65410  0.71280  0.82680  Biso   1.000  C
  C11      1.0000 0.84590  0.21280  0.17320  Biso   1.000  C
  C12      1.0000 0.15410  0.78720  0.17320  Biso   1.000  C
  H25      1.0000 0.35000  0.36080  0.76750  Biso   1.000  H
  H26      1.0000 0.65000  0.63920  0.76750  Biso   1.000  H
  H27      1.0000 0.85000  0.13920  0.23250  Biso   1.000  H
  H28      1.0000 0.15000  0.86080  0.23250  Biso   1.000  H
  H29      1.0000 0.38570  0.23650  0.77140  Biso   1.000  H
  H30      1.0000 0.61430  0.76350  0.77140  Biso   1.000  H
  H31      1.0000 0.88570  0.26350  0.22860  Biso   1.000  H
  H32      1.0000 0.11430  0.73650  0.22860  Biso   1.000  H
  C13      1.0000 0.26150  0.23990  0.79420  Biso   1.000  C
  C14      1.0000 0.73850  0.76010  0.79420  Biso   1.000  C
  C15      1.0000 0.76150  0.26010  0.20580  Biso   1.000  C
  C16      1.0000 0.23850  0.73990  0.20580  Biso   1.000  C
  H33      1.0000 0.22100  0.29700  0.82280  Biso   1.000  H
  H34      1.0000 0.77900  0.70300  0.82280  Biso   1.000  H
  H35      1.0000 0.72100  0.20300  0.17720  Biso   1.000  H
  H36      1.0000 0.27900  0.79700  0.17720  Biso   1.000  H
  H37      1.0000 0.25300  0.17380  0.86790  Biso   1.000  H
  H38      1.0000 0.74700  0.82620  0.86790  Biso   1.000  H
  H39      1.0000 0.75300  0.32620  0.13210  Biso   1.000  H
  H40      1.0000 0.24700  0.67380  0.13210  Biso   1.000  H
  H41      1.0000 0.25620  0.21880  0.67100  Biso   1.000  H
  H42      1.0000 0.74380  0.78120  0.67100  Biso   1.000  H
  H43      1.0000 0.75620  0.28120  0.32900  Biso   1.000  H
  H44      1.0000 0.24380  0.71880  0.32900  Biso   1.000  H
  C17      1.0000 0.31390  0.38630  0.10740  Biso   1.000  C
  C18      1.0000 0.68610  0.61370  0.10740  Biso   1.000  C
  C19      1.0000 0.81390  0.11370  0.89260  Biso   1.000  C
  C20      1.0000 0.18610  0.88630  0.89260  Biso   1.000  C
  H45      1.0000 0.25730  0.36240  0.08820  Biso   1.000  H
  H46      1.0000 0.74270  0.63760  0.08820  Biso   1.000  H
  H47      1.0000 0.75730  0.13760  0.91180  Biso   1.000  H
  H48      1.0000 0.24270  0.86240  0.91180  Biso   1.000  H
  H49      1.0000 0.32090  0.46050  0.05140  Biso   1.000  H
  H50      1.0000 0.67910  0.53950  0.05140  Biso   1.000  H
  H51      1.0000 0.82090  0.03950  0.94860  Biso   1.000  H
  H52      1.0000 0.17910  0.96050  0.94860  Biso   1.000  H
  C21      1.0000 0.32860  0.39840  0.30580  Biso   1.000  C
  C22      1.0000 0.67140  0.60160  0.30580  Biso   1.000  C
  C23      1.0000 0.82860  0.10160  0.69420  Biso   1.000  C
  C24      1.0000 0.17140  0.89840  0.69420  Biso   1.000  C
  H53      1.0000 0.38390  0.42460  0.32610  Biso   1.000  H
  H54      1.0000 0.61610  0.57540  0.32610  Biso   1.000  H
  H55      1.0000 0.88390  0.07540  0.67390  Biso   1.000  H
  H56      1.0000 0.11610  0.92460  0.67390  Biso   1.000  H
  H57      1.0000 0.32100  0.32560  0.36270  Biso   1.000  H
  H58      1.0000 0.67900  0.67440  0.36270  Biso   1.000  H
  H59      1.0000 0.82100  0.17440  0.63730  Biso   1.000  H
  H60      1.0000 0.17900  0.82560  0.63730  Biso   1.000  H
  H61      1.0000 0.29040  0.45270  0.35450  Biso   1.000  H
  H62      1.0000 0.70960  0.54730  0.35450  Biso   1.000  H
  H63      1.0000 0.79040  0.04730  0.64550  Biso   1.000  H
  H64      1.0000 0.20960  0.95270  0.64550  Biso   1.000  H
  C25      1.0000 0.39170  0.98580  0.80620  Biso   1.000  C
  C26      1.0000 0.60830  0.01420  0.80620  Biso   1.000  C
  C27      1.0000 0.89170  0.51420  0.19380  Biso   1.000  C
  C28      1.0000 0.10830  0.48580  0.19380  Biso   1.000  C
  C29      1.0000 0.39450  0.99710  0.50550  Biso   1.000  C
  C30      1.0000 0.60550  0.00290  0.50550  Biso   1.000  C
  C31      1.0000 0.89450  0.50290  0.49450  Biso   1.000  C
  C32      1.0000 0.10550  0.49710  0.49450  Biso   1.000  C
  C33      1.0000 0.19310  0.12080  0.25860  Biso   1.000  C
  C34      1.0000 0.80690  0.87920  0.25860  Biso   1.000  C
  C35      1.0000 0.69310  0.37920  0.74140  Biso   1.000  C
  C36      1.0000 0.30690  0.62080  0.74140  Biso   1.000  C
  C37      1.0000 0.08020  0.13860  0.43550  Biso   1.000  C
  C38      1.0000 0.91980  0.86140  0.43550  Biso   1.000  C
  C39      1.0000 0.58020  0.36140  0.56450  Biso   1.000  C
  C40      1.0000 0.41980  0.63860  0.56450  Biso   1.000  C
