data_image0
_cell_length_a       12.9658
_cell_length_b       11.22
_cell_length_c       14.3359
_cell_angle_alpha    90
_cell_angle_beta     93.857
_cell_angle_gamma    90

_symmetry_space_group_name_H-M    "P 1"
_symmetry_int_tables_number       1

loop_
  _symmetry_equiv_pos_as_xyz
  'x, y, z'

loop_
  _atom_site_label
  _atom_site_occupancy
  _atom_site_fract_x
  _atom_site_fract_y
  _atom_site_fract_z
  _atom_site_thermal_displace_type
  _atom_site_B_iso_or_equiv
  _atom_site_type_symbol
  Cu1      1.0000 0.18430  0.16140  0.49000  Biso   1.000  Cu
  Cu2      1.0000 0.81570  0.16140  0.01000  Biso   1.000  Cu
  Cu3      1.0000 0.68430  0.66140  0.49000  Biso   1.000  Cu
  Cu4      1.0000 0.31570  0.66140  0.01000  Biso   1.000  Cu
  Cu5      1.0000 0.81570  0.83860  0.51000  Biso   1.000  Cu
  Cu6      1.0000 0.18430  0.83860  0.99000  Biso   1.000  Cu
  Cu7      1.0000 0.31570  0.33860  0.51000  Biso   1.000  Cu
  Cu8      1.0000 0.68430  0.33860  0.99000  Biso   1.000  Cu
  O1       1.0000 0.10380  0.27260  0.40670  Biso   1.000  O
  O2       1.0000 0.89620  0.27260  0.09330  Biso   1.000  O
  O3       1.0000 0.60380  0.77260  0.40670  Biso   1.000  O
  O4       1.0000 0.39620  0.77260  0.09330  Biso   1.000  O
  O5       1.0000 0.89620  0.72740  0.59330  Biso   1.000  O
  O6       1.0000 0.10380  0.72740  0.90670  Biso   1.000  O
  O7       1.0000 0.39620  0.22740  0.59330  Biso   1.000  O
  O8       1.0000 0.60380  0.22740  0.90670  Biso   1.000  O
  O9       1.0000 0.22040  0.41930  0.41810  Biso   1.000  O
  O10      1.0000 0.77960  0.41930  0.08190  Biso   1.000  O
  O11      1.0000 0.72040  0.91930  0.41810  Biso   1.000  O
  O12      1.0000 0.27960  0.91930  0.08190  Biso   1.000  O
  O13      1.0000 0.77960  0.58070  0.58190  Biso   1.000  O
  O14      1.0000 0.22040  0.58070  0.91810  Biso   1.000  O
  O15      1.0000 0.27960  0.08070  0.58190  Biso   1.000  O
  O16      1.0000 0.72040  0.08070  0.91810  Biso   1.000  O
  O17      1.0000 0.89370  0.77840  0.40490  Biso   1.000  O
  O18      1.0000 0.10630  0.77840  0.09510  Biso   1.000  O
  O19      1.0000 0.39370  0.27840  0.40490  Biso   1.000  O
  O20      1.0000 0.60630  0.27840  0.09510  Biso   1.000  O
  O21      1.0000 0.10630  0.22160  0.59510  Biso   1.000  O
  O22      1.0000 0.89370  0.22160  0.90490  Biso   1.000  O
  O23      1.0000 0.60630  0.72160  0.59510  Biso   1.000  O
  O24      1.0000 0.39370  0.72160  0.90490  Biso   1.000  O
  O25      1.0000 0.78040  0.62870  0.39230  Biso   1.000  O
  O26      1.0000 0.21960  0.62870  0.10770  Biso   1.000  O
  O27      1.0000 0.28040  0.12870  0.39230  Biso   1.000  O
  O28      1.0000 0.71960  0.12870  0.10770  Biso   1.000  O
  O29      1.0000 0.21960  0.37130  0.60770  Biso   1.000  O
  O30      1.0000 0.78040  0.37130  0.89230  Biso   1.000  O
  O31      1.0000 0.71960  0.87130  0.60770  Biso   1.000  O
  O32      1.0000 0.28040  0.87130  0.89230  Biso   1.000  O
  O33      1.0000 0.09820  0.00650  0.44470  Biso   1.000  O
  O34      1.0000 0.90180  0.00650  0.05530  Biso   1.000  O
  O35      1.0000 0.59820  0.50650  0.44470  Biso   1.000  O
  O36      1.0000 0.40180  0.50650  0.05530  Biso   1.000  O
  O37      1.0000 0.90180  0.99350  0.55530  Biso   1.000  O
  O38      1.0000 0.09820  0.99350  0.94470  Biso   1.000  O
  O39      1.0000 0.40180  0.49350  0.55530  Biso   1.000  O
  O40      1.0000 0.59820  0.49350  0.94470  Biso   1.000  O
  C1       1.0000 0.13660  0.37430  0.38550  Biso   1.000  C
  C2       1.0000 0.86340  0.37430  0.11450  Biso   1.000  C
  C3       1.0000 0.63660  0.87430  0.38550  Biso   1.000  C
  C4       1.0000 0.36340  0.87430  0.11450  Biso   1.000  C
  C5       1.0000 0.86340  0.62570  0.61450  Biso   1.000  C
  C6       1.0000 0.13660  0.62570  0.88550  Biso   1.000  C
  C7       1.0000 0.36340  0.12570  0.61450  Biso   1.000  C
  C8       1.0000 0.63660  0.12570  0.88550  Biso   1.000  C
  C9       1.0000 0.06870  0.45060  0.31680  Biso   1.000  C
  C10      1.0000 0.93130  0.45060  0.18320  Biso   1.000  C
  C11      1.0000 0.56870  0.95060  0.31680  Biso   1.000  C
  C12      1.0000 0.43130  0.95060  0.18320  Biso   1.000  C
  C13      1.0000 0.93130  0.54940  0.68320  Biso   1.000  C
  C14      1.0000 0.06870  0.54940  0.81680  Biso   1.000  C
  C15      1.0000 0.43130  0.04940  0.68320  Biso   1.000  C
  C16      1.0000 0.56870  0.04940  0.81680  Biso   1.000  C
  C17      1.0000 0.99980  0.53040  0.37450  Biso   1.000  C
  C18      1.0000 0.00020  0.53040  0.12550  Biso   1.000  C
  C19      1.0000 0.49980  0.03040  0.37450  Biso   1.000  C
  C20      1.0000 0.50020  0.03040  0.12550  Biso   1.000  C
  C21      1.0000 0.00020  0.46960  0.62550  Biso   1.000  C
  C22      1.0000 0.99980  0.46960  0.87450  Biso   1.000  C
  C23      1.0000 0.50020  0.96960  0.62550  Biso   1.000  C
  C24      1.0000 0.49980  0.96960  0.87450  Biso   1.000  C
  C25      1.0000 0.93050  0.61000  0.30710  Biso   1.000  C
  C26      1.0000 0.06950  0.61000  0.19290  Biso   1.000  C
  C27      1.0000 0.43050  0.11000  0.30710  Biso   1.000  C
  C28      1.0000 0.56950  0.11000  0.19290  Biso   1.000  C
  C29      1.0000 0.06950  0.39000  0.69290  Biso   1.000  C
  C30      1.0000 0.93050  0.39000  0.80710  Biso   1.000  C
  C31      1.0000 0.56950  0.89000  0.69290  Biso   1.000  C
  C32      1.0000 0.43050  0.89000  0.80710  Biso   1.000  C
  C33      1.0000 0.86230  0.68000  0.37190  Biso   1.000  C
  C34      1.0000 0.13770  0.68000  0.12810  Biso   1.000  C
  C35      1.0000 0.36230  0.18000  0.37190  Biso   1.000  C
  C36      1.0000 0.63770  0.18000  0.12810  Biso   1.000  C
  C37      1.0000 0.13770  0.32000  0.62810  Biso   1.000  C
  C38      1.0000 0.86230  0.32000  0.87190  Biso   1.000  C
  C39      1.0000 0.63770  0.82000  0.62810  Biso   1.000  C
  C40      1.0000 0.36230  0.82000  0.87190  Biso   1.000  C
  C41      1.0000 0.13750  0.53120  0.25970  Biso   1.000  C
  C42      1.0000 0.86250  0.53120  0.24030  Biso   1.000  C
  C43      1.0000 0.63750  0.03120  0.25970  Biso   1.000  C
  C44      1.0000 0.36250  0.03120  0.24030  Biso   1.000  C
  C45      1.0000 0.86250  0.46880  0.74030  Biso   1.000  C
  C46      1.0000 0.13750  0.46880  0.75970  Biso   1.000  C
  C47      1.0000 0.36250  0.96880  0.74030  Biso   1.000  C
  C48      1.0000 0.63750  0.96880  0.75970  Biso   1.000  C
  C49      1.0000 0.00000  0.37190  0.25000  Biso   1.000  C
  C50      1.0000 0.50000  0.87190  0.25000  Biso   1.000  C
  C51      1.0000 0.00000  0.62810  0.75000  Biso   1.000  C
  C52      1.0000 0.50000  0.12810  0.75000  Biso   1.000  C
  C53      1.0000 0.00000  0.69050  0.25000  Biso   1.000  C
  C54      1.0000 0.50000  0.19050  0.25000  Biso   1.000  C
  C55      1.0000 0.00000  0.30950  0.75000  Biso   1.000  C
  C56      1.0000 0.50000  0.80950  0.75000  Biso   1.000  C
  H1       1.0000 0.08900  0.96000  0.49000  Biso   1.000  H
  H2       1.0000 0.91100  0.96000  0.01000  Biso   1.000  H
  H3       1.0000 0.58900  0.46000  0.49000  Biso   1.000  H
  H4       1.0000 0.41100  0.46000  0.01000  Biso   1.000  H
  H5       1.0000 0.91100  0.04000  0.51000  Biso   1.000  H
  H6       1.0000 0.08900  0.04000  0.99000  Biso   1.000  H
  H7       1.0000 0.41100  0.54000  0.51000  Biso   1.000  H
  H8       1.0000 0.58900  0.54000  0.99000  Biso   1.000  H
  H9       1.0000 0.06400  0.01000  0.40900  Biso   1.000  H
  H10      1.0000 0.93600  0.01000  0.09100  Biso   1.000  H
  H11      1.0000 0.56400  0.51000  0.40900  Biso   1.000  H
  H12      1.0000 0.43600  0.51000  0.09100  Biso   1.000  H
  H13      1.0000 0.93600  0.99000  0.59100  Biso   1.000  H
  H14      1.0000 0.06400  0.99000  0.90900  Biso   1.000  H
  H15      1.0000 0.43600  0.49000  0.59100  Biso   1.000  H
  H16      1.0000 0.56400  0.49000  0.90900  Biso   1.000  H
  H17      1.0000 0.04360  0.58130  0.41740  Biso   1.000  H
  H18      1.0000 0.95640  0.58130  0.08260  Biso   1.000  H
  H19      1.0000 0.54360  0.08130  0.41740  Biso   1.000  H
  H20      1.0000 0.45640  0.08130  0.08260  Biso   1.000  H
  H21      1.0000 0.95640  0.41870  0.58260  Biso   1.000  H
  H22      1.0000 0.04360  0.41870  0.91740  Biso   1.000  H
  H23      1.0000 0.45640  0.91870  0.58260  Biso   1.000  H
  H24      1.0000 0.54360  0.91870  0.91740  Biso   1.000  H
  H25      1.0000 0.95590  0.48020  0.41250  Biso   1.000  H
  H26      1.0000 0.04410  0.48020  0.08750  Biso   1.000  H
  H27      1.0000 0.45590  0.98020  0.41250  Biso   1.000  H
  H28      1.0000 0.54410  0.98020  0.08750  Biso   1.000  H
  H29      1.0000 0.04410  0.51980  0.58750  Biso   1.000  H
  H30      1.0000 0.95590  0.51980  0.91250  Biso   1.000  H
  H31      1.0000 0.54410  0.01980  0.58750  Biso   1.000  H
  H32      1.0000 0.45590  0.01980  0.91250  Biso   1.000  H
  H33      1.0000 0.18140  0.58200  0.30250  Biso   1.000  H
  H34      1.0000 0.81860  0.58200  0.19750  Biso   1.000  H
  H35      1.0000 0.68140  0.08200  0.30250  Biso   1.000  H
  H36      1.0000 0.31860  0.08200  0.19750  Biso   1.000  H
  H37      1.0000 0.81860  0.41800  0.69750  Biso   1.000  H
  H38      1.0000 0.18140  0.41800  0.80250  Biso   1.000  H
  H39      1.0000 0.31860  0.91800  0.69750  Biso   1.000  H
  H40      1.0000 0.68140  0.91800  0.80250  Biso   1.000  H
  H41      1.0000 0.18330  0.48120  0.22330  Biso   1.000  H
  H42      1.0000 0.81670  0.48120  0.27670  Biso   1.000  H
  H43      1.0000 0.68330  0.98120  0.22330  Biso   1.000  H
  H44      1.0000 0.31670  0.98120  0.27670  Biso   1.000  H
  H45      1.0000 0.81670  0.51880  0.77670  Biso   1.000  H
  H46      1.0000 0.18330  0.51880  0.72330  Biso   1.000  H
  H47      1.0000 0.31670  0.01880  0.77670  Biso   1.000  H
  H48      1.0000 0.68330  0.01880  0.72330  Biso   1.000  H
  H49      1.0000 0.95600  0.32010  0.28670  Biso   1.000  H
  H50      1.0000 0.04400  0.32010  0.21330  Biso   1.000  H
  H51      1.0000 0.45600  0.82010  0.28670  Biso   1.000  H
  H52      1.0000 0.54400  0.82010  0.21330  Biso   1.000  H
  H53      1.0000 0.04400  0.67990  0.71330  Biso   1.000  H
  H54      1.0000 0.95600  0.67990  0.78670  Biso   1.000  H
  H55      1.0000 0.54400  0.17990  0.71330  Biso   1.000  H
  H56      1.0000 0.45600  0.17990  0.78670  Biso   1.000  H
  H57      1.0000 0.95660  0.74210  0.20730  Biso   1.000  H
  H58      1.0000 0.04340  0.74210  0.29270  Biso   1.000  H
  H59      1.0000 0.45660  0.24210  0.20730  Biso   1.000  H
  H60      1.0000 0.54340  0.24210  0.29270  Biso   1.000  H
  H61      1.0000 0.04340  0.25790  0.79270  Biso   1.000  H
  H62      1.0000 0.95660  0.25790  0.70730  Biso   1.000  H
  H63      1.0000 0.54340  0.75790  0.79270  Biso   1.000  H
  H64      1.0000 0.45660  0.75790  0.70730  Biso   1.000  H
  O41      1.0000 0.10370  0.17390  0.08150  Biso   1.000  O
  O42      1.0000 0.89630  0.17390  0.41850  Biso   1.000  O
  O43      1.0000 0.60370  0.67390  0.08150  Biso   1.000  O
  O44      1.0000 0.39630  0.67390  0.41850  Biso   1.000  O
  O45      1.0000 0.89630  0.82610  0.91850  Biso   1.000  O
  O46      1.0000 0.10370  0.82610  0.58150  Biso   1.000  O
  O47      1.0000 0.39630  0.32610  0.91850  Biso   1.000  O
  O48      1.0000 0.60370  0.32610  0.58150  Biso   1.000  O
  O49      1.0000 0.06370  0.98960  0.67970  Biso   1.000  O
  O50      1.0000 0.93630  0.98960  0.82030  Biso   1.000  O
  O51      1.0000 0.56370  0.48960  0.67970  Biso   1.000  O
  O52      1.0000 0.43630  0.48960  0.82030  Biso   1.000  O
  O53      1.0000 0.93630  0.01040  0.32030  Biso   1.000  O
  O54      1.0000 0.06370  0.01040  0.17970  Biso   1.000  O
  O55      1.0000 0.43630  0.51040  0.32030  Biso   1.000  O
  O56      1.0000 0.56370  0.51040  0.17970  Biso   1.000  O
  O57      1.0000 0.26390  0.32400  0.08470  Biso   1.000  O
  O58      1.0000 0.73610  0.32400  0.41530  Biso   1.000  O
  O59      1.0000 0.76390  0.82400  0.08470  Biso   1.000  O
  O60      1.0000 0.23610  0.82400  0.41530  Biso   1.000  O
  O61      1.0000 0.73610  0.67600  0.91530  Biso   1.000  O
  O62      1.0000 0.26390  0.67600  0.58470  Biso   1.000  O
  O63      1.0000 0.23610  0.17600  0.91530  Biso   1.000  O
  O64      1.0000 0.76390  0.17600  0.58470  Biso   1.000  O
  O65      1.0000 0.10400  0.01710  0.73630  Biso   1.000  O
  O66      1.0000 0.89600  0.01710  0.76370  Biso   1.000  O
  O67      1.0000 0.60400  0.51710  0.73630  Biso   1.000  O
  O68      1.0000 0.39600  0.51710  0.76370  Biso   1.000  O
  O69      1.0000 0.89600  0.98290  0.26370  Biso   1.000  O
  O70      1.0000 0.10400  0.98290  0.23630  Biso   1.000  O
  O71      1.0000 0.39600  0.48290  0.26370  Biso   1.000  O
  O72      1.0000 0.60400  0.48290  0.23630  Biso   1.000  O
  O73      1.0000 0.22640  0.33970  0.04230  Biso   1.000  O
  O74      1.0000 0.77360  0.33970  0.45770  Biso   1.000  O
  O75      1.0000 0.72640  0.83970  0.04230  Biso   1.000  O
  O76      1.0000 0.27360  0.83970  0.45770  Biso   1.000  O
  O77      1.0000 0.77360  0.66030  0.95770  Biso   1.000  O
  O78      1.0000 0.22640  0.66030  0.54230  Biso   1.000  O
  O79      1.0000 0.27360  0.16030  0.95770  Biso   1.000  O
  O80      1.0000 0.72640  0.16030  0.54230  Biso   1.000  O
