data_image0
_cell_length_a       5.059
_cell_length_b       10.294
_cell_length_c       23.141
_cell_angle_alpha    90
_cell_angle_beta     90
_cell_angle_gamma    90

_symmetry_space_group_name_H-M    "P 1"
_symmetry_int_tables_number       1

loop_
  _symmetry_equiv_pos_as_xyz
  'x, y, z'

loop_
  _atom_site_label
  _atom_site_occupancy
  _atom_site_fract_x
  _atom_site_fract_y
  _atom_site_fract_z
  _atom_site_thermal_displace_type
  _atom_site_B_iso_or_equiv
  _atom_site_type_symbol
  Cu1      1.0000 0.42130  0.70304  0.55073  Biso   1.000  Cu
  Cu2      1.0000 0.07870  0.29696  0.05073  Biso   1.000  Cu
  Cu3      1.0000 0.57870  0.20304  0.94927  Biso   1.000  Cu
  Cu4      1.0000 0.92130  0.79696  0.44927  Biso   1.000  Cu
  O1       1.0000 0.16010  0.74120  0.60612  Biso   1.000  O
  O2       1.0000 0.33990  0.25880  0.10612  Biso   1.000  O
  O3       1.0000 0.83990  0.24120  0.89388  Biso   1.000  O
  O4       1.0000 0.66010  0.75880  0.39388  Biso   1.000  O
  O5       1.0000 0.75080  0.67450  0.50368  Biso   1.000  O
  O6       1.0000 0.74920  0.32550  0.00368  Biso   1.000  O
  O7       1.0000 0.24920  0.17450  0.99632  Biso   1.000  O
  O8       1.0000 0.25080  0.82550  0.49632  Biso   1.000  O
  O9       1.0000 0.11570  0.55300  0.50087  Biso   1.000  O
  O10      1.0000 0.38430  0.44700  0.00087  Biso   1.000  O
  O11      1.0000 0.88430  0.05300  0.99913  Biso   1.000  O
  O12      1.0000 0.61570  0.94700  0.49913  Biso   1.000  O
  N1       1.0000 0.57930  0.57340  0.59928  Biso   1.000  N
  N2       1.0000 0.92070  0.42660  0.09928  Biso   1.000  N
  N3       1.0000 0.42070  0.07340  0.90072  Biso   1.000  N
  N4       1.0000 0.07930  0.92660  0.40072  Biso   1.000  N
  C1       1.0000 0.14630  0.67710  0.78340  Biso   1.000  C
  C2       1.0000 0.35370  0.32290  0.28340  Biso   1.000  C
  C3       1.0000 0.85370  0.17710  0.71660  Biso   1.000  C
  C4       1.0000 0.64630  0.82290  0.21660  Biso   1.000  C
  C5       1.0000 0.53890  0.55850  0.65380  Biso   1.000  C
  C6       1.0000 0.96110  0.44150  0.15380  Biso   1.000  C
  C7       1.0000 0.46110  0.05850  0.84620  Biso   1.000  C
  C8       1.0000 0.03890  0.94150  0.34620  Biso   1.000  C
  H1       1.0000 0.64680  0.49690  0.67330  Biso   1.000  H
  H2       1.0000 0.85320  0.50310  0.17330  Biso   1.000  H
  H3       1.0000 0.35320  0.99690  0.82670  Biso   1.000  H
  H4       1.0000 0.14680  0.00310  0.32670  Biso   1.000  H
  C9       1.0000 0.96290  0.75970  0.75480  Biso   1.000  C
  C10      1.0000 0.53710  0.24030  0.25480  Biso   1.000  C
  C11      1.0000 0.03710  0.25970  0.74520  Biso   1.000  C
  C12      1.0000 0.46290  0.74030  0.24520  Biso   1.000  C
  H5       1.0000 0.83110  0.80320  0.77670  Biso   1.000  H
  H6       1.0000 0.66890  0.19680  0.27670  Biso   1.000  H
  H7       1.0000 0.16890  0.30320  0.72330  Biso   1.000  H
  H8       1.0000 0.33110  0.69680  0.22330  Biso   1.000  H
  C13      1.0000 0.16610  0.71450  0.66145  Biso   1.000  C
  C14      1.0000 0.33390  0.28550  0.16145  Biso   1.000  C
  C15      1.0000 0.83390  0.21450  0.83855  Biso   1.000  C
  C16      1.0000 0.66610  0.78550  0.33855  Biso   1.000  C
  C17      1.0000 0.52420  0.53150  0.78110  Biso   1.000  C
  C18      1.0000 0.97580  0.46850  0.28110  Biso   1.000  C
  C19      1.0000 0.47580  0.03150  0.71890  Biso   1.000  C
  C20      1.0000 0.02420  0.96850  0.21890  Biso   1.000  C
  H9       1.0000 0.65800  0.48680  0.76020  Biso   1.000  H
  H10      1.0000 0.84200  0.51320  0.26020  Biso   1.000  H
  H11      1.0000 0.34200  0.98680  0.73980  Biso   1.000  H
  H12      1.0000 0.15800  0.01320  0.23980  Biso   1.000  H
  C21      1.0000 0.89830  0.57980  0.52185  Biso   1.000  C
  C22      1.0000 0.60170  0.42020  0.02185  Biso   1.000  C
  C23      1.0000 0.10170  0.07980  0.97815  Biso   1.000  C
  C24      1.0000 0.39830  0.92020  0.47815  Biso   1.000  C
  C25      1.0000 0.34160  0.60800  0.75074  Biso   1.000  C
  C26      1.0000 0.15840  0.39200  0.25074  Biso   1.000  C
  C27      1.0000 0.65840  0.10800  0.74926  Biso   1.000  C
  C28      1.0000 0.84160  0.89200  0.24926  Biso   1.000  C
  C29      1.0000 0.34730  0.62570  0.68786  Biso   1.000  C
  C30      1.0000 0.15270  0.37430  0.18786  Biso   1.000  C
  C31      1.0000 0.65270  0.12570  0.81214  Biso   1.000  C
  C32      1.0000 0.84730  0.87430  0.31214  Biso   1.000  C
  C33      1.0000 0.65200  0.37610  0.54140  Biso   1.000  C
  C34      1.0000 0.84800  0.62390  0.04140  Biso   1.000  C
  C35      1.0000 0.34800  0.87610  0.95860  Biso   1.000  C
  C36      1.0000 0.15200  0.12390  0.45860  Biso   1.000  C
  H13      1.0000 0.56340  0.32440  0.57120  Biso   1.000  H
  H14      1.0000 0.93660  0.67560  0.07120  Biso   1.000  H
  H15      1.0000 0.43660  0.82440  0.92880  Biso   1.000  H
  H16      1.0000 0.06340  0.17560  0.42880  Biso   1.000  H
  H17      1.0000 0.78870  0.32340  0.52270  Biso   1.000  H
  H18      1.0000 0.71130  0.67660  0.02270  Biso   1.000  H
  H19      1.0000 0.21130  0.82340  0.97730  Biso   1.000  H
  H20      1.0000 0.28870  0.17660  0.47730  Biso   1.000  H
  H21      1.0000 0.52240  0.40420  0.51250  Biso   1.000  H
  H22      1.0000 0.97760  0.59580  0.01250  Biso   1.000  H
  H23      1.0000 0.47760  0.90420  0.98750  Biso   1.000  H
  H24      1.0000 0.02240  0.09580  0.48750  Biso   1.000  H
  C37      1.0000 0.51430  0.51970  0.84040  Biso   1.000  C
  C38      1.0000 0.98570  0.48030  0.34040  Biso   1.000  C
  C39      1.0000 0.48570  0.01970  0.65960  Biso   1.000  C
  C40      1.0000 0.01430  0.98030  0.15960  Biso   1.000  C
  H25      1.0000 0.64280  0.46850  0.85980  Biso   1.000  H
  H26      1.0000 0.85720  0.53150  0.35980  Biso   1.000  H
  H27      1.0000 0.35720  0.96850  0.64020  Biso   1.000  H
  H28      1.0000 0.14280  0.03150  0.14020  Biso   1.000  H
  C41      1.0000 0.13720  0.65940  0.84450  Biso   1.000  C
  C42      1.0000 0.36280  0.34060  0.34450  Biso   1.000  C
  C43      1.0000 0.86280  0.15940  0.65550  Biso   1.000  C
  C44      1.0000 0.63720  0.84060  0.15550  Biso   1.000  C
  H29      1.0000 0.00360  0.70220  0.86620  Biso   1.000  H
  H30      1.0000 0.49640  0.29780  0.36620  Biso   1.000  H
  H31      1.0000 0.99640  0.20220  0.63380  Biso   1.000  H
  H32      1.0000 0.50360  0.79780  0.13380  Biso   1.000  H
  C45      1.0000 0.31540  0.58280  0.87240  Biso   1.000  C
  C46      1.0000 0.18460  0.41720  0.37240  Biso   1.000  C
  C47      1.0000 0.68460  0.08280  0.62760  Biso   1.000  C
  C48      1.0000 0.81540  0.91720  0.12760  Biso   1.000  C
  H33      1.0000 0.30570  0.57190  0.91310  Biso   1.000  H
  H34      1.0000 0.19430  0.42810  0.41310  Biso   1.000  H
  H35      1.0000 0.69430  0.07190  0.58690  Biso   1.000  H
  H36      1.0000 0.80570  0.92810  0.08690  Biso   1.000  H
  C49      1.0000 0.77970  0.49550  0.56930  Biso   1.000  C
  C50      1.0000 0.72030  0.50450  0.06930  Biso   1.000  C
  C51      1.0000 0.22030  0.99550  0.93070  Biso   1.000  C
  C52      1.0000 0.27970  0.00450  0.43070  Biso   1.000  C
  H37      1.0000 0.92050  0.46790  0.59700  Biso   1.000  H
  H38      1.0000 0.57950  0.53210  0.09700  Biso   1.000  H
  H39      1.0000 0.07950  0.96790  0.90300  Biso   1.000  H
  H40      1.0000 0.42050  0.03210  0.40300  Biso   1.000  H
  C53      1.0000 0.97320  0.77730  0.69660  Biso   1.000  C
  C54      1.0000 0.52680  0.22270  0.19660  Biso   1.000  C
  C55      1.0000 0.02680  0.27730  0.80340  Biso   1.000  C
  C56      1.0000 0.47320  0.72270  0.30340  Biso   1.000  C
  H41      1.0000 0.84790  0.83330  0.67880  Biso   1.000  H
  H42      1.0000 0.65210  0.16670  0.17880  Biso   1.000  H
  H43      1.0000 0.15210  0.33330  0.82120  Biso   1.000  H
  H44      1.0000 0.34790  0.66670  0.32120  Biso   1.000  H
