data_image0
_cell_length_a       5.0957
_cell_length_b       12.298
_cell_length_c       21.909
_cell_angle_alpha    90
_cell_angle_beta     90
_cell_angle_gamma    90

_symmetry_space_group_name_H-M    "P 1"
_symmetry_int_tables_number       1

loop_
  _symmetry_equiv_pos_as_xyz
  'x, y, z'

loop_
  _atom_site_label
  _atom_site_occupancy
  _atom_site_fract_x
  _atom_site_fract_y
  _atom_site_fract_z
  _atom_site_thermal_displace_type
  _atom_site_B_iso_or_equiv
  _atom_site_type_symbol
  Cu1      1.0000 0.46450  0.28232  0.44477  Biso   1.000  Cu
  Cu2      1.0000 0.03550  0.71768  0.94477  Biso   1.000  Cu
  Cu3      1.0000 0.53550  0.78232  0.05523  Biso   1.000  Cu
  Cu4      1.0000 0.96450  0.21768  0.55523  Biso   1.000  Cu
  O1       1.0000 0.78930  0.31412  0.49448  Biso   1.000  O
  O2       1.0000 0.71070  0.68588  0.99448  Biso   1.000  O
  O3       1.0000 0.21070  0.81412  0.00552  Biso   1.000  O
  O4       1.0000 0.28930  0.18588  0.50552  Biso   1.000  O
  O5       1.0000 0.22740  0.23240  0.38454  Biso   1.000  O
  O6       1.0000 0.27260  0.76760  0.88454  Biso   1.000  O
  O7       1.0000 0.77260  0.73240  0.11546  Biso   1.000  O
  O8       1.0000 0.72740  0.26760  0.61546  Biso   1.000  O
  O9       1.0000 0.15880  0.41098  0.49174  Biso   1.000  O
  O10      1.0000 0.34120  0.58902  0.99174  Biso   1.000  O
  O11      1.0000 0.84120  0.91098  0.00826  Biso   1.000  O
  O12      1.0000 0.65880  0.08902  0.50826  Biso   1.000  O
  N1       1.0000 0.61740  0.38800  0.39114  Biso   1.000  N
  N2       1.0000 0.88260  0.61200  0.89114  Biso   1.000  N
  N3       1.0000 0.38260  0.88800  0.10886  Biso   1.000  N
  N4       1.0000 0.11740  0.11200  0.60886  Biso   1.000  N
  C1       1.0000 0.93740  0.39100  0.47219  Biso   1.000  C
  C2       1.0000 0.56260  0.60900  0.97219  Biso   1.000  C
  C3       1.0000 0.06260  0.89100  0.02781  Biso   1.000  C
  C4       1.0000 0.43740  0.10900  0.52781  Biso   1.000  C
  C5       1.0000 0.20530  0.26620  0.32800  Biso   1.000  C
  C6       1.0000 0.29470  0.73380  0.82800  Biso   1.000  C
  C7       1.0000 0.79470  0.76620  0.17200  Biso   1.000  C
  C8       1.0000 0.70530  0.23380  0.67200  Biso   1.000  C
  C9       1.0000 0.81630  0.45710  0.42004  Biso   1.000  C
  C10      1.0000 0.68370  0.54290  0.92004  Biso   1.000  C
  C11      1.0000 0.18370  0.95710  0.07996  Biso   1.000  C
  C12      1.0000 0.31630  0.04290  0.57996  Biso   1.000  C
  H1       1.0000 0.95500  0.47620  0.38960  Biso   1.000  H
  H2       1.0000 0.54500  0.52380  0.88960  Biso   1.000  H
  H3       1.0000 0.04500  0.97620  0.11040  Biso   1.000  H
  H4       1.0000 0.45500  0.02380  0.61040  Biso   1.000  H
  C13      1.0000 0.68740  0.56280  0.44515  Biso   1.000  C
  C14      1.0000 0.81260  0.43720  0.94515  Biso   1.000  C
  C15      1.0000 0.31260  0.06280  0.05485  Biso   1.000  C
  C16      1.0000 0.18740  0.93720  0.55485  Biso   1.000  C
  H5       1.0000 0.54380  0.54160  0.47390  Biso   1.000  H
  H6       1.0000 0.95620  0.45840  0.97390  Biso   1.000  H
  H7       1.0000 0.45620  0.04160  0.02610  Biso   1.000  H
  H8       1.0000 0.04380  0.95840  0.52610  Biso   1.000  H
  C17      1.0000 0.56660  0.40060  0.33353  Biso   1.000  C
  C18      1.0000 0.93340  0.59940  0.83353  Biso   1.000  C
  C19      1.0000 0.43340  0.90060  0.16647  Biso   1.000  C
  C20      1.0000 0.06660  0.09940  0.66647  Biso   1.000  C
  H9       1.0000 0.67550  0.44940  0.31140  Biso   1.000  H
  H10      1.0000 0.82450  0.55060  0.81140  Biso   1.000  H
  H11      1.0000 0.32450  0.94940  0.18860  Biso   1.000  H
  H12      1.0000 0.17550  0.05060  0.68860  Biso   1.000  H
  C21      1.0000 0.09710  0.33220  0.20517  Biso   1.000  C
  C22      1.0000 0.40290  0.66780  0.70517  Biso   1.000  C
  C23      1.0000 0.90290  0.83220  0.29483  Biso   1.000  C
  C24      1.0000 0.59710  0.16780  0.79483  Biso   1.000  C
  C25      1.0000 0.95130  0.24740  0.23464  Biso   1.000  C
  C26      1.0000 0.54870  0.75260  0.73464  Biso   1.000  C
  C27      1.0000 0.04870  0.74740  0.26536  Biso   1.000  C
  C28      1.0000 0.45130  0.25260  0.76536  Biso   1.000  C
  H13      1.0000 0.81450  0.21220  0.21280  Biso   1.000  H
  H14      1.0000 0.68550  0.78780  0.71280  Biso   1.000  H
  H15      1.0000 0.18550  0.71220  0.28720  Biso   1.000  H
  H16      1.0000 0.31450  0.28780  0.78720  Biso   1.000  H
  C29      1.0000 0.36120  0.34770  0.30024  Biso   1.000  C
  C30      1.0000 0.13880  0.65230  0.80024  Biso   1.000  C
  C31      1.0000 0.63880  0.84770  0.19976  Biso   1.000  C
  C32      1.0000 0.86120  0.15230  0.69976  Biso   1.000  C
  C33      1.0000 0.45470  0.46120  0.20643  Biso   1.000  C
  C34      1.0000 0.04530  0.53880  0.70643  Biso   1.000  C
  C35      1.0000 0.54530  0.96120  0.29357  Biso   1.000  C
  C36      1.0000 0.95470  0.03880  0.79357  Biso   1.000  C
  H17      1.0000 0.59890  0.49480  0.22650  Biso   1.000  H
  H18      1.0000 0.90110  0.50520  0.72650  Biso   1.000  H
  H19      1.0000 0.40110  0.99480  0.27350  Biso   1.000  H
  H20      1.0000 0.09890  0.00520  0.77350  Biso   1.000  H
  C37      1.0000 0.30930  0.38100  0.23749  Biso   1.000  C
  C38      1.0000 0.19070  0.61900  0.73749  Biso   1.000  C
  C39      1.0000 0.69070  0.88100  0.26251  Biso   1.000  C
  C40      1.0000 0.80930  0.11900  0.76251  Biso   1.000  C
  C41      1.0000 0.39250  0.49240  0.14736  Biso   1.000  C
  C42      1.0000 0.10750  0.50760  0.64736  Biso   1.000  C
  C43      1.0000 0.60750  0.99240  0.35264  Biso   1.000  C
  C44      1.0000 0.89250  0.00760  0.85264  Biso   1.000  C
  H21      1.0000 0.49570  0.54600  0.12730  Biso   1.000  H
  H22      1.0000 0.00430  0.45400  0.62730  Biso   1.000  H
  H23      1.0000 0.50430  0.04600  0.37270  Biso   1.000  H
  H24      1.0000 0.99570  0.95400  0.87270  Biso   1.000  H
  C45      1.0000 0.03390  0.36720  0.14527  Biso   1.000  C
  C46      1.0000 0.46610  0.63280  0.64527  Biso   1.000  C
  C47      1.0000 0.96610  0.86720  0.35473  Biso   1.000  C
  C48      1.0000 0.53390  0.13280  0.85473  Biso   1.000  C
  H25      1.0000 0.88890  0.33550  0.12460  Biso   1.000  H
  H26      1.0000 0.61110  0.66450  0.62460  Biso   1.000  H
  H27      1.0000 0.11110  0.83550  0.37540  Biso   1.000  H
  H28      1.0000 0.38890  0.16450  0.87540  Biso   1.000  H
  C49      1.0000 0.00270  0.21600  0.29255  Biso   1.000  C
  C50      1.0000 0.49730  0.78400  0.79255  Biso   1.000  C
  C51      1.0000 0.99730  0.71600  0.20745  Biso   1.000  C
  C52      1.0000 0.50270  0.28400  0.70745  Biso   1.000  C
  H29      1.0000 0.90180  0.15910  0.31020  Biso   1.000  H
  H30      1.0000 0.59820  0.84090  0.81020  Biso   1.000  H
  H31      1.0000 0.09820  0.65910  0.18980  Biso   1.000  H
  H32      1.0000 0.40180  0.34090  0.68980  Biso   1.000  H
  C53      1.0000 0.17840  0.44550  0.11702  Biso   1.000  C
  C54      1.0000 0.32160  0.55450  0.61702  Biso   1.000  C
  C55      1.0000 0.82160  0.94550  0.38298  Biso   1.000  C
  C56      1.0000 0.67840  0.05450  0.88298  Biso   1.000  C
  H33      1.0000 0.13430  0.46830  0.07690  Biso   1.000  H
  H34      1.0000 0.36570  0.53170  0.57690  Biso   1.000  H
  H35      1.0000 0.86570  0.96830  0.42310  Biso   1.000  H
  H36      1.0000 0.63430  0.03170  0.92310  Biso   1.000  H
  C57      1.0000 0.88490  0.63290  0.48000  Biso   1.000  C
  C58      1.0000 0.61510  0.36710  0.98000  Biso   1.000  C
  C59      1.0000 0.11510  0.13290  0.02000  Biso   1.000  C
  C60      1.0000 0.38490  0.86710  0.52000  Biso   1.000  C
  H37      1.0000 0.03510  0.64910  0.45360  Biso   1.000  H
  H38      1.0000 0.46490  0.35090  0.95360  Biso   1.000  H
  H39      1.0000 0.96490  0.14910  0.04640  Biso   1.000  H
  H40      1.0000 0.53510  0.85090  0.54640  Biso   1.000  H
  H41      1.0000 0.94550  0.59350  0.51620  Biso   1.000  H
  H42      1.0000 0.55450  0.40650  0.01620  Biso   1.000  H
  H43      1.0000 0.05450  0.09350  0.98380  Biso   1.000  H
  H44      1.0000 0.44550  0.90650  0.48380  Biso   1.000  H
  H45      1.0000 0.80080  0.70100  0.49250  Biso   1.000  H
  H46      1.0000 0.69920  0.29900  0.99250  Biso   1.000  H
  H47      1.0000 0.19920  0.20100  0.00750  Biso   1.000  H
  H48      1.0000 0.30080  0.79900  0.50750  Biso   1.000  H
  C61      1.0000 0.56660  0.62860  0.39304  Biso   1.000  C
  C62      1.0000 0.93340  0.37140  0.89304  Biso   1.000  C
  C63      1.0000 0.43340  0.12860  0.10696  Biso   1.000  C
  C64      1.0000 0.06660  0.87140  0.60696  Biso   1.000  C
  H49      1.0000 0.50880  0.69940  0.40850  Biso   1.000  H
  H50      1.0000 0.99120  0.30060  0.90850  Biso   1.000  H
  H51      1.0000 0.49120  0.19940  0.09150  Biso   1.000  H
  H52      1.0000 0.00880  0.80060  0.59150  Biso   1.000  H
  H53      1.0000 0.41570  0.58910  0.37630  Biso   1.000  H
  H54      1.0000 0.08430  0.41090  0.87630  Biso   1.000  H
  H55      1.0000 0.58430  0.08910  0.12370  Biso   1.000  H
  H56      1.0000 0.91570  0.91090  0.62370  Biso   1.000  H
  H57      1.0000 0.69770  0.63930  0.36090  Biso   1.000  H
  H58      1.0000 0.80230  0.36070  0.86090  Biso   1.000  H
  H59      1.0000 0.30230  0.13930  0.13910  Biso   1.000  H
  H60      1.0000 0.19770  0.86070  0.63910  Biso   1.000  H
