data_image0
_cell_length_a       6.5379
_cell_length_b       15.8276
_cell_length_c       10.0007
_cell_angle_alpha    90
_cell_angle_beta     95.153
_cell_angle_gamma    90

_symmetry_space_group_name_H-M    "P 1"
_symmetry_int_tables_number       1

loop_
  _symmetry_equiv_pos_as_xyz
  'x, y, z'

loop_
  _atom_site_label
  _atom_site_occupancy
  _atom_site_fract_x
  _atom_site_fract_y
  _atom_site_fract_z
  _atom_site_thermal_displace_type
  _atom_site_B_iso_or_equiv
  _atom_site_type_symbol
  Cd1      1.0000 0.04751  0.91601  0.83109  Biso   1.000  Cd
  Cd2      1.0000 0.95249  0.41601  0.16891  Biso   1.000  Cd
  Cd3      1.0000 0.44555  0.82502  0.16988  Biso   1.000  Cd
  Cd4      1.0000 0.55445  0.32502  0.83012  Biso   1.000  Cd
  Cu1      1.0000 0.90074  0.67348  0.26016  Biso   1.000  Cu
  Cu2      1.0000 0.09926  0.17348  0.73984  Biso   1.000  Cu
  Cu3      1.0000 0.77787  0.81668  0.42986  Biso   1.000  Cu
  Cu4      1.0000 0.22213  0.31668  0.57014  Biso   1.000  Cu
  O1       1.0000 0.81670  0.43740  0.37020  Biso   1.000  O
  O2       1.0000 0.18330  0.93740  0.62980  Biso   1.000  O
  O3       1.0000 0.93070  0.55530  0.29220  Biso   1.000  O
  O4       1.0000 0.06930  0.05530  0.70780  Biso   1.000  O
  O5       1.0000 0.87020  0.39190  0.86070  Biso   1.000  O
  O6       1.0000 0.12980  0.89190  0.13930  Biso   1.000  O
  O7       1.0000 0.89040  0.50300  0.99560  Biso   1.000  O
  O8       1.0000 0.10960  0.00300  0.00440  Biso   1.000  O
  O9       1.0000 0.92100  0.78380  0.82420  Biso   1.000  O
  O10      1.0000 0.07900  0.28380  0.17580  Biso   1.000  O
  O11      1.0000 0.82720  0.82450  0.61980  Biso   1.000  O
  O12      1.0000 0.17280  0.32450  0.38020  Biso   1.000  O
  O13      1.0000 0.82530  0.69460  0.43730  Biso   1.000  O
  O14      1.0000 0.17470  0.19460  0.56270  Biso   1.000  O
  O15      1.0000 0.25380  0.70510  0.30220  Biso   1.000  O
  O16      1.0000 0.74620  0.20510  0.69780  Biso   1.000  O
  O17      1.0000 0.42900  0.80830  0.39580  Biso   1.000  O
  O18      1.0000 0.57100  0.30830  0.60420  Biso   1.000  O
  O19      1.0000 0.25990  0.43850  0.58840  Biso   1.000  O
  O20      1.0000 0.74010  0.93850  0.41160  Biso   1.000  O
  O21      1.0000 0.40310  0.45050  0.80190  Biso   1.000  O
  O22      1.0000 0.59690  0.95050  0.19810  Biso   1.000  O
  O23      1.0000 0.40410  0.72900  0.01220  Biso   1.000  O
  O24      1.0000 0.59590  0.22900  0.98780  Biso   1.000  O
  O25      1.0000 0.37420  0.84420  0.89210  Biso   1.000  O
  O26      1.0000 0.62580  0.34420  0.10790  Biso   1.000  O
  O27      1.0000 0.79780  0.78790  0.23890  Biso   1.000  O
  O28      1.0000 0.20220  0.28790  0.76110  Biso   1.000  O
  H1       1.0000 0.89480  0.82480  0.19760  Biso   1.000  H
  H2       1.0000 0.10520  0.32480  0.80240  Biso   1.000  H
  C1       1.0000 0.83880  0.55230  0.51960  Biso   1.000  C
  C2       1.0000 0.16120  0.05230  0.48040  Biso   1.000  C
  C3       1.0000 0.83980  0.49880  0.63280  Biso   1.000  C
  C4       1.0000 0.16020  0.99880  0.36720  Biso   1.000  C
  H3       1.0000 0.83540  0.44060  0.61980  Biso   1.000  H
  H4       1.0000 0.16460  0.94060  0.38020  Biso   1.000  H
  C5       1.0000 0.84710  0.52960  0.76010  Biso   1.000  C
  C6       1.0000 0.15290  0.02960  0.23990  Biso   1.000  C
  C7       1.0000 0.84910  0.61740  0.77810  Biso   1.000  C
  C8       1.0000 0.15090  0.11740  0.22190  Biso   1.000  C
  H5       1.0000 0.85470  0.63870  0.86500  Biso   1.000  H
  H6       1.0000 0.14530  0.13870  0.13500  Biso   1.000  H
  C9       1.0000 0.84310  0.67270  0.67340  Biso   1.000  C
  C10      1.0000 0.15690  0.17270  0.32660  Biso   1.000  C
  C11      1.0000 0.83500  0.64210  0.54120  Biso   1.000  C
  C12      1.0000 0.16500  0.14210  0.45880  Biso   1.000  C
  C13      1.0000 0.85660  0.51410  0.38960  Biso   1.000  C
  C14      1.0000 0.14340  0.01410  0.61040  Biso   1.000  C
  C15      1.0000 0.86800  0.47140  0.87660  Biso   1.000  C
  C16      1.0000 0.13200  0.97140  0.12340  Biso   1.000  C
  C17      1.0000 0.86380  0.76370  0.70630  Biso   1.000  C
  C18      1.0000 0.13620  0.26370  0.29370  Biso   1.000  C
  C19      1.0000 0.33340  0.69850  0.53620  Biso   1.000  C
  C20      1.0000 0.66660  0.19850  0.46380  Biso   1.000  C
  C21      1.0000 0.31990  0.61090  0.54690  Biso   1.000  C
  C22      1.0000 0.68010  0.11090  0.45310  Biso   1.000  C
  H7       1.0000 0.30170  0.57770  0.47010  Biso   1.000  H
  H8       1.0000 0.69830  0.07770  0.52990  Biso   1.000  H
  C23      1.0000 0.33410  0.57320  0.67470  Biso   1.000  C
  C24      1.0000 0.66590  0.07320  0.32530  Biso   1.000  C
  C25      1.0000 0.35640  0.62480  0.78810  Biso   1.000  C
  C26      1.0000 0.64360  0.12480  0.21190  Biso   1.000  C
  H9       1.0000 0.36810  0.60030  0.87290  Biso   1.000  H
  H10      1.0000 0.63190  0.10030  0.12710  Biso   1.000  H
  C27      1.0000 0.36150  0.71140  0.77660  Biso   1.000  C
  C28      1.0000 0.63850  0.21140  0.22340  Biso   1.000  C
  C29      1.0000 0.35550  0.74880  0.64940  Biso   1.000  C
  C30      1.0000 0.64450  0.24880  0.35060  Biso   1.000  C
  H11      1.0000 0.36630  0.80710  0.64120  Biso   1.000  H
  H12      1.0000 0.63370  0.30710  0.35880  Biso   1.000  H
  C31      1.0000 0.34010  0.73830  0.40050  Biso   1.000  C
  C32      1.0000 0.65990  0.23830  0.59950  Biso   1.000  C
  C33      1.0000 0.33580  0.47850  0.69150  Biso   1.000  C
  C34      1.0000 0.66420  0.97850  0.30850  Biso   1.000  C
  C35      1.0000 0.38320  0.76640  0.90030  Biso   1.000  C
  C36      1.0000 0.61680  0.26640  0.09970  Biso   1.000  C
  O29      1.0000 0.99460  0.66120  0.08080  Biso   1.000  O
  O30      1.0000 0.00540  0.16120  0.91920  Biso   1.000  O
  O31      1.0000 0.70620  0.95660  0.84120  Biso   1.000  O
  O32      1.0000 0.29380  0.45660  0.15880  Biso   1.000  O
  H13      1.0000 0.10100  0.67300  0.04100  Biso   1.000  H
  H14      1.0000 0.89900  0.17300  0.95900  Biso   1.000  H
  H15      1.0000 0.99000  0.60760  0.08100  Biso   1.000  H
  H16      1.0000 0.01000  0.10760  0.91900  Biso   1.000  H
  H17      1.0000 0.64000  0.99800  0.87300  Biso   1.000  H
  H18      1.0000 0.36000  0.49800  0.12700  Biso   1.000  H
  H19      1.0000 0.72000  0.97200  0.76200  Biso   1.000  H
  H20      1.0000 0.28000  0.47200  0.23800  Biso   1.000  H
