data_image0
_cell_length_a       12.946
_cell_length_b       4.5896
_cell_length_c       14.611
_cell_angle_alpha    90
_cell_angle_beta     100.14
_cell_angle_gamma    90

_symmetry_space_group_name_H-M    "P 1"
_symmetry_int_tables_number       1

loop_
  _symmetry_equiv_pos_as_xyz
  'x, y, z'

loop_
  _atom_site_label
  _atom_site_occupancy
  _atom_site_fract_x
  _atom_site_fract_y
  _atom_site_fract_z
  _atom_site_thermal_displace_type
  _atom_site_B_iso_or_equiv
  _atom_site_type_symbol
  Cu1      1.0000 0.00000  0.00000  0.50000  Biso   1.000  Cu
  Cu2      1.0000 0.00000  0.50000  0.00000  Biso   1.000  Cu
  N1       1.0000 0.76498  0.38620  0.66836  Biso   1.000  N
  N2       1.0000 0.23502  0.88620  0.83164  Biso   1.000  N
  N3       1.0000 0.23502  0.61380  0.33164  Biso   1.000  N
  N4       1.0000 0.76498  0.11380  0.16836  Biso   1.000  N
  C1       1.0000 0.70360  0.40250  0.58160  Biso   1.000  C
  C2       1.0000 0.29640  0.90250  0.91840  Biso   1.000  C
  C3       1.0000 0.29640  0.59750  0.41840  Biso   1.000  C
  C4       1.0000 0.70360  0.09750  0.08160  Biso   1.000  C
  O1       1.0000 0.72210  0.57410  0.52210  Biso   1.000  O
  O2       1.0000 0.27790  0.07410  0.97790  Biso   1.000  O
  O3       1.0000 0.27790  0.42590  0.47790  Biso   1.000  O
  O4       1.0000 0.72210  0.92590  0.02210  Biso   1.000  O
  N5       1.0000 0.62030  0.21380  0.56601  Biso   1.000  N
  N6       1.0000 0.37970  0.71380  0.93399  Biso   1.000  N
  N7       1.0000 0.37970  0.78620  0.43399  Biso   1.000  N
  N8       1.0000 0.62030  0.28620  0.06601  Biso   1.000  N
  H1       1.0000 0.58210  0.21730  0.51150  Biso   1.000  H
  H2       1.0000 0.41790  0.71730  0.98850  Biso   1.000  H
  H3       1.0000 0.41790  0.78270  0.48850  Biso   1.000  H
  H4       1.0000 0.58210  0.28270  0.01150  Biso   1.000  H
  C5       1.0000 0.59140  0.01790  0.62910  Biso   1.000  C
  C6       1.0000 0.40860  0.51790  0.87090  Biso   1.000  C
  C7       1.0000 0.40860  0.98210  0.37090  Biso   1.000  C
  C8       1.0000 0.59140  0.48210  0.12910  Biso   1.000  C
  O5       1.0000 0.51737  0.85070  0.60651  Biso   1.000  O
  O6       1.0000 0.48263  0.35070  0.89349  Biso   1.000  O
  O7       1.0000 0.48263  0.14930  0.39349  Biso   1.000  O
  O8       1.0000 0.51737  0.64930  0.10651  Biso   1.000  O
  C9       1.0000 0.65410  0.02950  0.72240  Biso   1.000  C
  C10      1.0000 0.34590  0.52950  0.77760  Biso   1.000  C
  C11      1.0000 0.34590  0.97050  0.27760  Biso   1.000  C
  C12      1.0000 0.65410  0.47050  0.22240  Biso   1.000  C
  C13      1.0000 0.73790  0.20640  0.73690  Biso   1.000  C
  C14      1.0000 0.26210  0.70640  0.76310  Biso   1.000  C
  C15      1.0000 0.26210  0.79360  0.26310  Biso   1.000  C
  C16      1.0000 0.73790  0.29360  0.23690  Biso   1.000  C
  H5       1.0000 0.77970  0.20890  0.79560  Biso   1.000  H
  H6       1.0000 0.22030  0.70890  0.70440  Biso   1.000  H
  H7       1.0000 0.22030  0.79110  0.20440  Biso   1.000  H
  H8       1.0000 0.77970  0.29110  0.29560  Biso   1.000  H
  C17      1.0000 0.62010  0.84660  0.79660  Biso   1.000  C
  C18      1.0000 0.37990  0.34660  0.70340  Biso   1.000  C
  C19      1.0000 0.37990  0.15340  0.20340  Biso   1.000  C
  C20      1.0000 0.62010  0.65340  0.29660  Biso   1.000  C
  H9       1.0000 0.55520  0.92070  0.81040  Biso   1.000  H
  H10      1.0000 0.44480  0.42070  0.68960  Biso   1.000  H
  H11      1.0000 0.44480  0.07930  0.18960  Biso   1.000  H
  H12      1.0000 0.55520  0.57930  0.31040  Biso   1.000  H
  H13      1.0000 0.67280  0.85290  0.85170  Biso   1.000  H
  H14      1.0000 0.32720  0.35290  0.64830  Biso   1.000  H
  H15      1.0000 0.32720  0.14710  0.14830  Biso   1.000  H
  H16      1.0000 0.67280  0.64710  0.35170  Biso   1.000  H
  H17      1.0000 0.61030  0.64900  0.77530  Biso   1.000  H
  H18      1.0000 0.38970  0.14900  0.72470  Biso   1.000  H
  H19      1.0000 0.38970  0.35100  0.22470  Biso   1.000  H
  H20      1.0000 0.61030  0.85100  0.27530  Biso   1.000  H
  C21      1.0000 0.86310  0.54790  0.68380  Biso   1.000  C
  C22      1.0000 0.13690  0.04790  0.81620  Biso   1.000  C
  C23      1.0000 0.13690  0.45210  0.31620  Biso   1.000  C
  C24      1.0000 0.86310  0.95210  0.18380  Biso   1.000  C
  H21      1.0000 0.89390  0.53730  0.74920  Biso   1.000  H
  H22      1.0000 0.10610  0.03730  0.75080  Biso   1.000  H
  H23      1.0000 0.10610  0.46270  0.25080  Biso   1.000  H
  H24      1.0000 0.89390  0.96270  0.24920  Biso   1.000  H
  H25      1.0000 0.84830  0.75110  0.66860  Biso   1.000  H
  H26      1.0000 0.15170  0.25110  0.83140  Biso   1.000  H
  H27      1.0000 0.15170  0.24890  0.33140  Biso   1.000  H
  H28      1.0000 0.84830  0.74890  0.16860  Biso   1.000  H
  C25      1.0000 0.94280  0.43560  0.62640  Biso   1.000  C
  C26      1.0000 0.05720  0.93560  0.87360  Biso   1.000  C
  C27      1.0000 0.05720  0.56440  0.37360  Biso   1.000  C
  C28      1.0000 0.94280  0.06440  0.12640  Biso   1.000  C
  O9       1.0000 0.92171  0.19640  0.58401  Biso   1.000  O
  O10      1.0000 0.07829  0.69640  0.91599  Biso   1.000  O
  O11      1.0000 0.07829  0.80360  0.41599  Biso   1.000  O
  O12      1.0000 0.92171  0.30360  0.08401  Biso   1.000  O
  O13      1.0000 0.02316  0.58840  0.62662  Biso   1.000  O
  O14      1.0000 0.97684  0.08840  0.87338  Biso   1.000  O
  O15      1.0000 0.97684  0.41160  0.37338  Biso   1.000  O
  O16      1.0000 0.02316  0.91160  0.12662  Biso   1.000  O
  O17      1.0000 0.13083  0.17890  0.56084  Biso   1.000  O
  O18      1.0000 0.86917  0.67890  0.93916  Biso   1.000  O
  O19      1.0000 0.86917  0.82110  0.43916  Biso   1.000  O
  O20      1.0000 0.13083  0.32110  0.06084  Biso   1.000  O
  H29      1.0000 0.17150  0.21910  0.52070  Biso   1.000  H
  H30      1.0000 0.82850  0.71910  0.97930  Biso   1.000  H
  H31      1.0000 0.82850  0.78090  0.47930  Biso   1.000  H
  H32      1.0000 0.17150  0.28090  0.02070  Biso   1.000  H
  H33      1.0000 0.11860  0.34150  0.58820  Biso   1.000  H
  H34      1.0000 0.88140  0.84150  0.91180  Biso   1.000  H
  H35      1.0000 0.88140  0.65850  0.41180  Biso   1.000  H
  H36      1.0000 0.11860  0.15850  0.08820  Biso   1.000  H
