data_image0
_cell_length_a       5.567
_cell_length_b       12.438
_cell_length_c       14.775
_cell_angle_alpha    105.241
_cell_angle_beta     100.679
_cell_angle_gamma    101.897

_symmetry_space_group_name_H-M    "P 1"
_symmetry_int_tables_number       1

loop_
  _symmetry_equiv_pos_as_xyz
  'x, y, z'

loop_
  _atom_site_label
  _atom_site_occupancy
  _atom_site_fract_x
  _atom_site_fract_y
  _atom_site_fract_z
  _atom_site_thermal_displace_type
  _atom_site_B_iso_or_equiv
  _atom_site_type_symbol
  Cu1      1.0000 0.00000  0.00000  0.50000  Biso   1.000  Cu
  Cu2      1.0000 0.48361  0.88442  0.51305  Biso   1.000  Cu
  Cu3      1.0000 0.51639  0.11558  0.48695  Biso   1.000  Cu
  N1       1.0000 0.58790  0.54370  0.33600  Biso   1.000  N
  N2       1.0000 0.41210  0.45630  0.66400  Biso   1.000  N
  C1       1.0000 0.50650  0.44930  0.36510  Biso   1.000  C
  C2       1.0000 0.49350  0.55070  0.63490  Biso   1.000  C
  N3       1.0000 0.26240  0.38450  0.31790  Biso   1.000  N
  N4       1.0000 0.73760  0.61550  0.68210  Biso   1.000  N
  H1       1.0000 0.20730  0.32490  0.33490  Biso   1.000  H
  H2       1.0000 0.79270  0.67510  0.66510  Biso   1.000  H
  C3       1.0000 0.09340  0.40400  0.24560  Biso   1.000  C
  C4       1.0000 0.90660  0.59600  0.75440  Biso   1.000  C
  C5       1.0000 0.19740  0.50060  0.21460  Biso   1.000  C
  C6       1.0000 0.80260  0.49940  0.78540  Biso   1.000  C
  C7       1.0000 0.43550  0.56570  0.26120  Biso   1.000  C
  C8       1.0000 0.56450  0.43430  0.73880  Biso   1.000  C
  H3       1.0000 0.50130  0.62880  0.24220  Biso   1.000  H
  H4       1.0000 0.49870  0.37120  0.75780  Biso   1.000  H
  O1       1.0000 0.64180  0.42400  0.42762  Biso   1.000  O
  O2       1.0000 0.35820  0.57600  0.57238  Biso   1.000  O
  O3       1.0000 0.87710  0.34070  0.21290  Biso   1.000  O
  O4       1.0000 0.12290  0.65930  0.78710  Biso   1.000  O
  C9       1.0000 0.03680  0.52300  0.13230  Biso   1.000  C
  C10      1.0000 0.96320  0.47700  0.86770  Biso   1.000  C
  H5       1.0000 0.13120  0.58810  0.11870  Biso   1.000  H
  H6       1.0000 0.86880  0.41190  0.88130  Biso   1.000  H
  H7       1.0000 0.88700  0.53920  0.14940  Biso   1.000  H
  H8       1.0000 0.11300  0.46080  0.85060  Biso   1.000  H
  H9       1.0000 0.98920  0.45600  0.07580  Biso   1.000  H
  H10      1.0000 0.01080  0.54400  0.92420  Biso   1.000  H
  C11      1.0000 0.83050  0.62880  0.38740  Biso   1.000  C
  C12      1.0000 0.16950  0.37120  0.61260  Biso   1.000  C
  H11      1.0000 0.93720  0.63350  0.34280  Biso   1.000  H
  H12      1.0000 0.06280  0.36650  0.65720  Biso   1.000  H
  H13      1.0000 0.91620  0.60420  0.43860  Biso   1.000  H
  H14      1.0000 0.08380  0.39580  0.56140  Biso   1.000  H
  C13      1.0000 0.79330  0.74710  0.43100  Biso   1.000  C
  C14      1.0000 0.20670  0.25290  0.56900  Biso   1.000  C
  O5       1.0000 0.97920  0.83307  0.44464  Biso   1.000  O
  O6       1.0000 0.02080  0.16693  0.55536  Biso   1.000  O
  O7       1.0000 0.58310  0.75006  0.44978  Biso   1.000  O
  O8       1.0000 0.41690  0.24994  0.55022  Biso   1.000  O
  N5       1.0000 0.89850  0.89440  0.85490  Biso   1.000  N
  N6       1.0000 0.10150  0.10560  0.14510  Biso   1.000  N
  C15      1.0000 0.14710  0.93160  0.90550  Biso   1.000  C
  C16      1.0000 0.85290  0.06840  0.09450  Biso   1.000  C
  N7       1.0000 0.20910  0.88560  0.97870  Biso   1.000  N
  N8       1.0000 0.79090  0.11440  0.02130  Biso   1.000  N
  H15      1.0000 0.36510  0.90840  0.01150  Biso   1.000  H
  H16      1.0000 0.63490  0.09160  0.98850  Biso   1.000  H
  C17      1.0000 0.04650  0.80650  0.00490  Biso   1.000  C
  C18      1.0000 0.95350  0.19350  0.99510  Biso   1.000  C
  C19      1.0000 0.78700  0.76770  0.94740  Biso   1.000  C
  C20      1.0000 0.21300  0.23230  0.05260  Biso   1.000  C
  C21      1.0000 0.72470  0.81370  0.87570  Biso   1.000  C
  C22      1.0000 0.27530  0.18630  0.12430  Biso   1.000  C
  H17      1.0000 0.55740  0.79000  0.83880  Biso   1.000  H
  H18      1.0000 0.44260  0.21000  0.16120  Biso   1.000  H
  O9       1.0000 0.30520  0.00510  0.88983  Biso   1.000  O
  O10      1.0000 0.69480  0.99490  0.11017  Biso   1.000  O
  O11      1.0000 0.12760  0.77500  0.07471  Biso   1.000  O
  O12      1.0000 0.87240  0.22500  0.92529  Biso   1.000  O
  C23      1.0000 0.59860  0.68430  0.97360  Biso   1.000  C
  C24      1.0000 0.40140  0.31570  0.02640  Biso   1.000  C
  H19      1.0000 0.57790  0.72080  0.03650  Biso   1.000  H
  H20      1.0000 0.42210  0.27920  0.96350  Biso   1.000  H
  H21      1.0000 0.65850  0.61750  0.97470  Biso   1.000  H
  H22      1.0000 0.34150  0.38250  0.02530  Biso   1.000  H
  H23      1.0000 0.43850  0.66110  0.92640  Biso   1.000  H
  H24      1.0000 0.56150  0.33890  0.07360  Biso   1.000  H
  C25      1.0000 0.81870  0.95200  0.78490  Biso   1.000  C
  C26      1.0000 0.18130  0.04800  0.21510  Biso   1.000  C
  H25      1.0000 0.88770  0.03480  0.81530  Biso   1.000  H
  H26      1.0000 0.11230  0.96520  0.18470  Biso   1.000  H
  H27      1.0000 0.63520  0.93580  0.76980  Biso   1.000  H
  H28      1.0000 0.36480  0.06420  0.23020  Biso   1.000  H
  C27      1.0000 0.89740  0.91770  0.69000  Biso   1.000  C
  C28      1.0000 0.10260  0.08230  0.31000  Biso   1.000  C
  O13      1.0000 0.86610  0.98290  0.63847  Biso   1.000  O
  O14      1.0000 0.13390  0.01710  0.36153  Biso   1.000  O
  O15      1.0000 0.97650  0.82970  0.66922  Biso   1.000  O
  O16      1.0000 0.02350  0.17030  0.33078  Biso   1.000  O
  O17      1.0000 0.64050  0.97922  0.44108  Biso   1.000  O
  O18      1.0000 0.35950  0.02078  0.55892  Biso   1.000  O
  O19      1.0000 0.36040  0.79931  0.59625  Biso   1.000  O
  O20      1.0000 0.63960  0.20069  0.40375  Biso   1.000  O
  H29      1.0000 0.59630  0.95770  0.38460  Biso   1.000  H
  H30      1.0000 0.40370  0.04230  0.61540  Biso   1.000  H
  H31      1.0000 0.35680  0.72840  0.58740  Biso   1.000  H
  H32      1.0000 0.64320  0.27160  0.41260  Biso   1.000  H
  H33      1.0000 0.26520  0.81590  0.63410  Biso   1.000  H
  H34      1.0000 0.73480  0.18410  0.36590  Biso   1.000  H
  O21      1.0000 0.46990  0.14590  0.74760  Biso   1.000  O
  O22      1.0000 0.53010  0.85410  0.25240  Biso   1.000  O
  H35      1.0000 0.54580  0.14680  0.80380  Biso   1.000  H
  H36      1.0000 0.45420  0.85320  0.19620  Biso   1.000  H
  H37      1.0000 0.40490  0.20280  0.75570  Biso   1.000  H
  H38      1.0000 0.59510  0.79720  0.24430  Biso   1.000  H
  O23      1.0000 0.92790  0.76930  0.23480  Biso   1.000  O
  O24      1.0000 0.07210  0.23070  0.76520  Biso   1.000  O
  H39      1.0000 0.99900  0.77960  0.19020  Biso   1.000  H
  H40      1.0000 0.00100  0.22040  0.80980  Biso   1.000  H
  H41      1.0000 0.98990  0.83130  0.28330  Biso   1.000  H
  H42      1.0000 0.01010  0.16870  0.71670  Biso   1.000  H
