data_image0
_cell_length_a       7.3452
_cell_length_b       13.6255
_cell_length_c       16.7375
_cell_angle_alpha    90
_cell_angle_beta     90.77
_cell_angle_gamma    90

_symmetry_space_group_name_H-M    "P 1"
_symmetry_int_tables_number       1

loop_
  _symmetry_equiv_pos_as_xyz
  'x, y, z'

loop_
  _atom_site_label
  _atom_site_occupancy
  _atom_site_fract_x
  _atom_site_fract_y
  _atom_site_fract_z
  _atom_site_thermal_displace_type
  _atom_site_B_iso_or_equiv
  _atom_site_type_symbol
  C1       1.0000 0.59150  0.18940  0.35470  Biso   1.000  C
  C2       1.0000 0.40850  0.68940  0.14530  Biso   1.000  C
  C3       1.0000 0.40850  0.81060  0.64530  Biso   1.000  C
  C4       1.0000 0.59150  0.31060  0.85470  Biso   1.000  C
  H1       1.0000 0.70710  0.16320  0.34760  Biso   1.000  H
  H2       1.0000 0.29290  0.66320  0.15240  Biso   1.000  H
  H3       1.0000 0.29290  0.83680  0.65240  Biso   1.000  H
  H4       1.0000 0.70710  0.33680  0.84760  Biso   1.000  H
  C5       1.0000 0.45080  0.15980  0.30470  Biso   1.000  C
  C6       1.0000 0.54920  0.65980  0.19530  Biso   1.000  C
  C7       1.0000 0.54920  0.84020  0.69530  Biso   1.000  C
  C8       1.0000 0.45080  0.34020  0.80470  Biso   1.000  C
  H5       1.0000 0.47060  0.11390  0.26470  Biso   1.000  H
  H6       1.0000 0.52940  0.61390  0.23530  Biso   1.000  H
  H7       1.0000 0.52940  0.88610  0.73530  Biso   1.000  H
  H8       1.0000 0.47060  0.38610  0.76470  Biso   1.000  H
  C9       1.0000 0.28100  0.19950  0.31540  Biso   1.000  C
  C10      1.0000 0.71900  0.69950  0.18460  Biso   1.000  C
  C11      1.0000 0.71900  0.80050  0.68460  Biso   1.000  C
  C12      1.0000 0.28100  0.30050  0.81540  Biso   1.000  C
  H9       1.0000 0.18530  0.18100  0.28170  Biso   1.000  H
  H10      1.0000 0.81470  0.68100  0.21830  Biso   1.000  H
  H11      1.0000 0.81470  0.81900  0.71830  Biso   1.000  H
  H12      1.0000 0.18530  0.31900  0.78170  Biso   1.000  H
  C13      1.0000 0.25080  0.26680  0.37573  Biso   1.000  C
  C14      1.0000 0.74920  0.76680  0.12427  Biso   1.000  C
  C15      1.0000 0.74920  0.73320  0.62427  Biso   1.000  C
  C16      1.0000 0.25080  0.23320  0.87573  Biso   1.000  C
  C17      1.0000 0.39810  0.29320  0.42307  Biso   1.000  C
  C18      1.0000 0.60190  0.79320  0.07693  Biso   1.000  C
  C19      1.0000 0.60190  0.70680  0.57693  Biso   1.000  C
  C20      1.0000 0.39810  0.20680  0.92307  Biso   1.000  C
  C21      1.0000 0.38910  0.36610  0.49040  Biso   1.000  C
  C22      1.0000 0.61090  0.86610  0.00960  Biso   1.000  C
  C23      1.0000 0.61090  0.63390  0.50960  Biso   1.000  C
  C24      1.0000 0.38910  0.13390  0.99040  Biso   1.000  C
  C25      1.0000 0.06000  0.30640  0.38828  Biso   1.000  C
  C26      1.0000 0.94000  0.80640  0.11172  Biso   1.000  C
  C27      1.0000 0.94000  0.69360  0.61172  Biso   1.000  C
  C28      1.0000 0.06000  0.19360  0.88828  Biso   1.000  C
  C29      1.0000 0.91970  0.34840  0.64070  Biso   1.000  C
  C30      1.0000 0.08030  0.84840  0.85930  Biso   1.000  C
  C31      1.0000 0.08030  0.65160  0.35930  Biso   1.000  C
  C32      1.0000 0.91970  0.15160  0.14070  Biso   1.000  C
  H13      1.0000 0.82640  0.37420  0.67540  Biso   1.000  H
  H14      1.0000 0.17360  0.87420  0.82460  Biso   1.000  H
  H15      1.0000 0.17360  0.62580  0.32460  Biso   1.000  H
  H16      1.0000 0.82640  0.12580  0.17540  Biso   1.000  H
  H17      1.0000 0.03640  0.37020  0.66190  Biso   1.000  H
  H18      1.0000 0.96360  0.87020  0.83810  Biso   1.000  H
  H19      1.0000 0.96360  0.62980  0.33810  Biso   1.000  H
  H20      1.0000 0.03640  0.12980  0.16190  Biso   1.000  H
  C33      1.0000 0.91410  0.23620  0.64510  Biso   1.000  C
  C34      1.0000 0.08590  0.73620  0.85490  Biso   1.000  C
  C35      1.0000 0.08590  0.76380  0.35490  Biso   1.000  C
  C36      1.0000 0.91410  0.26380  0.14510  Biso   1.000  C
  H21      1.0000 0.03310  0.21110  0.63120  Biso   1.000  H
  H22      1.0000 0.96690  0.71110  0.86880  Biso   1.000  H
  H23      1.0000 0.96690  0.78890  0.36880  Biso   1.000  H
  H24      1.0000 0.03310  0.28890  0.13120  Biso   1.000  H
  H25      1.0000 0.89170  0.21730  0.70000  Biso   1.000  H
  H26      1.0000 0.10830  0.71730  0.80000  Biso   1.000  H
  H27      1.0000 0.10830  0.78270  0.30000  Biso   1.000  H
  H28      1.0000 0.89170  0.28270  0.20000  Biso   1.000  H
  C37      1.0000 0.61420  0.16850  0.63780  Biso   1.000  C
  C38      1.0000 0.38580  0.66850  0.86220  Biso   1.000  C
  C39      1.0000 0.38580  0.83150  0.36220  Biso   1.000  C
  C40      1.0000 0.61420  0.33150  0.13780  Biso   1.000  C
  H29      1.0000 0.56120  0.23020  0.65460  Biso   1.000  H
  H30      1.0000 0.43880  0.73020  0.84540  Biso   1.000  H
  H31      1.0000 0.43880  0.76980  0.34540  Biso   1.000  H
  H32      1.0000 0.56120  0.26980  0.15460  Biso   1.000  H
  H33      1.0000 0.64550  0.13160  0.68560  Biso   1.000  H
  H34      1.0000 0.35450  0.63160  0.81440  Biso   1.000  H
  H35      1.0000 0.35450  0.86840  0.31440  Biso   1.000  H
  H36      1.0000 0.64550  0.36840  0.18560  Biso   1.000  H
  C41      1.0000 0.47560  0.11310  0.59240  Biso   1.000  C
  C42      1.0000 0.52440  0.61310  0.90760  Biso   1.000  C
  C43      1.0000 0.52440  0.88690  0.40760  Biso   1.000  C
  C44      1.0000 0.47560  0.38690  0.09240  Biso   1.000  C
  H37      1.0000 0.52530  0.05130  0.57610  Biso   1.000  H
  H38      1.0000 0.47470  0.55130  0.92390  Biso   1.000  H
  H39      1.0000 0.47470  0.94870  0.42390  Biso   1.000  H
  H40      1.0000 0.52530  0.44870  0.07610  Biso   1.000  H
  H41      1.0000 0.43910  0.15010  0.54600  Biso   1.000  H
  H42      1.0000 0.56090  0.65010  0.95400  Biso   1.000  H
  H43      1.0000 0.56090  0.84990  0.45400  Biso   1.000  H
  H44      1.0000 0.43910  0.34990  0.04600  Biso   1.000  H
  H45      1.0000 0.37180  0.10200  0.62550  Biso   1.000  H
  H46      1.0000 0.62820  0.60200  0.87450  Biso   1.000  H
  H47      1.0000 0.62820  0.89800  0.37450  Biso   1.000  H
  H48      1.0000 0.37180  0.39800  0.12550  Biso   1.000  H
  C45      1.0000 0.87120  0.10080  0.56800  Biso   1.000  C
  C46      1.0000 0.12880  0.60080  0.93200  Biso   1.000  C
  C47      1.0000 0.12880  0.89920  0.43200  Biso   1.000  C
  C48      1.0000 0.87120  0.39920  0.06800  Biso   1.000  C
  H49      1.0000 0.97900  0.12000  0.53900  Biso   1.000  H
  H50      1.0000 0.02100  0.62000  0.96100  Biso   1.000  H
  H51      1.0000 0.02100  0.88000  0.46100  Biso   1.000  H
  H52      1.0000 0.97900  0.38000  0.03900  Biso   1.000  H
  H53      1.0000 0.79040  0.06770  0.53040  Biso   1.000  H
  H54      1.0000 0.20960  0.56770  0.96960  Biso   1.000  H
  H55      1.0000 0.20960  0.93230  0.46960  Biso   1.000  H
  H56      1.0000 0.79040  0.43230  0.03040  Biso   1.000  H
  C49      1.0000 0.92840  0.02690  0.63230  Biso   1.000  C
  C50      1.0000 0.07160  0.52690  0.86770  Biso   1.000  C
  C51      1.0000 0.07160  0.97310  0.36770  Biso   1.000  C
  C52      1.0000 0.92840  0.47310  0.13230  Biso   1.000  C
  H57      1.0000 0.82290  0.00550  0.66070  Biso   1.000  H
  H58      1.0000 0.17710  0.50550  0.83930  Biso   1.000  H
  H59      1.0000 0.17710  0.99450  0.33930  Biso   1.000  H
  H60      1.0000 0.82290  0.49450  0.16070  Biso   1.000  H
  H61      1.0000 0.01270  0.05750  0.66900  Biso   1.000  H
  H62      1.0000 0.98730  0.55750  0.83100  Biso   1.000  H
  H63      1.0000 0.98730  0.94250  0.33100  Biso   1.000  H
  H64      1.0000 0.01270  0.44250  0.16900  Biso   1.000  H
  H65      1.0000 0.98550  0.97150  0.60770  Biso   1.000  H
  H66      1.0000 0.01450  0.47150  0.89230  Biso   1.000  H
  H67      1.0000 0.01450  0.02850  0.39230  Biso   1.000  H
  H68      1.0000 0.98550  0.52850  0.10770  Biso   1.000  H
  N1       1.0000 0.56580  0.25430  0.41266  Biso   1.000  N
  N2       1.0000 0.43420  0.75430  0.08734  Biso   1.000  N
  N3       1.0000 0.43420  0.74570  0.58734  Biso   1.000  N
  N4       1.0000 0.56580  0.24570  0.91266  Biso   1.000  N
  N5       1.0000 0.89470  0.38970  0.56503  Biso   1.000  N
  N6       1.0000 0.10530  0.88970  0.93497  Biso   1.000  N
  N7       1.0000 0.10530  0.61030  0.43497  Biso   1.000  N
  N8       1.0000 0.89470  0.11030  0.06503  Biso   1.000  N
  H69      1.0000 0.00440  0.40020  0.54330  Biso   1.000  H
  H70      1.0000 0.99560  0.90020  0.95670  Biso   1.000  H
  H71      1.0000 0.99560  0.59980  0.45670  Biso   1.000  H
  H72      1.0000 0.00440  0.09980  0.04330  Biso   1.000  H
  H73      1.0000 0.83940  0.44820  0.57020  Biso   1.000  H
  H74      1.0000 0.16060  0.94820  0.92980  Biso   1.000  H
  H75      1.0000 0.16060  0.55180  0.42980  Biso   1.000  H
  H76      1.0000 0.83940  0.05180  0.07020  Biso   1.000  H
  N9       1.0000 0.78080  0.18940  0.59500  Biso   1.000  N
  N10      1.0000 0.21920  0.68940  0.90500  Biso   1.000  N
  N11      1.0000 0.21920  0.81060  0.40500  Biso   1.000  N
  N12      1.0000 0.78080  0.31060  0.09500  Biso   1.000  N
  O1       1.0000 0.53200  0.37360  0.53342  Biso   1.000  O
  O2       1.0000 0.46800  0.87360  0.96658  Biso   1.000  O
  O3       1.0000 0.46800  0.62640  0.46658  Biso   1.000  O
  O4       1.0000 0.53200  0.12640  0.03342  Biso   1.000  O
  O5       1.0000 0.24880  0.41330  0.50088  Biso   1.000  O
  O6       1.0000 0.75120  0.91330  0.99912  Biso   1.000  O
  O7       1.0000 0.75120  0.58670  0.49912  Biso   1.000  O
  O8       1.0000 0.24880  0.08670  0.00088  Biso   1.000  O
  O9       1.0000 0.00870  0.37780  0.34910  Biso   1.000  O
  O10      1.0000 0.99130  0.87780  0.15090  Biso   1.000  O
  O11      1.0000 0.99130  0.62220  0.65090  Biso   1.000  O
  O12      1.0000 0.00870  0.12220  0.84910  Biso   1.000  O
  O13      1.0000 0.96720  0.25736  0.43693  Biso   1.000  O
  O14      1.0000 0.03280  0.75736  0.06307  Biso   1.000  O
  O15      1.0000 0.03280  0.74264  0.56307  Biso   1.000  O
  O16      1.0000 0.96720  0.24264  0.93693  Biso   1.000  O
  Cu1      1.0000 0.74805  0.30664  0.49173  Biso   1.000  Cu
  Cu2      1.0000 0.25195  0.80664  0.00827  Biso   1.000  Cu
  Cu3      1.0000 0.25195  0.69336  0.50827  Biso   1.000  Cu
  Cu4      1.0000 0.74805  0.19336  0.99173  Biso   1.000  Cu
  O17      1.0000 0.30870  0.48300  0.27560  Biso   1.000  O
  O18      1.0000 0.69130  0.98300  0.22440  Biso   1.000  O
  O19      1.0000 0.69130  0.51700  0.72440  Biso   1.000  O
  O20      1.0000 0.30870  0.01700  0.77560  Biso   1.000  O
  H77      1.0000 0.21800  0.46000  0.29700  Biso   1.000  H
  H78      1.0000 0.78200  0.96000  0.20300  Biso   1.000  H
  H79      1.0000 0.78200  0.54000  0.70300  Biso   1.000  H
  H80      1.0000 0.21800  0.04000  0.79700  Biso   1.000  H
  H81      1.0000 0.40200  0.46900  0.30400  Biso   1.000  H
  H82      1.0000 0.59800  0.96900  0.19600  Biso   1.000  H
  H83      1.0000 0.59800  0.53100  0.69600  Biso   1.000  H
  H84      1.0000 0.40200  0.03100  0.80400  Biso   1.000  H
  O21      1.0000 0.66510  0.48150  0.34440  Biso   1.000  O
  O22      1.0000 0.33490  0.98150  0.15560  Biso   1.000  O
  O23      1.0000 0.33490  0.51850  0.65560  Biso   1.000  O
  O24      1.0000 0.66510  0.01850  0.84440  Biso   1.000  O
  H85      1.0000 0.75700  0.44900  0.34000  Biso   1.000  H
  H86      1.0000 0.24300  0.94900  0.16000  Biso   1.000  H
  H87      1.0000 0.24300  0.55100  0.66000  Biso   1.000  H
  H88      1.0000 0.75700  0.05100  0.84000  Biso   1.000  H
  H89      1.0000 0.66700  0.51700  0.38400  Biso   1.000  H
  H90      1.0000 0.33300  0.01700  0.11600  Biso   1.000  H
  H91      1.0000 0.33300  0.48300  0.61600  Biso   1.000  H
  H92      1.0000 0.66700  0.98300  0.88400  Biso   1.000  H
