data_image0
_cell_length_a       6.8656
_cell_length_b       8.1719
_cell_length_c       11.3542
_cell_angle_alpha    95.23
_cell_angle_beta     91.734
_cell_angle_gamma    102.113

_symmetry_space_group_name_H-M    "P 1"
_symmetry_int_tables_number       1

loop_
  _symmetry_equiv_pos_as_xyz
  'x, y, z'

loop_
  _atom_site_label
  _atom_site_occupancy
  _atom_site_fract_x
  _atom_site_fract_y
  _atom_site_fract_z
  _atom_site_thermal_displace_type
  _atom_site_B_iso_or_equiv
  _atom_site_type_symbol
  C1       1.0000 0.33530  0.79900  0.45806  Biso   1.000  C
  C2       1.0000 0.66470  0.20100  0.54194  Biso   1.000  C
  H1       1.0000 0.44810  0.86320  0.50020  Biso   1.000  H
  H2       1.0000 0.55190  0.13680  0.49980  Biso   1.000  H
  C3       1.0000 0.19280  0.87940  0.41635  Biso   1.000  C
  C4       1.0000 0.80720  0.12060  0.58365  Biso   1.000  C
  H3       1.0000 0.20760  0.99540  0.43030  Biso   1.000  H
  H4       1.0000 0.79240  0.00460  0.56970  Biso   1.000  H
  C5       1.0000 0.02770  0.78120  0.35317  Biso   1.000  C
  C6       1.0000 0.97230  0.21880  0.64683  Biso   1.000  C
  H5       1.0000 0.92950  0.83170  0.32370  Biso   1.000  H
  H6       1.0000 0.07050  0.16830  0.67630  Biso   1.000  H
  C7       1.0000 0.00660  0.60840  0.33319  Biso   1.000  C
  C8       1.0000 0.99340  0.39160  0.66681  Biso   1.000  C
  C9       1.0000 0.15450  0.53770  0.38009  Biso   1.000  C
  C10      1.0000 0.84550  0.46230  0.61991  Biso   1.000  C
  C11      1.0000 0.14970  0.35050  0.37217  Biso   1.000  C
  C12      1.0000 0.85030  0.64950  0.62783  Biso   1.000  C
  C13      1.0000 0.82640  0.50640  0.25872  Biso   1.000  C
  C14      1.0000 0.17360  0.49360  0.74128  Biso   1.000  C
  O1       1.0000 0.29524  0.31080  0.42774  Biso   1.000  O
  O2       1.0000 0.70476  0.68920  0.57226  Biso   1.000  O
  O3       1.0000 0.01240  0.25110  0.31586  Biso   1.000  O
  O4       1.0000 0.98760  0.74890  0.68414  Biso   1.000  O
  O5       1.0000 0.84770  0.48500  0.14994  Biso   1.000  O
  O6       1.0000 0.15230  0.51500  0.85006  Biso   1.000  O
  O7       1.0000 0.66914  0.46070  0.30949  Biso   1.000  O
  O8       1.0000 0.33086  0.53930  0.69051  Biso   1.000  O
  N1       1.0000 0.31700  0.63330  0.44009  Biso   1.000  N
  N2       1.0000 0.68300  0.36670  0.55991  Biso   1.000  N
  Cu1      1.0000 0.50000  0.50000  0.50000  Biso   1.000  Cu
  C15      1.0000 0.32120  0.09930  0.14770  Biso   1.000  C
  C16      1.0000 0.67880  0.90070  0.85230  Biso   1.000  C
  H7       1.0000 0.22850  0.16560  0.13730  Biso   1.000  H
  H8       1.0000 0.77150  0.83440  0.86270  Biso   1.000  H
  C17      1.0000 0.59020  0.01790  0.19890  Biso   1.000  C
  C18      1.0000 0.40980  0.98210  0.80110  Biso   1.000  C
  H9       1.0000 0.71760  0.02050  0.23030  Biso   1.000  H
  H10      1.0000 0.28240  0.97950  0.76970  Biso   1.000  H
  C19      1.0000 0.46420  0.88210  0.14250  Biso   1.000  C
  C20      1.0000 0.53580  0.11790  0.85750  Biso   1.000  C
  C21      1.0000 0.47670  0.70390  0.11450  Biso   1.000  C
  C22      1.0000 0.52330  0.29610  0.88550  Biso   1.000  C
  H11      1.0000 0.61170  0.69260  0.12860  Biso   1.000  H
  H12      1.0000 0.38830  0.30740  0.87140  Biso   1.000  H
  H13      1.0000 0.43590  0.66890  0.03290  Biso   1.000  H
  H14      1.0000 0.56410  0.33110  0.96710  Biso   1.000  H
  H15      1.0000 0.39070  0.63470  0.16400  Biso   1.000  H
  H16      1.0000 0.60930  0.36530  0.83600  Biso   1.000  H
  N3       1.0000 0.49850  0.14950  0.20173  Biso   1.000  N
  N4       1.0000 0.50150  0.85050  0.79827  Biso   1.000  N
  H17      1.0000 0.54830  0.24970  0.23370  Biso   1.000  H
  H18      1.0000 0.45170  0.75030  0.76630  Biso   1.000  H
  N5       1.0000 0.29790  0.93860  0.11101  Biso   1.000  N
  N6       1.0000 0.70210  0.06140  0.88899  Biso   1.000  N
  H19      1.0000 0.19350  0.87800  0.07280  Biso   1.000  H
  H20      1.0000 0.80650  0.12200  0.92720  Biso   1.000  H
  O9       1.0000 0.02330  0.27680  0.00705  Biso   1.000  O
  O10      1.0000 0.97670  0.72320  0.99295  Biso   1.000  O
  H21      1.0000 0.97900  0.32600  0.06170  Biso   1.000  H
  H22      1.0000 0.02100  0.67400  0.93830  Biso   1.000  H
  H23      1.0000 0.07100  0.34300  0.96000  Biso   1.000  H
  H24      1.0000 0.92900  0.65700  0.04000  Biso   1.000  H
