data_image0
_cell_length_a       9.0034
_cell_length_b       19.4609
_cell_length_c       12.7448
_cell_angle_alpha    90
_cell_angle_beta     93.005
_cell_angle_gamma    90

_symmetry_space_group_name_H-M    "P 1"
_symmetry_int_tables_number       1

loop_
  _symmetry_equiv_pos_as_xyz
  'x, y, z'

loop_
  _atom_site_label
  _atom_site_occupancy
  _atom_site_fract_x
  _atom_site_fract_y
  _atom_site_fract_z
  _atom_site_thermal_displace_type
  _atom_site_B_iso_or_equiv
  _atom_site_type_symbol
  Cu1      1.0000 0.32504  0.60567  0.67532  Biso   1.000  Cu
  Cu2      1.0000 0.82504  0.89433  0.17532  Biso   1.000  Cu
  Cu3      1.0000 0.67496  0.39433  0.32468  Biso   1.000  Cu
  Cu4      1.0000 0.17496  0.10567  0.82468  Biso   1.000  Cu
  N1       1.0000 0.25537  0.52915  0.57837  Biso   1.000  N
  N2       1.0000 0.75537  0.97085  0.07837  Biso   1.000  N
  N3       1.0000 0.74463  0.47085  0.42163  Biso   1.000  N
  N4       1.0000 0.24463  0.02915  0.92163  Biso   1.000  N
  N5       1.0000 0.42594  0.63643  0.54539  Biso   1.000  N
  N6       1.0000 0.92594  0.86357  0.04539  Biso   1.000  N
  N7       1.0000 0.57406  0.36357  0.45461  Biso   1.000  N
  N8       1.0000 0.07406  0.13643  0.95461  Biso   1.000  N
  O1       1.0000 0.40951  0.68322  0.75566  Biso   1.000  O
  O2       1.0000 0.90951  0.81678  0.25566  Biso   1.000  O
  O3       1.0000 0.59049  0.31678  0.24434  Biso   1.000  O
  O4       1.0000 0.09049  0.18322  0.74434  Biso   1.000  O
  O5       1.0000 0.56410  0.62619  0.86637  Biso   1.000  O
  O6       1.0000 0.06410  0.87381  0.36637  Biso   1.000  O
  O7       1.0000 0.43590  0.37381  0.13363  Biso   1.000  O
  O8       1.0000 0.93590  0.12619  0.63363  Biso   1.000  O
  O9       1.0000 0.51529  0.80641  0.82761  Biso   1.000  O
  O10      1.0000 0.01529  0.69359  0.32761  Biso   1.000  O
  O11      1.0000 0.48471  0.19359  0.17239  Biso   1.000  O
  O12      1.0000 0.98471  0.30641  0.67239  Biso   1.000  O
  O13      1.0000 0.62290  0.94901  0.55068  Biso   1.000  O
  O14      1.0000 0.12290  0.55099  0.05068  Biso   1.000  O
  O15      1.0000 0.37710  0.05099  0.44932  Biso   1.000  O
  O16      1.0000 0.87710  0.44901  0.94932  Biso   1.000  O
  O17      1.0000 0.76771  0.94720  0.29524  Biso   1.000  O
  O18      1.0000 0.26771  0.55280  0.79524  Biso   1.000  O
  O19      1.0000 0.23229  0.05280  0.70476  Biso   1.000  O
  O20      1.0000 0.73229  0.44720  0.20476  Biso   1.000  O
  O21      1.0000 0.59660  0.87958  0.36149  Biso   1.000  O
  O22      1.0000 0.09660  0.62042  0.86149  Biso   1.000  O
  O23      1.0000 0.40340  0.12042  0.63851  Biso   1.000  O
  O24      1.0000 0.90340  0.37958  0.13851  Biso   1.000  O
  O25      1.0000 0.10426  0.66723  0.65568  Biso   1.000  O
  O26      1.0000 0.60426  0.83277  0.15568  Biso   1.000  O
  O27      1.0000 0.89574  0.33277  0.34432  Biso   1.000  O
  O28      1.0000 0.39574  0.16723  0.84432  Biso   1.000  O
  O29      1.0000 0.83640  0.64805  0.97327  Biso   1.000  O
  O30      1.0000 0.33640  0.85195  0.47327  Biso   1.000  O
  O31      1.0000 0.16360  0.35195  0.02673  Biso   1.000  O
  O32      1.0000 0.66360  0.14805  0.52673  Biso   1.000  O
  O33      1.0000 0.24009  0.79518  0.65305  Biso   1.000  O
  O34      1.0000 0.74009  0.70482  0.15305  Biso   1.000  O
  O35      1.0000 0.75991  0.20482  0.34695  Biso   1.000  O
  O36      1.0000 0.25991  0.29518  0.84695  Biso   1.000  O
  C1       1.0000 0.16420  0.47703  0.59600  Biso   1.000  C
  C2       1.0000 0.66420  0.02297  0.09600  Biso   1.000  C
  C3       1.0000 0.83580  0.52297  0.40400  Biso   1.000  C
  C4       1.0000 0.33580  0.97703  0.90400  Biso   1.000  C
  C5       1.0000 0.12680  0.42765  0.52000  Biso   1.000  C
  C6       1.0000 0.62680  0.07235  0.02000  Biso   1.000  C
  C7       1.0000 0.87320  0.57235  0.48000  Biso   1.000  C
  C8       1.0000 0.37320  0.92765  0.98000  Biso   1.000  C
  C9       1.0000 0.18560  0.43103  0.42470  Biso   1.000  C
  C10      1.0000 0.68560  0.06897  0.92470  Biso   1.000  C
  C11      1.0000 0.81440  0.56897  0.57530  Biso   1.000  C
  C12      1.0000 0.31440  0.93103  0.07530  Biso   1.000  C
  C13      1.0000 0.28410  0.48478  0.40259  Biso   1.000  C
  C14      1.0000 0.78410  0.01522  0.90259  Biso   1.000  C
  C15      1.0000 0.71590  0.51522  0.59741  Biso   1.000  C
  C16      1.0000 0.21590  0.98478  0.09741  Biso   1.000  C
  C17      1.0000 0.35640  0.49284  0.30633  Biso   1.000  C
  C18      1.0000 0.85640  0.00716  0.80633  Biso   1.000  C
  C19      1.0000 0.64360  0.50716  0.69367  Biso   1.000  C
  C20      1.0000 0.14360  0.99284  0.19367  Biso   1.000  C
  C21      1.0000 0.44760  0.54595  0.29117  Biso   1.000  C
  C22      1.0000 0.94760  0.95405  0.79117  Biso   1.000  C
  C23      1.0000 0.55240  0.45405  0.70883  Biso   1.000  C
  C24      1.0000 0.05240  0.04595  0.20883  Biso   1.000  C
  C25      1.0000 0.47400  0.59800  0.36936  Biso   1.000  C
  C26      1.0000 0.97400  0.90200  0.86936  Biso   1.000  C
  C27      1.0000 0.52600  0.40200  0.63064  Biso   1.000  C
  C28      1.0000 0.02600  0.09800  0.13064  Biso   1.000  C
  C29      1.0000 0.56210  0.65678  0.35777  Biso   1.000  C
  C30      1.0000 0.06210  0.84322  0.85777  Biso   1.000  C
  C31      1.0000 0.43790  0.34322  0.64223  Biso   1.000  C
  C32      1.0000 0.93790  0.15678  0.14223  Biso   1.000  C
  C33      1.0000 0.57740  0.70328  0.43690  Biso   1.000  C
  C34      1.0000 0.07740  0.79672  0.93690  Biso   1.000  C
  C35      1.0000 0.42260  0.29672  0.56310  Biso   1.000  C
  C36      1.0000 0.92260  0.20328  0.06310  Biso   1.000  C
  C37      1.0000 0.50930  0.69147  0.53067  Biso   1.000  C
  C38      1.0000 0.00930  0.80853  0.03067  Biso   1.000  C
  C39      1.0000 0.49070  0.30853  0.46933  Biso   1.000  C
  C40      1.0000 0.99070  0.19147  0.96933  Biso   1.000  C
  C41      1.0000 0.40720  0.59065  0.46552  Biso   1.000  C
  C42      1.0000 0.90720  0.90935  0.96552  Biso   1.000  C
  C43      1.0000 0.59280  0.40935  0.53448  Biso   1.000  C
  C44      1.0000 0.09280  0.09065  0.03448  Biso   1.000  C
  C45      1.0000 0.31240  0.53321  0.48275  Biso   1.000  C
  C46      1.0000 0.81240  0.96679  0.98275  Biso   1.000  C
  C47      1.0000 0.68760  0.46679  0.51725  Biso   1.000  C
  C48      1.0000 0.18760  0.03321  0.01725  Biso   1.000  C
  C49      1.0000 0.50430  0.67913  0.83265  Biso   1.000  C
  C50      1.0000 0.00430  0.82087  0.33265  Biso   1.000  C
  C51      1.0000 0.49570  0.32087  0.16735  Biso   1.000  C
  C52      1.0000 0.99570  0.17913  0.66735  Biso   1.000  C
  C53      1.0000 0.53980  0.74633  0.89005  Biso   1.000  C
  C54      1.0000 0.03980  0.75367  0.39005  Biso   1.000  C
  C55      1.0000 0.46020  0.25367  0.10995  Biso   1.000  C
  C56      1.0000 0.96020  0.24633  0.60995  Biso   1.000  C
  C57      1.0000 0.61330  0.81880  0.75044  Biso   1.000  C
  C58      1.0000 0.11330  0.68120  0.25044  Biso   1.000  C
  C59      1.0000 0.38670  0.18120  0.24956  Biso   1.000  C
  C60      1.0000 0.88670  0.31880  0.74956  Biso   1.000  C
  C61      1.0000 0.73700  0.77859  0.73300  Biso   1.000  C
  C62      1.0000 0.23700  0.72141  0.23300  Biso   1.000  C
  C63      1.0000 0.26300  0.22141  0.26700  Biso   1.000  C
  C64      1.0000 0.76300  0.27859  0.76700  Biso   1.000  C
  C65      1.0000 0.82360  0.79661  0.65100  Biso   1.000  C
  C66      1.0000 0.32360  0.70339  0.15100  Biso   1.000  C
  C67      1.0000 0.17640  0.20339  0.34900  Biso   1.000  C
  C68      1.0000 0.67640  0.29661  0.84900  Biso   1.000  C
  C69      1.0000 0.79150  0.85208  0.58719  Biso   1.000  C
  C70      1.0000 0.29150  0.64792  0.08719  Biso   1.000  C
  C71      1.0000 0.20850  0.14792  0.41281  Biso   1.000  C
  C72      1.0000 0.70850  0.35208  0.91281  Biso   1.000  C
  C73      1.0000 0.66770  0.89199  0.60575  Biso   1.000  C
  C74      1.0000 0.16770  0.60801  0.10575  Biso   1.000  C
  C75      1.0000 0.33230  0.10801  0.39425  Biso   1.000  C
  C76      1.0000 0.83230  0.39199  0.89425  Biso   1.000  C
  C77      1.0000 0.57890  0.87477  0.68733  Biso   1.000  C
  C78      1.0000 0.07890  0.62523  0.18733  Biso   1.000  C
  C79      1.0000 0.42110  0.12523  0.31267  Biso   1.000  C
  C80      1.0000 0.92110  0.37477  0.81267  Biso   1.000  C
  C81      1.0000 0.70820  0.97081  0.46584  Biso   1.000  C
  C82      1.0000 0.20820  0.52919  0.96584  Biso   1.000  C
  C83      1.0000 0.29180  0.02919  0.53416  Biso   1.000  C
  C84      1.0000 0.79180  0.47081  0.03416  Biso   1.000  C
  C85      1.0000 0.68630  0.92737  0.36723  Biso   1.000  C
  C86      1.0000 0.18630  0.57263  0.86723  Biso   1.000  C
  C87      1.0000 0.31370  0.07263  0.63277  Biso   1.000  C
  C88      1.0000 0.81370  0.42737  0.13277  Biso   1.000  C
  H1       1.0000 0.12390  0.47350  0.66150  Biso   1.000  H
  H2       1.0000 0.62390  0.02650  0.16150  Biso   1.000  H
  H3       1.0000 0.87610  0.52650  0.33850  Biso   1.000  H
  H4       1.0000 0.37610  0.97350  0.83850  Biso   1.000  H
  H5       1.0000 0.06150  0.39240  0.53490  Biso   1.000  H
  H6       1.0000 0.56150  0.10760  0.03490  Biso   1.000  H
  H7       1.0000 0.93850  0.60760  0.46510  Biso   1.000  H
  H8       1.0000 0.43850  0.89240  0.96510  Biso   1.000  H
  H9       1.0000 0.16120  0.39800  0.37390  Biso   1.000  H
  H10      1.0000 0.66120  0.10200  0.87390  Biso   1.000  H
  H11      1.0000 0.83880  0.60200  0.62610  Biso   1.000  H
  H12      1.0000 0.33880  0.89800  0.12610  Biso   1.000  H
  H13      1.0000 0.34000  0.46060  0.25310  Biso   1.000  H
  H14      1.0000 0.84000  0.03940  0.75310  Biso   1.000  H
  H15      1.0000 0.66000  0.53940  0.74690  Biso   1.000  H
  H16      1.0000 0.16000  0.96060  0.24690  Biso   1.000  H
  H17      1.0000 0.49490  0.54910  0.22820  Biso   1.000  H
  H18      1.0000 0.99490  0.95090  0.72820  Biso   1.000  H
  H19      1.0000 0.50510  0.45090  0.77180  Biso   1.000  H
  H20      1.0000 0.00510  0.04910  0.27180  Biso   1.000  H
  H21      1.0000 0.61000  0.66380  0.29580  Biso   1.000  H
  H22      1.0000 0.11000  0.83620  0.79580  Biso   1.000  H
  H23      1.0000 0.39000  0.33620  0.70420  Biso   1.000  H
  H24      1.0000 0.89000  0.16380  0.20420  Biso   1.000  H
  H25      1.0000 0.63330  0.74290  0.42840  Biso   1.000  H
  H26      1.0000 0.13330  0.75710  0.92840  Biso   1.000  H
  H27      1.0000 0.36670  0.25710  0.57160  Biso   1.000  H
  H28      1.0000 0.86670  0.24290  0.07160  Biso   1.000  H
  H29      1.0000 0.52270  0.72320  0.58490  Biso   1.000  H
  H30      1.0000 0.02270  0.77680  0.08490  Biso   1.000  H
  H31      1.0000 0.47730  0.27680  0.41510  Biso   1.000  H
  H32      1.0000 0.97730  0.22320  0.91510  Biso   1.000  H
  H33      1.0000 0.47930  0.74920  0.95070  Biso   1.000  H
  H34      1.0000 0.97930  0.75080  0.45070  Biso   1.000  H
  H35      1.0000 0.52070  0.25080  0.04930  Biso   1.000  H
  H36      1.0000 0.02070  0.24920  0.54930  Biso   1.000  H
  H37      1.0000 0.64320  0.74550  0.91560  Biso   1.000  H
  H38      1.0000 0.14320  0.75450  0.41560  Biso   1.000  H
  H39      1.0000 0.35680  0.25450  0.08440  Biso   1.000  H
  H40      1.0000 0.85680  0.24550  0.58440  Biso   1.000  H
  H41      1.0000 0.76090  0.74080  0.77520  Biso   1.000  H
  H42      1.0000 0.26090  0.75920  0.27520  Biso   1.000  H
  H43      1.0000 0.23910  0.25920  0.22480  Biso   1.000  H
  H44      1.0000 0.73910  0.24080  0.72480  Biso   1.000  H
  H45      1.0000 0.90690  0.77020  0.63850  Biso   1.000  H
  H46      1.0000 0.40690  0.72980  0.13850  Biso   1.000  H
  H47      1.0000 0.09310  0.22980  0.36150  Biso   1.000  H
  H48      1.0000 0.59310  0.27020  0.86150  Biso   1.000  H
  H49      1.0000 0.85170  0.86280  0.53240  Biso   1.000  H
  H50      1.0000 0.35170  0.63720  0.03240  Biso   1.000  H
  H51      1.0000 0.14830  0.13720  0.46760  Biso   1.000  H
  H52      1.0000 0.64830  0.36280  0.96760  Biso   1.000  H
  H53      1.0000 0.49550  0.90120  0.69960  Biso   1.000  H
  H54      1.0000 0.99550  0.59880  0.19960  Biso   1.000  H
  H55      1.0000 0.50450  0.09880  0.30040  Biso   1.000  H
  H56      1.0000 0.00450  0.40120  0.80040  Biso   1.000  H
  H57      1.0000 0.81270  0.97000  0.48870  Biso   1.000  H
  H58      1.0000 0.31270  0.53000  0.98870  Biso   1.000  H
  H59      1.0000 0.18730  0.03000  0.51130  Biso   1.000  H
  H60      1.0000 0.68730  0.47000  0.01130  Biso   1.000  H
  H61      1.0000 0.68220  0.01800  0.44860  Biso   1.000  H
  H62      1.0000 0.18220  0.48200  0.94860  Biso   1.000  H
  H63      1.0000 0.31780  0.98200  0.55140  Biso   1.000  H
  H64      1.0000 0.81780  0.51800  0.05140  Biso   1.000  H
  H65      1.0000 0.14300  0.70680  0.65100  Biso   1.000  H
  H66      1.0000 0.64300  0.79320  0.15100  Biso   1.000  H
  H67      1.0000 0.85700  0.29320  0.34900  Biso   1.000  H
  H68      1.0000 0.35700  0.20680  0.84900  Biso   1.000  H
  H69      1.0000 0.08300  0.66040  0.71950  Biso   1.000  H
  H70      1.0000 0.58300  0.83960  0.21950  Biso   1.000  H
  H71      1.0000 0.91700  0.33960  0.28050  Biso   1.000  H
  H72      1.0000 0.41700  0.16040  0.78050  Biso   1.000  H
  H73      1.0000 0.76300  0.63600  0.93200  Biso   1.000  H
  H74      1.0000 0.26300  0.86400  0.43200  Biso   1.000  H
  H75      1.0000 0.23700  0.36400  0.06800  Biso   1.000  H
  H76      1.0000 0.73700  0.13600  0.56800  Biso   1.000  H
  H77      1.0000 0.91600  0.63220  0.95000  Biso   1.000  H
  H78      1.0000 0.41600  0.86780  0.45000  Biso   1.000  H
  H79      1.0000 0.08400  0.36780  0.05000  Biso   1.000  H
  H80      1.0000 0.58400  0.13220  0.55000  Biso   1.000  H
  H81      1.0000 0.27300  0.81720  0.60160  Biso   1.000  H
  H82      1.0000 0.77300  0.68280  0.10160  Biso   1.000  H
  H83      1.0000 0.72700  0.18280  0.39840  Biso   1.000  H
  H84      1.0000 0.22700  0.31720  0.89840  Biso   1.000  H
  H85      1.0000 0.31300  0.78050  0.69200  Biso   1.000  H
  H86      1.0000 0.81300  0.71950  0.19200  Biso   1.000  H
  H87      1.0000 0.68700  0.21950  0.30800  Biso   1.000  H
  H88      1.0000 0.18700  0.28050  0.80800  Biso   1.000  H
