data_image0
_cell_length_a       9.1424
_cell_length_b       9.8221
_cell_length_c       13.138
_cell_angle_alpha    96.645
_cell_angle_beta     103.55
_cell_angle_gamma    116.283

_symmetry_space_group_name_H-M    "P 1"
_symmetry_int_tables_number       1

loop_
  _symmetry_equiv_pos_as_xyz
  'x, y, z'

loop_
  _atom_site_label
  _atom_site_occupancy
  _atom_site_fract_x
  _atom_site_fract_y
  _atom_site_fract_z
  _atom_site_thermal_displace_type
  _atom_site_B_iso_or_equiv
  _atom_site_type_symbol
  Cu1      1.0000 0.77299  0.34716  0.01006  Biso   1.000  Cu
  Cu2      1.0000 0.22701  0.65284  0.98994  Biso   1.000  Cu
  S1       1.0000 0.36897  0.13644  0.32824  Biso   1.000  S
  S2       1.0000 0.63103  0.86356  0.67176  Biso   1.000  S
  O1       1.0000 0.19210  0.86450  0.70836  Biso   1.000  O
  O2       1.0000 0.80790  0.13550  0.29164  Biso   1.000  O
  O3       1.0000 0.36950  0.01810  0.38487  Biso   1.000  O
  O4       1.0000 0.63050  0.98190  0.61513  Biso   1.000  O
  O5       1.0000 0.49560  0.17950  0.27098  Biso   1.000  O
  O6       1.0000 0.50440  0.82050  0.72902  Biso   1.000  O
  O7       1.0000 0.38460  0.27340  0.39591  Biso   1.000  O
  O8       1.0000 0.61540  0.72660  0.60409  Biso   1.000  O
  O9       1.0000 0.72750  0.12530  0.00342  Biso   1.000  O
  O10      1.0000 0.27250  0.87470  0.99658  Biso   1.000  O
  O11      1.0000 0.94250  0.32469  0.12978  Biso   1.000  O
  O12      1.0000 0.05750  0.67531  0.87022  Biso   1.000  O
  O13      1.0000 0.89850  0.57271  0.05551  Biso   1.000  O
  O14      1.0000 0.10150  0.42729  0.94449  Biso   1.000  O
  O15      1.0000 0.58850  0.33030  0.09893  Biso   1.000  O
  O16      1.0000 0.41150  0.66970  0.90107  Biso   1.000  O
  H1       1.0000 0.53300  0.25700  0.12400  Biso   1.000  H
  H2       1.0000 0.46700  0.74300  0.87600  Biso   1.000  H
  H3       1.0000 0.51700  0.35900  0.07200  Biso   1.000  H
  H4       1.0000 0.48300  0.64100  0.92800  Biso   1.000  H
  O17      1.0000 0.66720  0.59540  0.98153  Biso   1.000  O
  O18      1.0000 0.33280  0.40460  0.01847  Biso   1.000  O
  N1       1.0000 0.78460  0.47340  0.35810  Biso   1.000  N
  N2       1.0000 0.21540  0.52660  0.64190  Biso   1.000  N
  H5       1.0000 0.69800  0.38300  0.31700  Biso   1.000  H
  H6       1.0000 0.30200  0.61700  0.68300  Biso   1.000  H
  N3       1.0000 0.20680  0.89310  0.54106  Biso   1.000  N
  N4       1.0000 0.79320  0.10690  0.45894  Biso   1.000  N
  H7       1.0000 0.28000  0.94200  0.50800  Biso   1.000  H
  H8       1.0000 0.72000  0.05800  0.49200  Biso   1.000  H
  N5       1.0000 0.63470  0.29540  0.85503  Biso   1.000  N
  N6       1.0000 0.36530  0.70460  0.14497  Biso   1.000  N
  C1       1.0000 0.78050  0.54270  0.45020  Biso   1.000  C
  C2       1.0000 0.21950  0.45730  0.54980  Biso   1.000  C
  H9       1.0000 0.68050  0.49510  0.47140  Biso   1.000  H
  H10      1.0000 0.31950  0.50490  0.52860  Biso   1.000  H
  C3       1.0000 0.91810  0.68130  0.51430  Biso   1.000  C
  C4       1.0000 0.08190  0.31870  0.48570  Biso   1.000  C
  H11      1.0000 0.91470  0.72940  0.58010  Biso   1.000  H
  H12      1.0000 0.08530  0.27060  0.41990  Biso   1.000  H
  C5       1.0000 0.06400  0.75130  0.48190  Biso   1.000  C
  C6       1.0000 0.93600  0.24870  0.51810  Biso   1.000  C
  C7       1.0000 0.06160  0.67780  0.38390  Biso   1.000  C
  C8       1.0000 0.93840  0.32220  0.61610  Biso   1.000  C
  H13      1.0000 0.15750  0.72470  0.35880  Biso   1.000  H
  H14      1.0000 0.84250  0.27530  0.64120  Biso   1.000  H
  C9       1.0000 0.92130  0.53830  0.32370  Biso   1.000  C
  C10      1.0000 0.07870  0.46170  0.67630  Biso   1.000  C
  H15      1.0000 0.92070  0.48720  0.25750  Biso   1.000  H
  H16      1.0000 0.07930  0.51280  0.74250  Biso   1.000  H
  C11      1.0000 0.25850  0.94580  0.65240  Biso   1.000  C
  C12      1.0000 0.74150  0.05420  0.34760  Biso   1.000  C
  C13      1.0000 0.40260  0.11040  0.69890  Biso   1.000  C
  C14      1.0000 0.59740  0.88960  0.30110  Biso   1.000  C
  C15      1.0000 0.43970  0.22300  0.64030  Biso   1.000  C
  C16      1.0000 0.56030  0.77700  0.35970  Biso   1.000  C
  H17      1.0000 0.37260  0.19850  0.56690  Biso   1.000  H
  H18      1.0000 0.62740  0.80150  0.43310  Biso   1.000  H
  C17      1.0000 0.57700  0.37230  0.69120  Biso   1.000  C
  C18      1.0000 0.42300  0.62770  0.30880  Biso   1.000  C
  H19      1.0000 0.60490  0.45210  0.65320  Biso   1.000  H
  H20      1.0000 0.39510  0.54790  0.34680  Biso   1.000  H
  C19      1.0000 0.67240  0.40350  0.79740  Biso   1.000  C
  C20      1.0000 0.32760  0.59650  0.20260  Biso   1.000  C
  H21      1.0000 0.76830  0.50520  0.83110  Biso   1.000  H
  H22      1.0000 0.23170  0.49480  0.16890  Biso   1.000  H
  C21      1.0000 0.50190  0.15170  0.80640  Biso   1.000  C
  C22      1.0000 0.49810  0.84830  0.19360  Biso   1.000  C
  H23      1.0000 0.47460  0.07490  0.84690  Biso   1.000  H
  H24      1.0000 0.52540  0.92510  0.15310  Biso   1.000  H
  C23      1.0000 0.86420  0.18000  0.08328  Biso   1.000  C
  C24      1.0000 0.13580  0.82000  0.91672  Biso   1.000  C
  C25      1.0000 0.93670  0.07720  0.11765  Biso   1.000  C
  C26      1.0000 0.06330  0.92280  0.88235  Biso   1.000  C
  C27      1.0000 0.84830  0.91900  0.06804  Biso   1.000  C
  C28      1.0000 0.15170  0.08100  0.93196  Biso   1.000  C
  H25      1.0000 0.73880  0.87490  0.01430  Biso   1.000  H
  H26      1.0000 0.26120  0.12510  0.98570  Biso   1.000  H
  C29      1.0000 0.91840  0.82350  0.09624  Biso   1.000  C
  C30      1.0000 0.08160  0.17650  0.90376  Biso   1.000  C
  C31      1.0000 0.07880  0.88870  0.17520  Biso   1.000  C
  C32      1.0000 0.92120  0.11130  0.82480  Biso   1.000  C
  H27      1.0000 0.12920  0.82510  0.19410  Biso   1.000  H
  H28      1.0000 0.87080  0.17490  0.80590  Biso   1.000  H
  C33      1.0000 0.16470  0.04810  0.22623  Biso   1.000  C
  C34      1.0000 0.83530  0.95190  0.77377  Biso   1.000  C
  C35      1.0000 0.09480  0.14280  0.19780  Biso   1.000  C
  C36      1.0000 0.90520  0.85720  0.80220  Biso   1.000  C
  H29      1.0000 0.15440  0.25160  0.23280  Biso   1.000  H
  H30      1.0000 0.84560  0.74840  0.76720  Biso   1.000  H
  C37      1.0000 0.81740  0.65120  0.03936  Biso   1.000  C
  C38      1.0000 0.18260  0.34880  0.96064  Biso   1.000  C
