data_image0
_cell_length_a       6.8202
_cell_length_b       25.024
_cell_length_c       6.1958
_cell_angle_alpha    90
_cell_angle_beta     90
_cell_angle_gamma    90

_symmetry_space_group_name_H-M    "P 1"
_symmetry_int_tables_number       1

loop_
  _symmetry_equiv_pos_as_xyz
  'x, y, z'

loop_
  _atom_site_label
  _atom_site_occupancy
  _atom_site_fract_x
  _atom_site_fract_y
  _atom_site_fract_z
  _atom_site_thermal_displace_type
  _atom_site_B_iso_or_equiv
  _atom_site_type_symbol
  Cu1      1.0000 0.25000  0.75000  0.23410  Biso   1.000  Cu
  Cu2      1.0000 0.75000  0.25000  0.76590  Biso   1.000  Cu
  C1       1.0000 0.86270  0.70190  0.35600  Biso   1.000  C
  C2       1.0000 0.36270  0.20190  0.64400  Biso   1.000  C
  C3       1.0000 0.86270  0.79810  0.35600  Biso   1.000  C
  C4       1.0000 0.63730  0.70190  0.35600  Biso   1.000  C
  C5       1.0000 0.13730  0.29810  0.64400  Biso   1.000  C
  C6       1.0000 0.63730  0.79810  0.35600  Biso   1.000  C
  C7       1.0000 0.13730  0.20190  0.64400  Biso   1.000  C
  C8       1.0000 0.36270  0.29810  0.64400  Biso   1.000  C
  H1       1.0000 0.91000  0.70210  0.50360  Biso   1.000  H
  H2       1.0000 0.41000  0.20210  0.49640  Biso   1.000  H
  H3       1.0000 0.91000  0.79790  0.50360  Biso   1.000  H
  H4       1.0000 0.59000  0.70210  0.50360  Biso   1.000  H
  H5       1.0000 0.09000  0.29790  0.49640  Biso   1.000  H
  H6       1.0000 0.59000  0.79790  0.50360  Biso   1.000  H
  H7       1.0000 0.09000  0.20210  0.49640  Biso   1.000  H
  H8       1.0000 0.41000  0.29790  0.49640  Biso   1.000  H
  H9       1.0000 0.91000  0.66960  0.28700  Biso   1.000  H
  H10      1.0000 0.41000  0.16960  0.71300  Biso   1.000  H
  H11      1.0000 0.91000  0.83040  0.28700  Biso   1.000  H
  H12      1.0000 0.59000  0.66960  0.28700  Biso   1.000  H
  H13      1.0000 0.09000  0.33040  0.71300  Biso   1.000  H
  H14      1.0000 0.59000  0.83040  0.28700  Biso   1.000  H
  H15      1.0000 0.09000  0.16960  0.71300  Biso   1.000  H
  H16      1.0000 0.41000  0.33040  0.71300  Biso   1.000  H
  C9       1.0000 0.25000  0.58340  0.06750  Biso   1.000  C
  C10      1.0000 0.75000  0.08340  0.93250  Biso   1.000  C
  C11      1.0000 0.25000  0.91660  0.06750  Biso   1.000  C
  C12      1.0000 0.75000  0.41660  0.93250  Biso   1.000  C
  C13      1.0000 0.25000  0.56660  0.28230  Biso   1.000  C
  C14      1.0000 0.75000  0.06660  0.71770  Biso   1.000  C
  C15      1.0000 0.25000  0.93340  0.28230  Biso   1.000  C
  C16      1.0000 0.75000  0.43340  0.71770  Biso   1.000  C
  H17      1.0000 0.25000  0.59230  0.39710  Biso   1.000  H
  H18      1.0000 0.75000  0.09230  0.60290  Biso   1.000  H
  H19      1.0000 0.25000  0.90770  0.39710  Biso   1.000  H
  H20      1.0000 0.75000  0.40770  0.60290  Biso   1.000  H
  C17      1.0000 0.25000  0.64280  0.01550  Biso   1.000  C
  C18      1.0000 0.75000  0.14280  0.98450  Biso   1.000  C
  C19      1.0000 0.25000  0.85720  0.01550  Biso   1.000  C
  C20      1.0000 0.75000  0.35720  0.98450  Biso   1.000  C
  C21      1.0000 0.25000  0.54620  0.90640  Biso   1.000  C
  C22      1.0000 0.75000  0.04620  0.09360  Biso   1.000  C
  C23      1.0000 0.25000  0.95380  0.90640  Biso   1.000  C
  C24      1.0000 0.75000  0.45380  0.09360  Biso   1.000  C
  H21      1.0000 0.25000  0.55810  0.75900  Biso   1.000  H
  H22      1.0000 0.75000  0.05810  0.24100  Biso   1.000  H
  H23      1.0000 0.25000  0.94190  0.75900  Biso   1.000  H
  H24      1.0000 0.75000  0.44190  0.24100  Biso   1.000  H
  C25      1.0000 0.86240  0.75000  0.01770  Biso   1.000  C
  C26      1.0000 0.36240  0.25000  0.98230  Biso   1.000  C
  C27      1.0000 0.63760  0.75000  0.01770  Biso   1.000  C
  C28      1.0000 0.13760  0.25000  0.98230  Biso   1.000  C
  H25      1.0000 0.90940  0.71860  0.94150  Biso   1.000  H
  H26      1.0000 0.40940  0.21860  0.05850  Biso   1.000  H
  H27      1.0000 0.90940  0.78140  0.94150  Biso   1.000  H
  H28      1.0000 0.59060  0.71860  0.94150  Biso   1.000  H
  H29      1.0000 0.09060  0.28140  0.05850  Biso   1.000  H
  H30      1.0000 0.59060  0.78140  0.94150  Biso   1.000  H
  H31      1.0000 0.09060  0.21860  0.05850  Biso   1.000  H
  H32      1.0000 0.40940  0.28140  0.05850  Biso   1.000  H
  C29      1.0000 0.25000  0.49200  0.95120  Biso   1.000  C
  C30      1.0000 0.75000  0.99200  0.04880  Biso   1.000  C
  C31      1.0000 0.25000  0.00800  0.95120  Biso   1.000  C
  C32      1.0000 0.75000  0.50800  0.04880  Biso   1.000  C
  H33      1.0000 0.25000  0.46620  0.83660  Biso   1.000  H
  H34      1.0000 0.75000  0.96620  0.16340  Biso   1.000  H
  H35      1.0000 0.25000  0.03380  0.83660  Biso   1.000  H
  H36      1.0000 0.75000  0.53380  0.16340  Biso   1.000  H
  C33      1.0000 0.25000  0.47560  0.16030  Biso   1.000  C
  C34      1.0000 0.75000  0.97560  0.83970  Biso   1.000  C
  C35      1.0000 0.25000  0.02440  0.16030  Biso   1.000  C
  C36      1.0000 0.75000  0.52440  0.83970  Biso   1.000  C
  C37      1.0000 0.25000  0.51180  0.32580  Biso   1.000  C
  C38      1.0000 0.75000  0.01180  0.67420  Biso   1.000  C
  C39      1.0000 0.25000  0.98820  0.32580  Biso   1.000  C
  C40      1.0000 0.75000  0.48820  0.67420  Biso   1.000  C
  H37      1.0000 0.25000  0.49940  0.47250  Biso   1.000  H
  H38      1.0000 0.75000  0.99940  0.52750  Biso   1.000  H
  H39      1.0000 0.25000  0.00060  0.47250  Biso   1.000  H
  H40      1.0000 0.75000  0.50060  0.52750  Biso   1.000  H
  N1       1.0000 0.94190  0.75000  0.23800  Biso   1.000  N
  N2       1.0000 0.44190  0.25000  0.76200  Biso   1.000  N
  N3       1.0000 0.55810  0.75000  0.23800  Biso   1.000  N
  N4       1.0000 0.05810  0.25000  0.76200  Biso   1.000  N
  N5       1.0000 0.25000  0.41850  0.21250  Biso   1.000  N
  N6       1.0000 0.75000  0.91850  0.78750  Biso   1.000  N
  N7       1.0000 0.25000  0.08150  0.21250  Biso   1.000  N
  N8       1.0000 0.75000  0.58150  0.78750  Biso   1.000  N
  O1       1.0000 0.25000  0.67270  0.18080  Biso   1.000  O
  O2       1.0000 0.75000  0.17270  0.81920  Biso   1.000  O
  O3       1.0000 0.25000  0.82730  0.18080  Biso   1.000  O
  O4       1.0000 0.75000  0.32730  0.81920  Biso   1.000  O
  O5       1.0000 0.25000  0.75000  0.59690  Biso   1.000  O
  O6       1.0000 0.75000  0.25000  0.40310  Biso   1.000  O
  O7       1.0000 0.25000  0.65740  0.82750  Biso   1.000  O
  O8       1.0000 0.75000  0.15740  0.17250  Biso   1.000  O
  O9       1.0000 0.25000  0.84260  0.82750  Biso   1.000  O
  O10      1.0000 0.75000  0.34260  0.17250  Biso   1.000  O
  O11      1.0000 0.25000  0.40550  0.40220  Biso   1.000  O
  O12      1.0000 0.75000  0.90550  0.59780  Biso   1.000  O
  O13      1.0000 0.25000  0.09450  0.40220  Biso   1.000  O
  O14      1.0000 0.75000  0.59450  0.59780  Biso   1.000  O
  O15      1.0000 0.25000  0.38620  0.06530  Biso   1.000  O
  O16      1.0000 0.75000  0.88620  0.93470  Biso   1.000  O
  O17      1.0000 0.25000  0.11380  0.06530  Biso   1.000  O
  O18      1.0000 0.75000  0.61380  0.93470  Biso   1.000  O
  H41      1.0000 0.25000  0.72200  0.65700  Biso   1.000  H
  H42      1.0000 0.75000  0.22200  0.34300  Biso   1.000  H
  H43      1.0000 0.25000  0.77800  0.65700  Biso   1.000  H
  H44      1.0000 0.75000  0.27800  0.34300  Biso   1.000  H
