data_image0
_cell_length_a       10.352
_cell_length_b       9.6733
_cell_length_c       14.371
_cell_angle_alpha    90
_cell_angle_beta     91.39
_cell_angle_gamma    90

_symmetry_space_group_name_H-M    "P 1"
_symmetry_int_tables_number       1

loop_
  _symmetry_equiv_pos_as_xyz
  'x, y, z'

loop_
  _atom_site_label
  _atom_site_occupancy
  _atom_site_fract_x
  _atom_site_fract_y
  _atom_site_fract_z
  _atom_site_thermal_displace_type
  _atom_site_B_iso_or_equiv
  _atom_site_type_symbol
  Cu1      1.0000 0.16946  0.08348  0.30288  Biso   1.000  Cu
  Cu2      1.0000 0.83054  0.58348  0.19712  Biso   1.000  Cu
  Cu3      1.0000 0.83054  0.91652  0.69712  Biso   1.000  Cu
  Cu4      1.0000 0.16946  0.41652  0.80288  Biso   1.000  Cu
  O1       1.0000 0.22390  0.09470  0.14265  Biso   1.000  O
  O2       1.0000 0.77610  0.59470  0.35735  Biso   1.000  O
  O3       1.0000 0.77610  0.90530  0.85735  Biso   1.000  O
  O4       1.0000 0.22390  0.40530  0.64265  Biso   1.000  O
  O5       1.0000 0.17950  0.97360  0.01302  Biso   1.000  O
  O6       1.0000 0.82050  0.47360  0.48698  Biso   1.000  O
  O7       1.0000 0.82050  0.02640  0.98698  Biso   1.000  O
  O8       1.0000 0.17950  0.52640  0.51302  Biso   1.000  O
  O9       1.0000 0.05290  0.76390  0.96970  Biso   1.000  O
  O10      1.0000 0.94710  0.26390  0.53030  Biso   1.000  O
  O11      1.0000 0.94710  0.23610  0.03030  Biso   1.000  O
  O12      1.0000 0.05290  0.73610  0.46970  Biso   1.000  O
  H1       1.0000 0.09500  0.83900  0.97700  Biso   1.000  H
  H2       1.0000 0.90500  0.33900  0.52300  Biso   1.000  H
  H3       1.0000 0.90500  0.16100  0.02300  Biso   1.000  H
  H4       1.0000 0.09500  0.66100  0.47700  Biso   1.000  H
  O13      1.0000 0.91500  0.62120  0.03670  Biso   1.000  O
  O14      1.0000 0.08500  0.12120  0.46330  Biso   1.000  O
  O15      1.0000 0.08500  0.37880  0.96330  Biso   1.000  O
  O16      1.0000 0.91500  0.87880  0.53670  Biso   1.000  O
  N1       1.0000 0.32990  0.18010  0.35700  Biso   1.000  N
  N2       1.0000 0.67010  0.68010  0.14300  Biso   1.000  N
  N3       1.0000 0.67010  0.81990  0.64300  Biso   1.000  N
  N4       1.0000 0.32990  0.31990  0.85700  Biso   1.000  N
  N5       1.0000 0.29160  0.91560  0.32120  Biso   1.000  N
  N6       1.0000 0.70840  0.41560  0.17880  Biso   1.000  N
  N7       1.0000 0.70840  0.08440  0.67880  Biso   1.000  N
  N8       1.0000 0.29160  0.58440  0.82120  Biso   1.000  N
  N9       1.0000 0.04060  0.95550  0.24100  Biso   1.000  N
  N10      1.0000 0.95940  0.45550  0.25900  Biso   1.000  N
  N11      1.0000 0.95940  0.04450  0.75900  Biso   1.000  N
  N12      1.0000 0.04060  0.54450  0.74100  Biso   1.000  N
  N13      1.0000 0.93300  0.76030  0.20400  Biso   1.000  N
  N14      1.0000 0.06700  0.26030  0.29600  Biso   1.000  N
  N15      1.0000 0.06700  0.23970  0.79600  Biso   1.000  N
  N16      1.0000 0.93300  0.73970  0.70400  Biso   1.000  N
  C1       1.0000 0.34240  0.31120  0.38100  Biso   1.000  C
  C2       1.0000 0.65760  0.81120  0.11900  Biso   1.000  C
  C3       1.0000 0.65760  0.68880  0.61900  Biso   1.000  C
  C4       1.0000 0.34240  0.18880  0.88100  Biso   1.000  C
  H5       1.0000 0.27150  0.36980  0.37450  Biso   1.000  H
  H6       1.0000 0.72850  0.86980  0.12550  Biso   1.000  H
  H7       1.0000 0.72850  0.63020  0.62550  Biso   1.000  H
  H8       1.0000 0.27150  0.13020  0.87450  Biso   1.000  H
  C5       1.0000 0.45930  0.36410  0.41580  Biso   1.000  C
  C6       1.0000 0.54070  0.86410  0.08420  Biso   1.000  C
  C7       1.0000 0.54070  0.63590  0.58420  Biso   1.000  C
  C8       1.0000 0.45930  0.13590  0.91580  Biso   1.000  C
  H9       1.0000 0.46520  0.45730  0.43120  Biso   1.000  H
  H10      1.0000 0.53480  0.95730  0.06880  Biso   1.000  H
  H11      1.0000 0.53480  0.54270  0.56880  Biso   1.000  H
  H12      1.0000 0.46520  0.04270  0.93120  Biso   1.000  H
  C9       1.0000 0.56460  0.28150  0.42760  Biso   1.000  C
  C10      1.0000 0.43540  0.78150  0.07240  Biso   1.000  C
  C11      1.0000 0.43540  0.71850  0.57240  Biso   1.000  C
  C12      1.0000 0.56460  0.21850  0.92760  Biso   1.000  C
  H13      1.0000 0.64250  0.31800  0.45000  Biso   1.000  H
  H14      1.0000 0.35750  0.81800  0.05000  Biso   1.000  H
  H15      1.0000 0.35750  0.68200  0.55000  Biso   1.000  H
  H16      1.0000 0.64250  0.18200  0.95000  Biso   1.000  H
  C13      1.0000 0.55450  0.13990  0.40550  Biso   1.000  C
  C14      1.0000 0.44550  0.63990  0.09450  Biso   1.000  C
  C15      1.0000 0.44550  0.86010  0.59450  Biso   1.000  C
  C16      1.0000 0.55450  0.36010  0.90550  Biso   1.000  C
  C17      1.0000 0.65600  0.04040  0.41690  Biso   1.000  C
  C18      1.0000 0.34400  0.54040  0.08310  Biso   1.000  C
  C19      1.0000 0.34400  0.95960  0.58310  Biso   1.000  C
  C20      1.0000 0.65600  0.45960  0.91690  Biso   1.000  C
  H17      1.0000 0.73610  0.06890  0.44050  Biso   1.000  H
  H18      1.0000 0.26390  0.56890  0.05950  Biso   1.000  H
  H19      1.0000 0.26390  0.93110  0.55950  Biso   1.000  H
  H20      1.0000 0.73610  0.43110  0.94050  Biso   1.000  H
  C21      1.0000 0.63810  0.90640  0.39440  Biso   1.000  C
  C22      1.0000 0.36190  0.40640  0.10560  Biso   1.000  C
  C23      1.0000 0.36190  0.09360  0.60560  Biso   1.000  C
  C24      1.0000 0.63810  0.59360  0.89440  Biso   1.000  C
  H21      1.0000 0.70660  0.84480  0.40140  Biso   1.000  H
  H22      1.0000 0.29340  0.34480  0.09860  Biso   1.000  H
  H23      1.0000 0.29340  0.15520  0.59860  Biso   1.000  H
  H24      1.0000 0.70660  0.65520  0.90140  Biso   1.000  H
  C25      1.0000 0.51550  0.85720  0.35990  Biso   1.000  C
  C26      1.0000 0.48450  0.35720  0.14010  Biso   1.000  C
  C27      1.0000 0.48450  0.14280  0.64010  Biso   1.000  C
  C28      1.0000 0.51550  0.64280  0.85990  Biso   1.000  C
  C29      1.0000 0.48940  0.71950  0.33940  Biso   1.000  C
  C30      1.0000 0.51060  0.21950  0.16060  Biso   1.000  C
  C31      1.0000 0.51060  0.28050  0.66060  Biso   1.000  C
  C32      1.0000 0.48940  0.78050  0.83940  Biso   1.000  C
  H25      1.0000 0.55460  0.65360  0.34380  Biso   1.000  H
  H26      1.0000 0.44540  0.15360  0.15620  Biso   1.000  H
  H27      1.0000 0.44540  0.34640  0.65620  Biso   1.000  H
  H28      1.0000 0.55460  0.84640  0.84380  Biso   1.000  H
  C33      1.0000 0.36670  0.68200  0.31280  Biso   1.000  C
  C34      1.0000 0.63330  0.18200  0.18720  Biso   1.000  C
  C35      1.0000 0.63330  0.31800  0.68720  Biso   1.000  C
  C36      1.0000 0.36670  0.81800  0.81280  Biso   1.000  C
  H29      1.0000 0.34740  0.58990  0.30040  Biso   1.000  H
  H30      1.0000 0.65260  0.08990  0.19960  Biso   1.000  H
  H31      1.0000 0.65260  0.41010  0.69960  Biso   1.000  H
  H32      1.0000 0.34740  0.91010  0.80040  Biso   1.000  H
  C37      1.0000 0.27040  0.78280  0.30430  Biso   1.000  C
  C38      1.0000 0.72960  0.28280  0.19570  Biso   1.000  C
  C39      1.0000 0.72960  0.21720  0.69570  Biso   1.000  C
  C40      1.0000 0.27040  0.71720  0.80430  Biso   1.000  C
  H33      1.0000 0.18760  0.75530  0.28590  Biso   1.000  H
  H34      1.0000 0.81240  0.25530  0.21410  Biso   1.000  H
  H35      1.0000 0.81240  0.24470  0.71410  Biso   1.000  H
  H36      1.0000 0.18760  0.74470  0.78590  Biso   1.000  H
  C41      1.0000 0.43270  0.09510  0.37070  Biso   1.000  C
  C42      1.0000 0.56730  0.59510  0.12930  Biso   1.000  C
  C43      1.0000 0.56730  0.90490  0.62930  Biso   1.000  C
  C44      1.0000 0.43270  0.40490  0.87070  Biso   1.000  C
  C45      1.0000 0.41270  0.95250  0.34910  Biso   1.000  C
  C46      1.0000 0.58730  0.45250  0.15090  Biso   1.000  C
  C47      1.0000 0.58730  0.04750  0.65090  Biso   1.000  C
  C48      1.0000 0.41270  0.54750  0.84910  Biso   1.000  C
  C49      1.0000 0.16310  0.00480  0.09890  Biso   1.000  C
  C50      1.0000 0.83690  0.50480  0.40110  Biso   1.000  C
  C51      1.0000 0.83690  0.99520  0.90110  Biso   1.000  C
  C52      1.0000 0.16310  0.49520  0.59890  Biso   1.000  C
  C53      1.0000 0.06710  0.92220  0.15060  Biso   1.000  C
  C54      1.0000 0.93290  0.42220  0.34940  Biso   1.000  C
  C55      1.0000 0.93290  0.07780  0.84940  Biso   1.000  C
  C56      1.0000 0.06710  0.57780  0.65060  Biso   1.000  C
  C57      1.0000 0.99930  0.80290  0.12760  Biso   1.000  C
  C58      1.0000 0.00070  0.30290  0.37240  Biso   1.000  C
  C59      1.0000 0.00070  0.19710  0.87240  Biso   1.000  C
  C60      1.0000 0.99930  0.69710  0.62760  Biso   1.000  C
  C61      1.0000 0.98640  0.72140  0.04020  Biso   1.000  C
  C62      1.0000 0.01360  0.22140  0.45980  Biso   1.000  C
  C63      1.0000 0.01360  0.27860  0.95980  Biso   1.000  C
  C64      1.0000 0.98640  0.77860  0.54020  Biso   1.000  C
  C65      1.0000 0.96020  0.85520  0.27040  Biso   1.000  C
  C66      1.0000 0.03980  0.35520  0.22960  Biso   1.000  C
  C67      1.0000 0.03980  0.14480  0.72960  Biso   1.000  C
  C68      1.0000 0.96020  0.64480  0.77040  Biso   1.000  C
  H37      1.0000 0.92710  0.85210  0.33000  Biso   1.000  H
  H38      1.0000 0.07290  0.35210  0.17000  Biso   1.000  H
  H39      1.0000 0.07290  0.14790  0.67000  Biso   1.000  H
  H40      1.0000 0.92710  0.64790  0.83000  Biso   1.000  H
