data_image0
_cell_length_a       10.36
_cell_length_b       9.6427
_cell_length_c       14.352
_cell_angle_alpha    90
_cell_angle_beta     91.36
_cell_angle_gamma    90

_symmetry_space_group_name_H-M    "P 1"
_symmetry_int_tables_number       1

loop_
  _symmetry_equiv_pos_as_xyz
  'x, y, z'

loop_
  _atom_site_label
  _atom_site_occupancy
  _atom_site_fract_x
  _atom_site_fract_y
  _atom_site_fract_z
  _atom_site_thermal_displace_type
  _atom_site_B_iso_or_equiv
  _atom_site_type_symbol
  Cu1      1.0000 0.33050  0.58475  0.19750  Biso   1.000  Cu
  Cu2      1.0000 0.66950  0.08475  0.30250  Biso   1.000  Cu
  Cu3      1.0000 0.66950  0.41525  0.80250  Biso   1.000  Cu
  Cu4      1.0000 0.33050  0.91525  0.69750  Biso   1.000  Cu
  N1       1.0000 0.17110  0.68160  0.14330  Biso   1.000  N
  N2       1.0000 0.82890  0.18160  0.35670  Biso   1.000  N
  N3       1.0000 0.82890  0.31840  0.85670  Biso   1.000  N
  N4       1.0000 0.17110  0.81840  0.64330  Biso   1.000  N
  N5       1.0000 0.20800  0.41560  0.17920  Biso   1.000  N
  N6       1.0000 0.79200  0.91560  0.32080  Biso   1.000  N
  N7       1.0000 0.79200  0.58440  0.82080  Biso   1.000  N
  N8       1.0000 0.20800  0.08440  0.67920  Biso   1.000  N
  N9       1.0000 0.45890  0.45570  0.25850  Biso   1.000  N
  N10      1.0000 0.54110  0.95570  0.24150  Biso   1.000  N
  N11      1.0000 0.54110  0.54430  0.74150  Biso   1.000  N
  N12      1.0000 0.45890  0.04430  0.75850  Biso   1.000  N
  N13      1.0000 0.56660  0.26220  0.29570  Biso   1.000  N
  N14      1.0000 0.43340  0.76220  0.20430  Biso   1.000  N
  N15      1.0000 0.43340  0.73780  0.70430  Biso   1.000  N
  N16      1.0000 0.56660  0.23780  0.79570  Biso   1.000  N
  O1       1.0000 0.27660  0.59630  0.35780  Biso   1.000  O
  O2       1.0000 0.72340  0.09630  0.14220  Biso   1.000  O
  O3       1.0000 0.72340  0.40370  0.64220  Biso   1.000  O
  O4       1.0000 0.27660  0.90370  0.85780  Biso   1.000  O
  O5       1.0000 0.32100  0.47420  0.48690  Biso   1.000  O
  O6       1.0000 0.67900  0.97420  0.01310  Biso   1.000  O
  O7       1.0000 0.67900  0.52580  0.51310  Biso   1.000  O
  O8       1.0000 0.32100  0.02580  0.98690  Biso   1.000  O
  O9       1.0000 0.44760  0.26380  0.53000  Biso   1.000  O
  O10      1.0000 0.55240  0.76380  0.97000  Biso   1.000  O
  O11      1.0000 0.55240  0.73620  0.47000  Biso   1.000  O
  O12      1.0000 0.44760  0.23620  0.03000  Biso   1.000  O
  O13      1.0000 0.58520  0.12140  0.46310  Biso   1.000  O
  O14      1.0000 0.41480  0.62140  0.03690  Biso   1.000  O
  O15      1.0000 0.41480  0.87860  0.53690  Biso   1.000  O
  O16      1.0000 0.58520  0.37860  0.96310  Biso   1.000  O
  C1       1.0000 0.15790  0.81320  0.11950  Biso   1.000  C
  C2       1.0000 0.84210  0.31320  0.38050  Biso   1.000  C
  C3       1.0000 0.84210  0.18680  0.88050  Biso   1.000  C
  C4       1.0000 0.15790  0.68680  0.61950  Biso   1.000  C
  C5       1.0000 0.04140  0.86720  0.08410  Biso   1.000  C
  C6       1.0000 0.95860  0.36720  0.41590  Biso   1.000  C
  C7       1.0000 0.95860  0.13280  0.91590  Biso   1.000  C
  C8       1.0000 0.04140  0.63280  0.58410  Biso   1.000  C
  C9       1.0000 0.93660  0.78300  0.07190  Biso   1.000  C
  C10      1.0000 0.06340  0.28300  0.42810  Biso   1.000  C
  C11      1.0000 0.06340  0.21700  0.92810  Biso   1.000  C
  C12      1.0000 0.93660  0.71700  0.57190  Biso   1.000  C
  C13      1.0000 0.94670  0.64290  0.09400  Biso   1.000  C
  C14      1.0000 0.05330  0.14290  0.40600  Biso   1.000  C
  C15      1.0000 0.05330  0.35710  0.90600  Biso   1.000  C
  C16      1.0000 0.94670  0.85710  0.59400  Biso   1.000  C
  C17      1.0000 0.84360  0.54210  0.08240  Biso   1.000  C
  C18      1.0000 0.15640  0.04210  0.41760  Biso   1.000  C
  C19      1.0000 0.15640  0.45790  0.91760  Biso   1.000  C
  C20      1.0000 0.84360  0.95790  0.58240  Biso   1.000  C
  C21      1.0000 0.86080  0.40880  0.10530  Biso   1.000  C
  C22      1.0000 0.13920  0.90880  0.39470  Biso   1.000  C
  C23      1.0000 0.13920  0.59120  0.89470  Biso   1.000  C
  C24      1.0000 0.86080  0.09120  0.60530  Biso   1.000  C
  C25      1.0000 0.98440  0.35870  0.14060  Biso   1.000  C
  C26      1.0000 0.01560  0.85870  0.35940  Biso   1.000  C
  C27      1.0000 0.01560  0.64130  0.85940  Biso   1.000  C
  C28      1.0000 0.98440  0.14130  0.64060  Biso   1.000  C
  C29      1.0000 0.01140  0.22040  0.16010  Biso   1.000  C
  C30      1.0000 0.98860  0.72040  0.33990  Biso   1.000  C
  C31      1.0000 0.98860  0.77960  0.83990  Biso   1.000  C
  C32      1.0000 0.01140  0.27960  0.66010  Biso   1.000  C
  C33      1.0000 0.13310  0.18250  0.18850  Biso   1.000  C
  C34      1.0000 0.86690  0.68250  0.31150  Biso   1.000  C
  C35      1.0000 0.86690  0.81750  0.81150  Biso   1.000  C
  C36      1.0000 0.13310  0.31750  0.68850  Biso   1.000  C
  C37      1.0000 0.22900  0.28290  0.19600  Biso   1.000  C
  C38      1.0000 0.77100  0.78290  0.30400  Biso   1.000  C
  C39      1.0000 0.77100  0.71710  0.80400  Biso   1.000  C
  C40      1.0000 0.22900  0.21710  0.69600  Biso   1.000  C
  C41      1.0000 0.08710  0.45500  0.15160  Biso   1.000  C
  C42      1.0000 0.91290  0.95500  0.34840  Biso   1.000  C
  C43      1.0000 0.91290  0.54500  0.84840  Biso   1.000  C
  C44      1.0000 0.08710  0.04500  0.65160  Biso   1.000  C
  C45      1.0000 0.06780  0.59570  0.13020  Biso   1.000  C
  C46      1.0000 0.93220  0.09570  0.36980  Biso   1.000  C
  C47      1.0000 0.93220  0.40430  0.86980  Biso   1.000  C
  C48      1.0000 0.06780  0.90430  0.63020  Biso   1.000  C
  C49      1.0000 0.53970  0.35590  0.22960  Biso   1.000  C
  C50      1.0000 0.46030  0.85590  0.27040  Biso   1.000  C
  C51      1.0000 0.46030  0.64410  0.77040  Biso   1.000  C
  C52      1.0000 0.53970  0.14410  0.72960  Biso   1.000  C
  C53      1.0000 0.33800  0.50560  0.40180  Biso   1.000  C
  C54      1.0000 0.66200  0.00560  0.09820  Biso   1.000  C
  C55      1.0000 0.66200  0.49440  0.59820  Biso   1.000  C
  C56      1.0000 0.33800  0.99440  0.90180  Biso   1.000  C
  C57      1.0000 0.43340  0.42380  0.34930  Biso   1.000  C
  C58      1.0000 0.56660  0.92380  0.15070  Biso   1.000  C
  C59      1.0000 0.56660  0.57620  0.65070  Biso   1.000  C
  C60      1.0000 0.43340  0.07620  0.84930  Biso   1.000  C
  C61      1.0000 0.50030  0.30340  0.37250  Biso   1.000  C
  C62      1.0000 0.49970  0.80340  0.12750  Biso   1.000  C
  C63      1.0000 0.49970  0.69660  0.62750  Biso   1.000  C
  C64      1.0000 0.50030  0.19660  0.87250  Biso   1.000  C
  C65      1.0000 0.51350  0.22270  0.45920  Biso   1.000  C
  C66      1.0000 0.48650  0.72270  0.04080  Biso   1.000  C
  C67      1.0000 0.48650  0.77730  0.54080  Biso   1.000  C
  C68      1.0000 0.51350  0.27730  0.95920  Biso   1.000  C
  H1       1.0000 0.22860  0.87200  0.12660  Biso   1.000  H
  H2       1.0000 0.77140  0.37200  0.37340  Biso   1.000  H
  H3       1.0000 0.77140  0.12800  0.87340  Biso   1.000  H
  H4       1.0000 0.22860  0.62800  0.62660  Biso   1.000  H
  H5       1.0000 0.03540  0.96080  0.06870  Biso   1.000  H
  H6       1.0000 0.96460  0.46080  0.43130  Biso   1.000  H
  H7       1.0000 0.96460  0.03920  0.93130  Biso   1.000  H
  H8       1.0000 0.03540  0.53920  0.56870  Biso   1.000  H
  H9       1.0000 0.85880  0.81900  0.04900  Biso   1.000  H
  H10      1.0000 0.14120  0.31900  0.45100  Biso   1.000  H
  H11      1.0000 0.14120  0.18100  0.95100  Biso   1.000  H
  H12      1.0000 0.85880  0.68100  0.54900  Biso   1.000  H
  H13      1.0000 0.76380  0.57090  0.05860  Biso   1.000  H
  H14      1.0000 0.23620  0.07090  0.44140  Biso   1.000  H
  H15      1.0000 0.23620  0.42910  0.94140  Biso   1.000  H
  H16      1.0000 0.76380  0.92910  0.55860  Biso   1.000  H
  H17      1.0000 0.79210  0.34710  0.09840  Biso   1.000  H
  H18      1.0000 0.20790  0.84710  0.40160  Biso   1.000  H
  H19      1.0000 0.20790  0.65290  0.90160  Biso   1.000  H
  H20      1.0000 0.79210  0.15290  0.59840  Biso   1.000  H
  H21      1.0000 0.94680  0.15380  0.15380  Biso   1.000  H
  H22      1.0000 0.05320  0.65380  0.34620  Biso   1.000  H
  H23      1.0000 0.05320  0.84620  0.84620  Biso   1.000  H
  H24      1.0000 0.94680  0.34620  0.65380  Biso   1.000  H
  H25      1.0000 0.15170  0.09040  0.20260  Biso   1.000  H
  H26      1.0000 0.84830  0.59040  0.29740  Biso   1.000  H
  H27      1.0000 0.84830  0.90960  0.79740  Biso   1.000  H
  H28      1.0000 0.15170  0.40960  0.70260  Biso   1.000  H
  H29      1.0000 0.31200  0.25530  0.21380  Biso   1.000  H
  H30      1.0000 0.68800  0.75530  0.28620  Biso   1.000  H
  H31      1.0000 0.68800  0.74470  0.78620  Biso   1.000  H
  H32      1.0000 0.31200  0.24470  0.71380  Biso   1.000  H
  H33      1.0000 0.57310  0.35260  0.17000  Biso   1.000  H
  H34      1.0000 0.42690  0.85260  0.33000  Biso   1.000  H
  H35      1.0000 0.42690  0.64740  0.83000  Biso   1.000  H
  H36      1.0000 0.57310  0.14740  0.67000  Biso   1.000  H
  H37      1.0000 0.39500  0.33000  0.51900  Biso   1.000  H
  H38      1.0000 0.60500  0.83000  0.98100  Biso   1.000  H
  H39      1.0000 0.60500  0.67000  0.48100  Biso   1.000  H
  H40      1.0000 0.39500  0.17000  0.01900  Biso   1.000  H
