data_image0
_cell_length_a       9.535
_cell_length_b       9.72
_cell_length_c       11.955
_cell_angle_alpha    96.928
_cell_angle_beta     95.608
_cell_angle_gamma    107.68

_symmetry_space_group_name_H-M    "P 1"
_symmetry_int_tables_number       1

loop_
  _symmetry_equiv_pos_as_xyz
  'x, y, z'

loop_
  _atom_site_label
  _atom_site_occupancy
  _atom_site_fract_x
  _atom_site_fract_y
  _atom_site_fract_z
  _atom_site_thermal_displace_type
  _atom_site_B_iso_or_equiv
  _atom_site_type_symbol
  Cu1      1.0000 0.22885  0.87106  0.87171  Biso   1.000  Cu
  Cu2      1.0000 0.77115  0.12894  0.12829  Biso   1.000  Cu
  Cu3      1.0000 0.00000  0.00000  0.50000  Biso   1.000  Cu
  Cu4      1.0000 0.50000  0.50000  0.00000  Biso   1.000  Cu
  N1       1.0000 0.65280  0.12890  0.60560  Biso   1.000  N
  N2       1.0000 0.34720  0.87110  0.39440  Biso   1.000  N
  N3       1.0000 0.56420  0.69420  0.55990  Biso   1.000  N
  N4       1.0000 0.43580  0.30580  0.44010  Biso   1.000  N
  N5       1.0000 0.76950  0.66030  0.12190  Biso   1.000  N
  N6       1.0000 0.23050  0.33970  0.87810  Biso   1.000  N
  N7       1.0000 0.07930  0.01530  0.30080  Biso   1.000  N
  N8       1.0000 0.92070  0.98470  0.69920  Biso   1.000  N
  N9       1.0000 0.09660  0.85200  0.53660  Biso   1.000  N
  N10      1.0000 0.90340  0.14800  0.46340  Biso   1.000  N
  H1       1.0000 0.16810  0.85270  0.49250  Biso   1.000  H
  H2       1.0000 0.83190  0.14730  0.50750  Biso   1.000  H
  H3       1.0000 0.13910  0.87400  0.60990  Biso   1.000  H
  H4       1.0000 0.86090  0.12600  0.39010  Biso   1.000  H
  N11      1.0000 0.82650  0.82340  0.42930  Biso   1.000  N
  N12      1.0000 0.17350  0.17660  0.57070  Biso   1.000  N
  H5       1.0000 0.79510  0.83300  0.35800  Biso   1.000  H
  H6       1.0000 0.20490  0.16700  0.64200  Biso   1.000  H
  H7       1.0000 0.75070  0.81500  0.47010  Biso   1.000  H
  H8       1.0000 0.24930  0.18500  0.52990  Biso   1.000  H
  N13      1.0000 0.40580  0.65290  0.03640  Biso   1.000  N
  N14      1.0000 0.59420  0.34710  0.96360  Biso   1.000  N
  H9       1.0000 0.47660  0.73990  0.06050  Biso   1.000  H
  H10      1.0000 0.52340  0.26010  0.93950  Biso   1.000  H
  H11      1.0000 0.35040  0.66040  0.97350  Biso   1.000  H
  H12      1.0000 0.64960  0.33960  0.02650  Biso   1.000  H
  N15      1.0000 0.42630  0.42840  0.14110  Biso   1.000  N
  N16      1.0000 0.57370  0.57160  0.85890  Biso   1.000  N
  H13      1.0000 0.49790  0.40630  0.18290  Biso   1.000  H
  H14      1.0000 0.50210  0.59370  0.81710  Biso   1.000  H
  H15      1.0000 0.34660  0.34740  0.12200  Biso   1.000  H
  H16      1.0000 0.65340  0.65260  0.87800  Biso   1.000  H
  S1       1.0000 0.35850  0.05414  0.78696  Biso   1.000  S
  S2       1.0000 0.64150  0.94586  0.21304  Biso   1.000  S
  S3       1.0000 0.28599  0.70134  0.75111  Biso   1.000  S
  S4       1.0000 0.71401  0.29866  0.24889  Biso   1.000  S
  S5       1.0000 0.01584  0.71752  0.90521  Biso   1.000  S
  S6       1.0000 0.98416  0.28248  0.09479  Biso   1.000  S
  S7       1.0000 0.26910  0.00842  0.04549  Biso   1.000  S
  S8       1.0000 0.73090  0.99158  0.95451  Biso   1.000  S
  C1       1.0000 0.56320  0.05330  0.64740  Biso   1.000  C
  C2       1.0000 0.43680  0.94670  0.35260  Biso   1.000  C
  C3       1.0000 0.45070  0.96370  0.70220  Biso   1.000  C
  C4       1.0000 0.54930  0.03630  0.29780  Biso   1.000  C
  C5       1.0000 0.41960  0.81680  0.68670  Biso   1.000  C
  C6       1.0000 0.58040  0.18320  0.31330  Biso   1.000  C
  C7       1.0000 0.49980  0.74930  0.61400  Biso   1.000  C
  C8       1.0000 0.50020  0.25070  0.38600  Biso   1.000  C
  C9       1.0000 0.87600  0.72240  0.08920  Biso   1.000  C
  C10      1.0000 0.12400  0.27760  0.91080  Biso   1.000  C
  C11      1.0000 0.00560  0.79530  0.04050  Biso   1.000  C
  C12      1.0000 0.99440  0.20470  0.95950  Biso   1.000  C
  C13      1.0000 0.11050  0.91720  0.09850  Biso   1.000  C
  C14      1.0000 0.88950  0.08280  0.90150  Biso   1.000  C
  C15      1.0000 0.09180  0.97420  0.21080  Biso   1.000  C
  C16      1.0000 0.90820  0.02580  0.78920  Biso   1.000  C
  C17      1.0000 0.98560  0.70920  0.51660  Biso   1.000  C
  C18      1.0000 0.01440  0.29080  0.48340  Biso   1.000  C
  H17      1.0000 0.03340  0.63560  0.49970  Biso   1.000  H
  H18      1.0000 0.96660  0.36440  0.50030  Biso   1.000  H
  H19      1.0000 0.94140  0.69220  0.58550  Biso   1.000  H
  H20      1.0000 0.05860  0.30780  0.41450  Biso   1.000  H
  C19      1.0000 0.87290  0.69320  0.42690  Biso   1.000  C
  C20      1.0000 0.12710  0.30680  0.57310  Biso   1.000  C
  H21      1.0000 0.90840  0.67440  0.35510  Biso   1.000  H
  H22      1.0000 0.09160  0.32560  0.64490  Biso   1.000  H
  H23      1.0000 0.78800  0.60960  0.43170  Biso   1.000  H
  H24      1.0000 0.21200  0.39040  0.56830  Biso   1.000  H
  C21      1.0000 0.31130  0.61500  0.12570  Biso   1.000  C
  C22      1.0000 0.68870  0.38500  0.87430  Biso   1.000  C
  H25      1.0000 0.21430  0.54770  0.09210  Biso   1.000  H
  H26      1.0000 0.78570  0.45230  0.90790  Biso   1.000  H
  H27      1.0000 0.29770  0.70230  0.16510  Biso   1.000  H
  H28      1.0000 0.70230  0.29770  0.83490  Biso   1.000  H
  C23      1.0000 0.38570  0.54560  0.20740  Biso   1.000  C
  C24      1.0000 0.61430  0.45440  0.79260  Biso   1.000  C
  H29      1.0000 0.31890  0.50500  0.26000  Biso   1.000  H
  H30      1.0000 0.68110  0.49500  0.74000  Biso   1.000  H
  H31      1.0000 0.47400  0.61790  0.25100  Biso   1.000  H
  H32      1.0000 0.52600  0.38210  0.74900  Biso   1.000  H
