data_image0
_cell_length_a       6.3596
_cell_length_b       7.6821
_cell_length_c       14.234
_cell_angle_alpha    102.532
_cell_angle_beta     94.963
_cell_angle_gamma    93.215

_symmetry_space_group_name_H-M    "P 1"
_symmetry_int_tables_number       1

loop_
  _symmetry_equiv_pos_as_xyz
  'x, y, z'

loop_
  _atom_site_label
  _atom_site_occupancy
  _atom_site_fract_x
  _atom_site_fract_y
  _atom_site_fract_z
  _atom_site_thermal_displace_type
  _atom_site_B_iso_or_equiv
  _atom_site_type_symbol
  Cu1      1.0000 0.50000  0.50000  0.50000  Biso   1.000  Cu
  Cu2      1.0000 0.00000  0.50000  0.50000  Biso   1.000  Cu
  O1       1.0000 0.41250  0.58250  0.38400  Biso   1.000  O
  O2       1.0000 0.58750  0.41750  0.61600  Biso   1.000  O
  O3       1.0000 0.05950  0.58800  0.38580  Biso   1.000  O
  O4       1.0000 0.94050  0.41200  0.61420  Biso   1.000  O
  C1       1.0000 0.22500  0.60030  0.34960  Biso   1.000  C
  C2       1.0000 0.77500  0.39970  0.65040  Biso   1.000  C
  O5       1.0000 0.27840  0.72940  0.58870  Biso   1.000  O
  O6       1.0000 0.72160  0.27060  0.41130  Biso   1.000  O
  H1       1.0000 0.27954  0.81918  0.56628  Biso   1.000  H
  H2       1.0000 0.72046  0.18082  0.43372  Biso   1.000  H
  N1       1.0000 0.23620  0.34100  0.48160  Biso   1.000  N
  N2       1.0000 0.76380  0.65900  0.51840  Biso   1.000  N
  C3       1.0000 0.21350  0.64760  0.25090  Biso   1.000  C
  C4       1.0000 0.78650  0.35240  0.74910  Biso   1.000  C
  C5       1.0000 0.38010  0.62100  0.19480  Biso   1.000  C
  C6       1.0000 0.61990  0.37900  0.80520  Biso   1.000  C
  H3       1.0000 0.50094  0.57506  0.21837  Biso   1.000  H
  H4       1.0000 0.49906  0.42494  0.78163  Biso   1.000  H
  N3       1.0000 0.23600  0.20240  0.50790  Biso   1.000  N
  N4       1.0000 0.76400  0.79760  0.49210  Biso   1.000  N
  C7       1.0000 0.03480  0.71420  0.21570  Biso   1.000  C
  C8       1.0000 0.96520  0.28580  0.78430  Biso   1.000  C
  H5       1.0000 0.92129  0.73192  0.25288  Biso   1.000  H
  H6       1.0000 0.07871  0.26808  0.74712  Biso   1.000  H
  C9       1.0000 0.37200  0.66020  0.10570  Biso   1.000  C
  C10      1.0000 0.62800  0.33980  0.89430  Biso   1.000  C
  H7       1.0000 0.48676  0.64259  0.06929  Biso   1.000  H
  H8       1.0000 0.51324  0.35741  0.93071  Biso   1.000  H
  C11      1.0000 0.18870  0.72740  0.06930  Biso   1.000  C
  C12      1.0000 0.81130  0.27260  0.93070  Biso   1.000  C
  F1       1.0000 0.26440  0.93380  0.97440  Biso   1.000  F
  F2       1.0000 0.73560  0.06620  0.02560  Biso   1.000  F
  F3       1.0000 0.99010  0.75970  0.92910  Biso   1.000  F
  F4       1.0000 0.00990  0.24030  0.07090  Biso   1.000  F
  F5       1.0000 0.28970  0.66420  0.91060  Biso   1.000  F
  F6       1.0000 0.71030  0.33580  0.08940  Biso   1.000  F
  C13      1.0000 0.18400  0.77160  0.97250  Biso   1.000  C
  C14      1.0000 0.81600  0.22840  0.02750  Biso   1.000  C
  C15      1.0000 0.02160  0.75570  0.12470  Biso   1.000  C
  C16      1.0000 0.97840  0.24430  0.87530  Biso   1.000  C
  H9       1.0000 0.90059  0.80224  0.10168  Biso   1.000  H
  H10      1.0000 0.09941  0.19776  0.89832  Biso   1.000  H
  N5       1.0000 0.23440  0.07000  0.53250  Biso   1.000  N
  N6       1.0000 0.76560  0.93000  0.46750  Biso   1.000  N
  C17      1.0000 0.29030  0.78010  0.69080  Biso   1.000  C
  C18      1.0000 0.70970  0.21990  0.30920  Biso   1.000  C
  H11      1.0000 0.17636  0.85555  0.70877  Biso   1.000  H
  H12      1.0000 0.82364  0.14445  0.29123  Biso   1.000  H
  H13      1.0000 0.26833  0.67351  0.71597  Biso   1.000  H
  H14      1.0000 0.73167  0.32649  0.28403  Biso   1.000  H
  C19      1.0000 0.48400  0.87250  0.73500  Biso   1.000  C
  C20      1.0000 0.51600  0.12750  0.26500  Biso   1.000  C
  H15      1.0000 0.59949  0.80598  0.71115  Biso   1.000  H
  H16      1.0000 0.40051  0.19402  0.28885  Biso   1.000  H
  H17      1.0000 0.48993  0.88576  0.80384  Biso   1.000  H
  H18      1.0000 0.51007  0.11424  0.19616  Biso   1.000  H
  H19      1.0000 0.49565  0.98843  0.72007  Biso   1.000  H
  H20      1.0000 0.50435  0.01157  0.27993  Biso   1.000  H
