data_image0
_cell_length_a       6.426
_cell_length_b       7.471
_cell_length_c       13.774
_cell_angle_alpha    75.689
_cell_angle_beta     83.872
_cell_angle_gamma    85.763

_symmetry_space_group_name_H-M    "P 1"
_symmetry_int_tables_number       1

loop_
  _symmetry_equiv_pos_as_xyz
  'x, y, z'

loop_
  _atom_site_label
  _atom_site_occupancy
  _atom_site_fract_x
  _atom_site_fract_y
  _atom_site_fract_z
  _atom_site_thermal_displace_type
  _atom_site_B_iso_or_equiv
  _atom_site_type_symbol
  Cu1      1.0000 0.50000  0.00000  0.50000  Biso   1.000  Cu
  Cu2      1.0000 0.00000  0.00000  0.50000  Biso   1.000  Cu
  O1       1.0000 0.43260  0.20270  0.38660  Biso   1.000  O
  O2       1.0000 0.56740  0.79730  0.61340  Biso   1.000  O
  O3       1.0000 0.08560  0.19850  0.38610  Biso   1.000  O
  O4       1.0000 0.91440  0.80150  0.61390  Biso   1.000  O
  O5       1.0000 0.21460  0.14450  0.59990  Biso   1.000  O
  O6       1.0000 0.78540  0.85550  0.40010  Biso   1.000  O
  H1       1.0000 0.20924  0.25751  0.58014  Biso   1.000  H
  H2       1.0000 0.79076  0.74249  0.41986  Biso   1.000  H
  C1       1.0000 0.29110  0.81080  0.97550  Biso   1.000  C
  C2       1.0000 0.70890  0.18920  0.02450  Biso   1.000  C
  F1       1.0000 0.46700  0.80300  0.91780  Biso   1.000  F
  F2       1.0000 0.53300  0.19700  0.08220  Biso   1.000  F
  F3       1.0000 0.27800  0.98400  0.98880  Biso   1.000  F
  F4       1.0000 0.72200  0.01600  0.01120  Biso   1.000  F
  F5       1.0000 0.12900  0.80500  0.92310  Biso   1.000  F
  F6       1.0000 0.87100  0.19500  0.07690  Biso   1.000  F
  N1       1.0000 0.26520  0.85570  0.47750  Biso   1.000  N
  N2       1.0000 0.73480  0.14430  0.52250  Biso   1.000  N
  N3       1.0000 0.26720  0.68780  0.50530  Biso   1.000  N
  N4       1.0000 0.73280  0.31220  0.49470  Biso   1.000  N
  N5       1.0000 0.26060  0.53570  0.53240  Biso   1.000  N
  N6       1.0000 0.73940  0.46430  0.46760  Biso   1.000  N
  C3       1.0000 0.26060  0.25730  0.35100  Biso   1.000  C
  C4       1.0000 0.73940  0.74270  0.64900  Biso   1.000  C
  C5       1.0000 0.26740  0.40870  0.25680  Biso   1.000  C
  C6       1.0000 0.73260  0.59130  0.74320  Biso   1.000  C
  C7       1.0000 0.44800  0.50470  0.22100  Biso   1.000  C
  C8       1.0000 0.55200  0.49530  0.77900  Biso   1.000  C
  H3       1.0000 0.56454  0.48007  0.25773  Biso   1.000  H
  H4       1.0000 0.43546  0.51993  0.74227  Biso   1.000  H
  C9       1.0000 0.45460  0.63760  0.13020  Biso   1.000  C
  C10      1.0000 0.54540  0.36240  0.86980  Biso   1.000  C
  H5       1.0000 0.57547  0.70189  0.10622  Biso   1.000  H
  H6       1.0000 0.42453  0.29811  0.89378  Biso   1.000  H
  C11      1.0000 0.28050  0.67450  0.07530  Biso   1.000  C
  C12      1.0000 0.71950  0.32550  0.92470  Biso   1.000  C
  C13      1.0000 0.09980  0.57850  0.11120  Biso   1.000  C
  C14      1.0000 0.90020  0.42150  0.88880  Biso   1.000  C
  H7       1.0000 0.98330  0.60314  0.07441  Biso   1.000  H
  H8       1.0000 0.01670  0.39686  0.92559  Biso   1.000  H
  C15      1.0000 0.09320  0.44560  0.20190  Biso   1.000  C
  C16      1.0000 0.90680  0.55440  0.79810  Biso   1.000  C
  H9       1.0000 0.97236  0.38132  0.22592  Biso   1.000  H
  H10      1.0000 0.02764  0.61868  0.77408  Biso   1.000  H
  C17      1.0000 0.18900  0.09530  0.70480  Biso   1.000  C
  C18      1.0000 0.81100  0.90470  0.29520  Biso   1.000  C
  H11      1.0000 0.23329  0.19333  0.73050  Biso   1.000  H
  H12      1.0000 0.76671  0.80667  0.26950  Biso   1.000  H
  H13      1.0000 0.27251  0.98433  0.72912  Biso   1.000  H
  H14      1.0000 0.72749  0.01567  0.27088  Biso   1.000  H
  H15      1.0000 0.04434  0.07446  0.72707  Biso   1.000  H
  H16      1.0000 0.95566  0.92554  0.27293  Biso   1.000  H
  F7       1.0000 0.49100  0.84600  0.93800  Biso   1.000  F
  F8       1.0000 0.50900  0.15400  0.06200  Biso   1.000  F
  F9       1.0000 0.20700  0.97600  0.98300  Biso   1.000  F
  F10      1.0000 0.79300  0.02400  0.01700  Biso   1.000  F
  F11      1.0000 0.21900  0.73800  0.90580  Biso   1.000  F
  F12      1.0000 0.78100  0.26200  0.09420  Biso   1.000  F
