data_image0
_cell_length_a       6.409
_cell_length_b       7.792
_cell_length_c       14.448
_cell_angle_alpha    100.724
_cell_angle_beta     94.544
_cell_angle_gamma    91.601

_symmetry_space_group_name_H-M    "P 1"
_symmetry_int_tables_number       1

loop_
  _symmetry_equiv_pos_as_xyz
  'x, y, z'

loop_
  _atom_site_label
  _atom_site_occupancy
  _atom_site_fract_x
  _atom_site_fract_y
  _atom_site_fract_z
  _atom_site_thermal_displace_type
  _atom_site_B_iso_or_equiv
  _atom_site_type_symbol
  Cu1      1.0000 0.50000  0.00000  0.50000  Biso   1.000  Cu
  Cu2      1.0000 0.00000  0.00000  0.50000  Biso   1.000  Cu
  F1       1.0000 0.28080  0.15670  0.91520  Biso   1.000  F
  F2       1.0000 0.71920  0.84330  0.08480  Biso   1.000  F
  F3       1.0000 0.24730  0.41950  0.97430  Biso   1.000  F
  F4       1.0000 0.75270  0.58050  0.02570  Biso   1.000  F
  F5       1.0000 0.98310  0.25280  0.93240  Biso   1.000  F
  F6       1.0000 0.01690  0.74720  0.06760  Biso   1.000  F
  O1       1.0000 0.40710  0.09010  0.38700  Biso   1.000  O
  O2       1.0000 0.59290  0.90990  0.61300  Biso   1.000  O
  O3       1.0000 0.05650  0.08940  0.38630  Biso   1.000  O
  O4       1.0000 0.94350  0.91060  0.61370  Biso   1.000  O
  O5       1.0000 0.26720  0.22830  0.58770  Biso   1.000  O
  O6       1.0000 0.73280  0.77170  0.41230  Biso   1.000  O
  H1       1.0000 0.26512  0.31308  0.56150  Biso   1.000  H
  H2       1.0000 0.73488  0.68692  0.43850  Biso   1.000  H
  N1       1.0000 0.24300  0.84760  0.48420  Biso   1.000  N
  N2       1.0000 0.75700  0.15240  0.51580  Biso   1.000  N
  N3       1.0000 0.24210  0.70410  0.50430  Biso   1.000  N
  N4       1.0000 0.75790  0.29590  0.49570  Biso   1.000  N
  N5       1.0000 0.24570  0.56690  0.52190  Biso   1.000  N
  N6       1.0000 0.75430  0.43310  0.47810  Biso   1.000  N
  C1       1.0000 0.23260  0.28340  0.68540  Biso   1.000  C
  C2       1.0000 0.76740  0.71660  0.31460  Biso   1.000  C
  H3       1.0000 0.23531  0.18247  0.71579  Biso   1.000  H
  H4       1.0000 0.76469  0.81753  0.28421  Biso   1.000  H
  H5       1.0000 0.09435  0.33039  0.68953  Biso   1.000  H
  H6       1.0000 0.90565  0.66961  0.31047  Biso   1.000  H
  C3       1.0000 0.39170  0.41890  0.73760  Biso   1.000  C
  C4       1.0000 0.60830  0.58110  0.26240  Biso   1.000  C
  H7       1.0000 0.34493  0.46506  0.79921  Biso   1.000  H
  H8       1.0000 0.65507  0.53494  0.20079  Biso   1.000  H
  H9       1.0000 0.39848  0.51456  0.70337  Biso   1.000  H
  H10      1.0000 0.60152  0.48544  0.29663  Biso   1.000  H
  C5       1.0000 0.60780  0.35340  0.75110  Biso   1.000  C
  C6       1.0000 0.39220  0.64660  0.24890  Biso   1.000  C
  H11      1.0000 0.70284  0.44932  0.77986  Biso   1.000  H
  H12      1.0000 0.29716  0.55068  0.22014  Biso   1.000  H
  H13      1.0000 0.65255  0.30083  0.69081  Biso   1.000  H
  H14      1.0000 0.34745  0.69917  0.30919  Biso   1.000  H
  H15      1.0000 0.60629  0.26807  0.79117  Biso   1.000  H
  H16      1.0000 0.39371  0.73193  0.20883  Biso   1.000  H
  C7       1.0000 0.22710  0.10590  0.35040  Biso   1.000  C
  C8       1.0000 0.77290  0.89410  0.64960  Biso   1.000  C
  C9       1.0000 0.21270  0.14770  0.25210  Biso   1.000  C
  C10      1.0000 0.78730  0.85230  0.74790  Biso   1.000  C
  C11      1.0000 0.38390  0.12900  0.19930  Biso   1.000  C
  C12      1.0000 0.61610  0.87100  0.80070  Biso   1.000  C
  H17      1.0000 0.50972  0.09425  0.22518  Biso   1.000  H
  H18      1.0000 0.49028  0.90575  0.77482  Biso   1.000  H
  C13      1.0000 0.36930  0.16150  0.10890  Biso   1.000  C
  C14      1.0000 0.63070  0.83850  0.89110  Biso   1.000  C
  H19      1.0000 0.48363  0.14409  0.07289  Biso   1.000  H
  H20      1.0000 0.51637  0.85591  0.92711  Biso   1.000  H
  C15      1.0000 0.18670  0.21970  0.07110  Biso   1.000  C
  C16      1.0000 0.81330  0.78030  0.92890  Biso   1.000  C
  C17      1.0000 0.01480  0.24170  0.12330  Biso   1.000  C
  C18      1.0000 0.98520  0.75830  0.87670  Biso   1.000  C
  H21      1.0000 0.89108  0.28023  0.09758  Biso   1.000  H
  H22      1.0000 0.10892  0.71977  0.90242  Biso   1.000  H
  C19      1.0000 0.02670  0.20630  0.21400  Biso   1.000  C
  C20      1.0000 0.97330  0.79370  0.78600  Biso   1.000  C
  H23      1.0000 0.91126  0.22140  0.24935  Biso   1.000  H
  H24      1.0000 0.08874  0.77860  0.75065  Biso   1.000  H
  C21      1.0000 0.17670  0.26100  0.97420  Biso   1.000  C
  C22      1.0000 0.82330  0.73900  0.02580  Biso   1.000  C
