data_image0
_cell_length_a       9.308
_cell_length_b       9.526
_cell_length_c       9.956
_cell_angle_alpha    75.43
_cell_angle_beta     65.8
_cell_angle_gamma    83.32

_symmetry_space_group_name_H-M    "P 1"
_symmetry_int_tables_number       1

loop_
  _symmetry_equiv_pos_as_xyz
  'x, y, z'

loop_
  _atom_site_label
  _atom_site_occupancy
  _atom_site_fract_x
  _atom_site_fract_y
  _atom_site_fract_z
  _atom_site_thermal_displace_type
  _atom_site_B_iso_or_equiv
  _atom_site_type_symbol
  Cu1      1.0000 0.83766  0.19824  0.56157  Biso   1.000  Cu
  Cu2      1.0000 0.16234  0.80176  0.43843  Biso   1.000  Cu
  N1       1.0000 0.72870  0.15640  0.43760  Biso   1.000  N
  N2       1.0000 0.27130  0.84360  0.56240  Biso   1.000  N
  C1       1.0000 0.76640  0.03780  0.38110  Biso   1.000  C
  C2       1.0000 0.23360  0.96220  0.61890  Biso   1.000  C
  H1       1.0000 0.85270  0.97790  0.39290  Biso   1.000  H
  H2       1.0000 0.14730  0.02210  0.60710  Biso   1.000  H
  C3       1.0000 0.68630  0.99820  0.30680  Biso   1.000  C
  C4       1.0000 0.31370  0.00180  0.69320  Biso   1.000  C
  H3       1.0000 0.71610  0.91150  0.26880  Biso   1.000  H
  H4       1.0000 0.28390  0.08850  0.73120  Biso   1.000  H
  C5       1.0000 0.56420  0.08390  0.28790  Biso   1.000  C
  C6       1.0000 0.43580  0.91610  0.71210  Biso   1.000  C
  H5       1.0000 0.50610  0.05720  0.23790  Biso   1.000  H
  H6       1.0000 0.49390  0.94280  0.76210  Biso   1.000  H
  C7       1.0000 0.52700  0.20960  0.34190  Biso   1.000  C
  C8       1.0000 0.47300  0.79040  0.65810  Biso   1.000  C
  H7       1.0000 0.44400  0.27340  0.32810  Biso   1.000  H
  H8       1.0000 0.55600  0.72660  0.67190  Biso   1.000  H
  C9       1.0000 0.61040  0.24160  0.41620  Biso   1.000  C
  C10      1.0000 0.38960  0.75840  0.58380  Biso   1.000  C
  H9       1.0000 0.58400  0.32800  0.45490  Biso   1.000  H
  H10      1.0000 0.41600  0.67200  0.54510  Biso   1.000  H
  N3       1.0000 0.94290  0.25390  0.68470  Biso   1.000  N
  N4       1.0000 0.05710  0.74610  0.31530  Biso   1.000  N
  C11      1.0000 0.88990  0.19840  0.83340  Biso   1.000  C
  C12      1.0000 0.11010  0.80160  0.16660  Biso   1.000  C
  H11      1.0000 0.80580  0.13010  0.87890  Biso   1.000  H
  H12      1.0000 0.19420  0.86990  0.12110  Biso   1.000  H
  C13      1.0000 0.95250  0.23540  0.92420  Biso   1.000  C
  C14      1.0000 0.04750  0.76460  0.07580  Biso   1.000  C
  H13      1.0000 0.91290  0.19280  0.03070  Biso   1.000  H
  H14      1.0000 0.08710  0.80720  0.96930  Biso   1.000  H
  C15      1.0000 0.07240  0.33420  0.85980  Biso   1.000  C
  C16      1.0000 0.92760  0.66580  0.14020  Biso   1.000  C
  H15      1.0000 0.11560  0.36410  0.92060  Biso   1.000  H
  H16      1.0000 0.88440  0.63590  0.07940  Biso   1.000  H
  C17      1.0000 0.12920  0.39020  0.70610  Biso   1.000  C
  C18      1.0000 0.87080  0.60980  0.29390  Biso   1.000  C
  H17      1.0000 0.21370  0.45820  0.65810  Biso   1.000  H
  H18      1.0000 0.78630  0.54180  0.34190  Biso   1.000  H
  C19      1.0000 0.06230  0.34790  0.62170  Biso   1.000  C
  C20      1.0000 0.93770  0.65210  0.37830  Biso   1.000  C
  H19      1.0000 0.10290  0.38650  0.51450  Biso   1.000  H
  H20      1.0000 0.89710  0.61350  0.48550  Biso   1.000  H
  S1       1.0000 0.36830  0.16899  0.01641  Biso   1.000  S
  S2       1.0000 0.63170  0.83101  0.98359  Biso   1.000  S
  O1       1.0000 0.63320  0.20330  0.72780  Biso   1.000  O
  O2       1.0000 0.36680  0.79670  0.27220  Biso   1.000  O
  O3       1.0000 0.62820  0.44540  0.65440  Biso   1.000  O
  O4       1.0000 0.37180  0.55460  0.34560  Biso   1.000  O
  C21      1.0000 0.57820  0.33030  0.74530  Biso   1.000  C
  C22      1.0000 0.42180  0.66970  0.25470  Biso   1.000  C
  C23      1.0000 0.44360  0.33060  0.89350  Biso   1.000  C
  C24      1.0000 0.55640  0.66940  0.10650  Biso   1.000  C
  C25      1.0000 0.37150  0.44640  0.95360  Biso   1.000  C
  C26      1.0000 0.62850  0.55360  0.04640  Biso   1.000  C
  H21      1.0000 0.39700  0.54540  0.90100  Biso   1.000  H
  H22      1.0000 0.60300  0.45460  0.09900  Biso   1.000  H
  C27      1.0000 0.25490  0.40440  0.10190  Biso   1.000  C
  C28      1.0000 0.74510  0.59560  0.89810  Biso   1.000  C
  H23      1.0000 0.19420  0.47190  0.16190  Biso   1.000  H
  H24      1.0000 0.80580  0.52810  0.83810  Biso   1.000  H
  C29      1.0000 0.23830  0.25830  0.15020  Biso   1.000  C
  C30      1.0000 0.76170  0.74170  0.84980  Biso   1.000  C
  C31      1.0000 0.12630  0.17400  0.29740  Biso   1.000  C
  C32      1.0000 0.87370  0.82600  0.70260  Biso   1.000  C
  O5       1.0000 0.13630  0.04040  0.32560  Biso   1.000  O
  O6       1.0000 0.86370  0.95960  0.67440  Biso   1.000  O
  O7       1.0000 0.02740  0.25160  0.38100  Biso   1.000  O
  O8       1.0000 0.97260  0.74840  0.61900  Biso   1.000  O
