data_image0
_cell_length_a       10.9957
_cell_length_b       13.1434
_cell_length_c       15.1707
_cell_angle_alpha    72.061
_cell_angle_beta     82.134
_cell_angle_gamma    66.169

_symmetry_space_group_name_H-M    "P 1"
_symmetry_int_tables_number       1

loop_
  _symmetry_equiv_pos_as_xyz
  'x, y, z'

loop_
  _atom_site_label
  _atom_site_occupancy
  _atom_site_fract_x
  _atom_site_fract_y
  _atom_site_fract_z
  _atom_site_thermal_displace_type
  _atom_site_B_iso_or_equiv
  _atom_site_type_symbol
  Cu1      1.0000 0.60176  0.40075  0.87794  Biso   1.000  Cu
  Cu2      1.0000 0.39824  0.59925  0.12206  Biso   1.000  Cu
  N1       1.0000 0.56360  0.43010  0.74040  Biso   1.000  N
  N2       1.0000 0.43640  0.56990  0.25960  Biso   1.000  N
  O1       1.0000 0.68470  0.39630  0.98710  Biso   1.000  O
  O2       1.0000 0.31530  0.60370  0.01290  Biso   1.000  O
  O3       1.0000 0.47230  0.30220  0.93930  Biso   1.000  O
  O4       1.0000 0.52770  0.69780  0.06070  Biso   1.000  O
  O5       1.0000 0.52500  0.44450  0.12390  Biso   1.000  O
  O6       1.0000 0.47500  0.55550  0.87610  Biso   1.000  O
  O7       1.0000 0.75890  0.26110  0.86720  Biso   1.000  O
  O8       1.0000 0.24110  0.73890  0.13280  Biso   1.000  O
  C1       1.0000 0.44080  0.49340  0.70570  Biso   1.000  C
  C2       1.0000 0.55920  0.50660  0.29430  Biso   1.000  C
  C3       1.0000 0.66180  0.39200  0.67990  Biso   1.000  C
  C4       1.0000 0.33820  0.60800  0.32010  Biso   1.000  C
  H1       1.0000 0.50310  0.23900  0.92450  Biso   1.000  H
  H2       1.0000 0.49690  0.76100  0.07550  Biso   1.000  H
  H3       1.0000 0.39430  0.34110  0.91770  Biso   1.000  H
  H4       1.0000 0.60570  0.65890  0.08230  Biso   1.000  H
  P1       1.0000 0.66378  0.38662  0.08959  Biso   1.000  P
  P2       1.0000 0.33622  0.61338  0.91041  Biso   1.000  P
  P3       1.0000 0.78443  0.13455  0.90501  Biso   1.000  P
  P4       1.0000 0.21557  0.86545  0.09499  Biso   1.000  P
  H5       1.0000 0.36990  0.52070  0.74680  Biso   1.000  H
  H6       1.0000 0.63010  0.47930  0.25320  Biso   1.000  H
  C5       1.0000 0.41330  0.52020  0.61450  Biso   1.000  C
  C6       1.0000 0.58670  0.47980  0.38550  Biso   1.000  C
  C7       1.0000 0.63920  0.41840  0.58670  Biso   1.000  C
  C8       1.0000 0.36080  0.58160  0.41330  Biso   1.000  C
  H7       1.0000 0.74930  0.34540  0.70240  Biso   1.000  H
  H8       1.0000 0.25070  0.65460  0.29760  Biso   1.000  H
  C9       1.0000 0.72320  0.23740  0.15370  Biso   1.000  C
  C10      1.0000 0.27680  0.76260  0.84630  Biso   1.000  C
  O9       1.0000 0.76090  0.43100  0.11840  Biso   1.000  O
  O10      1.0000 0.23910  0.56900  0.88160  Biso   1.000  O
  C11      1.0000 0.91220  0.05580  0.83600  Biso   1.000  C
  C12      1.0000 0.08780  0.94420  0.16400  Biso   1.000  C
  O11      1.0000 0.66290  0.10630  0.90980  Biso   1.000  O
  O12      1.0000 0.33710  0.89370  0.09020  Biso   1.000  O
  O13      1.0000 0.84830  0.09090  0.00220  Biso   1.000  O
  O14      1.0000 0.15170  0.90910  0.99780  Biso   1.000  O
  H9       1.0000 0.32430  0.56390  0.59410  Biso   1.000  H
  H10      1.0000 0.67570  0.43610  0.40590  Biso   1.000  H
  C13      1.0000 0.51370  0.48460  0.55060  Biso   1.000  C
  C14      1.0000 0.48630  0.51540  0.44940  Biso   1.000  C
  H11      1.0000 0.71130  0.39050  0.54670  Biso   1.000  H
  H12      1.0000 0.28870  0.60950  0.45330  Biso   1.000  H
  C15      1.0000 0.75250  0.21380  0.25490  Biso   1.000  C
  C16      1.0000 0.24750  0.78620  0.74510  Biso   1.000  C
  H13      1.0000 0.80560  0.19490  0.12330  Biso   1.000  H
  H14      1.0000 0.19440  0.80510  0.87670  Biso   1.000  H
  H15      1.0000 0.65620  0.20590  0.15110  Biso   1.000  H
  H16      1.0000 0.34380  0.79410  0.84890  Biso   1.000  H
  H17      1.0000 0.77630  0.48320  0.07460  Biso   1.000  H
  H18      1.0000 0.22370  0.51680  0.92540  Biso   1.000  H
  H19      1.0000 0.99370  0.06860  0.84000  Biso   1.000  H
  H20      1.0000 0.00630  0.93140  0.16000  Biso   1.000  H
  C17      1.0000 0.88330  0.08450  0.73520  Biso   1.000  C
  C18      1.0000 0.11670  0.91550  0.26480  Biso   1.000  C
  H21      1.0000 0.93200  0.97220  0.86420  Biso   1.000  H
  H22      1.0000 0.06800  0.02780  0.13580  Biso   1.000  H
  H23      1.0000 0.84420  0.02570  0.03110  Biso   1.000  H
  H24      1.0000 0.15580  0.97430  0.96890  Biso   1.000  H
  C19      1.0000 0.65470  0.21250  0.32320  Biso   1.000  C
  C20      1.0000 0.34530  0.78750  0.67680  Biso   1.000  C
  C21      1.0000 0.87730  0.19110  0.28270  Biso   1.000  C
  C22      1.0000 0.12270  0.80890  0.71730  Biso   1.000  C
  C23      1.0000 0.97130  0.11450  0.66710  Biso   1.000  C
  C24      1.0000 0.02870  0.88550  0.33290  Biso   1.000  C
  C25      1.0000 0.77330  0.07960  0.70570  Biso   1.000  C
  C26      1.0000 0.22670  0.92040  0.29430  Biso   1.000  C
  C27      1.0000 0.68060  0.18910  0.41380  Biso   1.000  C
  C28      1.0000 0.31940  0.81090  0.58620  Biso   1.000  C
  H25      1.0000 0.56760  0.22840  0.30600  Biso   1.000  H
  H26      1.0000 0.43240  0.77160  0.69400  Biso   1.000  H
  C29      1.0000 0.90520  0.16680  0.37600  Biso   1.000  C
  C30      1.0000 0.09480  0.83320  0.62400  Biso   1.000  C
  H27      1.0000 0.94610  0.19210  0.23750  Biso   1.000  H
  H28      1.0000 0.05390  0.80790  0.76250  Biso   1.000  H
  H29      1.0000 0.04940  0.11700  0.68470  Biso   1.000  H
  H30      1.0000 0.95060  0.88300  0.31530  Biso   1.000  H
  C31      1.0000 0.94590  0.14090  0.57360  Biso   1.000  C
  C32      1.0000 0.05410  0.85910  0.42640  Biso   1.000  C
  C33      1.0000 0.74890  0.10520  0.61390  Biso   1.000  C
  C34      1.0000 0.25110  0.89480  0.38610  Biso   1.000  C
  H31      1.0000 0.71250  0.05770  0.75050  Biso   1.000  H
  H32      1.0000 0.28750  0.94230  0.24950  Biso   1.000  H
  C35      1.0000 0.80560  0.16540  0.44360  Biso   1.000  C
  C36      1.0000 0.19440  0.83460  0.55640  Biso   1.000  C
  H33      1.0000 0.61090  0.18880  0.45830  Biso   1.000  H
  H34      1.0000 0.38910  0.81120  0.54170  Biso   1.000  H
  H35      1.0000 0.99220  0.15110  0.39340  Biso   1.000  H
  H36      1.0000 0.00780  0.84890  0.60660  Biso   1.000  H
  C37      1.0000 0.83570  0.13690  0.54430  Biso   1.000  C
  C38      1.0000 0.16430  0.86310  0.45570  Biso   1.000  C
  H37      1.0000 0.00690  0.16230  0.52860  Biso   1.000  H
  H38      1.0000 0.99310  0.83770  0.47140  Biso   1.000  H
  H39      1.0000 0.67130  0.10140  0.59660  Biso   1.000  H
  H40      1.0000 0.32870  0.89860  0.40340  Biso   1.000  H
  C39      1.0000 0.38050  0.11500  0.73240  Biso   1.000  C
  C40      1.0000 0.61950  0.88500  0.26760  Biso   1.000  C
  C41      1.0000 0.33320  0.05790  0.69140  Biso   1.000  C
  C42      1.0000 0.66680  0.94210  0.30860  Biso   1.000  C
  H41      1.0000 0.31630  0.99220  0.72900  Biso   1.000  H
  H42      1.0000 0.68370  0.00780  0.27100  Biso   1.000  H
  C43      1.0000 0.30980  0.09360  0.59710  Biso   1.000  C
  C44      1.0000 0.69020  0.90640  0.40290  Biso   1.000  C
  H43      1.0000 0.27480  0.05350  0.57180  Biso   1.000  H
  H44      1.0000 0.72520  0.94650  0.42820  Biso   1.000  H
  C45      1.0000 0.33670  0.18690  0.53930  Biso   1.000  C
  C46      1.0000 0.66330  0.81310  0.46070  Biso   1.000  C
  C47      1.0000 0.37900  0.24730  0.58150  Biso   1.000  C
  C48      1.0000 0.62100  0.75270  0.41850  Biso   1.000  C
  H45      1.0000 0.39260  0.31470  0.54420  Biso   1.000  H
  H46      1.0000 0.60740  0.68530  0.45580  Biso   1.000  H
  C49      1.0000 0.40160  0.21290  0.67450  Biso   1.000  C
  C50      1.0000 0.59840  0.78710  0.32550  Biso   1.000  C
  H47      1.0000 0.43190  0.25570  0.70020  Biso   1.000  H
  H48      1.0000 0.56810  0.74430  0.29980  Biso   1.000  H
  C51      1.0000 0.32320  0.21930  0.43750  Biso   1.000  C
  C52      1.0000 0.67680  0.78070  0.56250  Biso   1.000  C
  C53      1.0000 0.34070  0.13760  0.39200  Biso   1.000  C
  C54      1.0000 0.65930  0.86240  0.60800  Biso   1.000  C
  H49      1.0000 0.35910  0.05980  0.42770  Biso   1.000  H
  H50      1.0000 0.64090  0.94020  0.57230  Biso   1.000  H
  C55      1.0000 0.33260  0.16460  0.29600  Biso   1.000  C
  C56      1.0000 0.66740  0.83540  0.70400  Biso   1.000  C
  H51      1.0000 0.34530  0.10520  0.26830  Biso   1.000  H
  H52      1.0000 0.65470  0.89480  0.73170  Biso   1.000  H
  C57      1.0000 0.30710  0.27380  0.24180  Biso   1.000  C
  C58      1.0000 0.69290  0.72620  0.75820  Biso   1.000  C
  C59      1.0000 0.28790  0.35840  0.28460  Biso   1.000  C
  C60      1.0000 0.71210  0.64160  0.71540  Biso   1.000  C
  H53      1.0000 0.27000  0.43570  0.24770  Biso   1.000  H
  H54      1.0000 0.73000  0.56430  0.75230  Biso   1.000  H
  C61      1.0000 0.29420  0.33260  0.38080  Biso   1.000  C
  C62      1.0000 0.70580  0.66740  0.61920  Biso   1.000  C
  H55      1.0000 0.27860  0.39290  0.40820  Biso   1.000  H
  H56      1.0000 0.72140  0.60710  0.59180  Biso   1.000  H
  C63      1.0000 0.41100  0.07480  0.83380  Biso   1.000  C
  C64      1.0000 0.58900  0.92520  0.16620  Biso   1.000  C
  H57      1.0000 0.48930  0.09010  0.84180  Biso   1.000  H
  H58      1.0000 0.51070  0.90990  0.15820  Biso   1.000  H
  H59      1.0000 0.43530  0.99000  0.85590  Biso   1.000  H
  H60      1.0000 0.56470  0.01000  0.14410  Biso   1.000  H
  C65      1.0000 0.30480  0.30380  0.13760  Biso   1.000  C
  C66      1.0000 0.69520  0.69620  0.86240  Biso   1.000  C
  H61      1.0000 0.35670  0.23250  0.11840  Biso   1.000  H
  H62      1.0000 0.64330  0.76750  0.88160  Biso   1.000  H
  H63      1.0000 0.34970  0.35860  0.11100  Biso   1.000  H
  H64      1.0000 0.65030  0.64140  0.88900  Biso   1.000  H
  C67      1.0000 0.04990  0.35810  0.70350  Biso   1.000  C
  C68      1.0000 0.95010  0.64190  0.29650  Biso   1.000  C
  H65      1.0000 0.05590  0.28510  0.74430  Biso   1.000  H
  H66      1.0000 0.94410  0.71490  0.25570  Biso   1.000  H
  C69      1.0000 0.02440  0.38090  0.61280  Biso   1.000  C
  C70      1.0000 0.97560  0.61910  0.38720  Biso   1.000  C
  H67      1.0000 0.01300  0.32400  0.59220  Biso   1.000  H
  H68      1.0000 0.98700  0.67600  0.40780  Biso   1.000  H
  C71      1.0000 0.01470  0.48570  0.54980  Biso   1.000  C
  C72      1.0000 0.98530  0.51430  0.45020  Biso   1.000  C
  C73      1.0000 0.03650  0.56200  0.58610  Biso   1.000  C
  C74      1.0000 0.96350  0.43800  0.41390  Biso   1.000  C
  H69      1.0000 0.03550  0.63400  0.54620  Biso   1.000  H
  H70      1.0000 0.96450  0.36600  0.45380  Biso   1.000  H
  C75      1.0000 0.05930  0.53450  0.67890  Biso   1.000  C
  C76      1.0000 0.94070  0.46550  0.32110  Biso   1.000  C
  H71      1.0000 0.07020  0.59000  0.70180  Biso   1.000  H
  H72      1.0000 0.92980  0.41000  0.29820  Biso   1.000  H
  Cu3      1.0000 0.08950  0.40466  0.87380  Biso   1.000  Cu
  Cu4      1.0000 0.91050  0.59534  0.12620  Biso   1.000  Cu
  N3       1.0000 0.06700  0.43340  0.73830  Biso   1.000  N
  N4       1.0000 0.93300  0.56660  0.26170  Biso   1.000  N
  O15      1.0000 0.24790  0.27110  0.87140  Biso   1.000  O
  O16      1.0000 0.75210  0.72890  0.12860  Biso   1.000  O
  O17      1.0000 0.33380  0.09750  0.00490  Biso   1.000  O
  O18      1.0000 0.66620  0.90250  0.99510  Biso   1.000  O
  H73      1.0000 0.33360  0.03040  0.03120  Biso   1.000  H
  H74      1.0000 0.66640  0.96960  0.96880  Biso   1.000  H
  O19      1.0000 0.16000  0.11180  0.90270  Biso   1.000  O
  O20      1.0000 0.84000  0.88820  0.09730  Biso   1.000  O
  O21      1.0000 0.09120  0.26710  0.11230  Biso   1.000  O
  O22      1.0000 0.90880  0.73290  0.88770  Biso   1.000  O
  H75      1.0000 0.08490  0.27110  0.05590  Biso   1.000  H
  H76      1.0000 0.91510  0.72890  0.94410  Biso   1.000  H
  O23      1.0000 0.15390  0.41360  0.98570  Biso   1.000  O
  O24      1.0000 0.84610  0.58640  0.01430  Biso   1.000  O
  O25      1.0000 0.05940  0.45380  0.13820  Biso   1.000  O
  O26      1.0000 0.94060  0.54620  0.86180  Biso   1.000  O
  O27      1.0000 0.96910  0.29460  0.95670  Biso   1.000  O
  O28      1.0000 0.03090  0.70540  0.04330  Biso   1.000  O
  H77      1.0000 0.00710  0.22780  0.94810  Biso   1.000  H
  H78      1.0000 0.99290  0.77220  0.05190  Biso   1.000  H
  H79      1.0000 0.89170  0.32470  0.93400  Biso   1.000  H
  H80      1.0000 0.10830  0.67530  0.06600  Biso   1.000  H
  P5       1.0000 0.27702  0.14232  0.90475  Biso   1.000  P
  P6       1.0000 0.72298  0.85768  0.09525  Biso   1.000  P
  P7       1.0000 0.14357  0.36624  0.08993  Biso   1.000  P
  P8       1.0000 0.85643  0.63376  0.91007  Biso   1.000  P
