data_image0
_cell_length_a       8.643
_cell_length_b       18.98
_cell_length_c       17.09
_cell_angle_alpha    90
_cell_angle_beta     103.49
_cell_angle_gamma    90

_symmetry_space_group_name_H-M    "P 1"
_symmetry_int_tables_number       1

loop_
  _symmetry_equiv_pos_as_xyz
  'x, y, z'

loop_
  _atom_site_label
  _atom_site_occupancy
  _atom_site_fract_x
  _atom_site_fract_y
  _atom_site_fract_z
  _atom_site_thermal_displace_type
  _atom_site_B_iso_or_equiv
  _atom_site_type_symbol
  Cu1      1.0000 0.09787  0.17111  0.79672  Biso   1.000  Cu
  Cu2      1.0000 0.59787  0.32889  0.29672  Biso   1.000  Cu
  Cu3      1.0000 0.90213  0.82889  0.20328  Biso   1.000  Cu
  Cu4      1.0000 0.40213  0.67111  0.70328  Biso   1.000  Cu
  N1       1.0000 0.19500  0.22000  0.90400  Biso   1.000  N
  N2       1.0000 0.69500  0.28000  0.40400  Biso   1.000  N
  N3       1.0000 0.80500  0.78000  0.09600  Biso   1.000  N
  N4       1.0000 0.30500  0.72000  0.59600  Biso   1.000  N
  C1       1.0000 0.06580  0.24850  0.93950  Biso   1.000  C
  C2       1.0000 0.56580  0.25150  0.43950  Biso   1.000  C
  C3       1.0000 0.93420  0.75150  0.06050  Biso   1.000  C
  C4       1.0000 0.43420  0.74850  0.56050  Biso   1.000  C
  H1       1.0000 0.00970  0.28460  0.90370  Biso   1.000  H
  H2       1.0000 0.50970  0.21540  0.40370  Biso   1.000  H
  H3       1.0000 0.99030  0.71540  0.09630  Biso   1.000  H
  H4       1.0000 0.49030  0.78460  0.59630  Biso   1.000  H
  H5       1.0000 0.11460  0.27110  0.99010  Biso   1.000  H
  H6       1.0000 0.61460  0.22890  0.49010  Biso   1.000  H
  H7       1.0000 0.88540  0.72890  0.00990  Biso   1.000  H
  H8       1.0000 0.38540  0.77110  0.50990  Biso   1.000  H
  C5       1.0000 0.94550  0.19600  0.95470  Biso   1.000  C
  C6       1.0000 0.44550  0.30400  0.45470  Biso   1.000  C
  C7       1.0000 0.05450  0.80400  0.04530  Biso   1.000  C
  C8       1.0000 0.55450  0.69600  0.54530  Biso   1.000  C
  H9       1.0000 0.88690  0.21730  0.99050  Biso   1.000  H
  H10      1.0000 0.38690  0.28270  0.49050  Biso   1.000  H
  H11      1.0000 0.11310  0.78270  0.00950  Biso   1.000  H
  H12      1.0000 0.61310  0.71730  0.50950  Biso   1.000  H
  H13      1.0000 0.00220  0.15570  0.98240  Biso   1.000  H
  H14      1.0000 0.50220  0.34430  0.48240  Biso   1.000  H
  H15      1.0000 0.99780  0.84430  0.01760  Biso   1.000  H
  H16      1.0000 0.49780  0.65570  0.51760  Biso   1.000  H
  C9       1.0000 0.82710  0.16990  0.88030  Biso   1.000  C
  C10      1.0000 0.32710  0.33010  0.38030  Biso   1.000  C
  C11      1.0000 0.17290  0.83010  0.11970  Biso   1.000  C
  C12      1.0000 0.67290  0.66990  0.61970  Biso   1.000  C
  H17      1.0000 0.74360  0.14420  0.89720  Biso   1.000  H
  H18      1.0000 0.24360  0.35580  0.39720  Biso   1.000  H
  H19      1.0000 0.25640  0.85580  0.10280  Biso   1.000  H
  H20      1.0000 0.75640  0.64420  0.60280  Biso   1.000  H
  H21      1.0000 0.77830  0.21040  0.84960  Biso   1.000  H
  H22      1.0000 0.27830  0.28960  0.34960  Biso   1.000  H
  H23      1.0000 0.22170  0.78960  0.15040  Biso   1.000  H
  H24      1.0000 0.72170  0.71040  0.65040  Biso   1.000  H
  N5       1.0000 0.89420  0.12410  0.82680  Biso   1.000  N
  N6       1.0000 0.39420  0.37590  0.32680  Biso   1.000  N
  N7       1.0000 0.10580  0.87590  0.17320  Biso   1.000  N
  N8       1.0000 0.60580  0.62410  0.67320  Biso   1.000  N
  C13      1.0000 0.77760  0.11340  0.74750  Biso   1.000  C
  C14      1.0000 0.27760  0.38660  0.24750  Biso   1.000  C
  C15      1.0000 0.22240  0.88660  0.25250  Biso   1.000  C
  C16      1.0000 0.72240  0.61340  0.75250  Biso   1.000  C
  H25      1.0000 0.70980  0.07350  0.75160  Biso   1.000  H
  H26      1.0000 0.20980  0.42650  0.25160  Biso   1.000  H
  H27      1.0000 0.29020  0.92650  0.24840  Biso   1.000  H
  H28      1.0000 0.79020  0.57350  0.74840  Biso   1.000  H
  H29      1.0000 0.71050  0.15480  0.73500  Biso   1.000  H
  H30      1.0000 0.21050  0.34520  0.23500  Biso   1.000  H
  H31      1.0000 0.28950  0.84520  0.26500  Biso   1.000  H
  H32      1.0000 0.78950  0.65480  0.76500  Biso   1.000  H
  C17      1.0000 0.85840  0.10070  0.68150  Biso   1.000  C
  C18      1.0000 0.35840  0.39930  0.18150  Biso   1.000  C
  C19      1.0000 0.14160  0.89930  0.31850  Biso   1.000  C
  C20      1.0000 0.64160  0.60070  0.81850  Biso   1.000  C
  N9       1.0000 0.01030  0.12290  0.69540  Biso   1.000  N
  N10      1.0000 0.51030  0.37710  0.19540  Biso   1.000  N
  N11      1.0000 0.98970  0.87710  0.30460  Biso   1.000  N
  N12      1.0000 0.48970  0.62290  0.80460  Biso   1.000  N
  C21      1.0000 0.09460  0.12260  0.63980  Biso   1.000  C
  C22      1.0000 0.59460  0.37740  0.13980  Biso   1.000  C
  C23      1.0000 0.90540  0.87740  0.36020  Biso   1.000  C
  C24      1.0000 0.40540  0.62260  0.86020  Biso   1.000  C
  C25      1.0000 0.25370  0.15100  0.66910  Biso   1.000  C
  C26      1.0000 0.75370  0.34900  0.16910  Biso   1.000  C
  C27      1.0000 0.74630  0.84900  0.33090  Biso   1.000  C
  C28      1.0000 0.24630  0.65100  0.83090  Biso   1.000  C
  H33      1.0000 0.29200  0.16880  0.62380  Biso   1.000  H
  H34      1.0000 0.79200  0.33120  0.12380  Biso   1.000  H
  H35      1.0000 0.70800  0.83120  0.37620  Biso   1.000  H
  H36      1.0000 0.20800  0.66880  0.87620  Biso   1.000  H
  H37      1.0000 0.32450  0.11350  0.69380  Biso   1.000  H
  H38      1.0000 0.82450  0.38650  0.19380  Biso   1.000  H
  H39      1.0000 0.67550  0.88650  0.30620  Biso   1.000  H
  H40      1.0000 0.17550  0.61350  0.80620  Biso   1.000  H
  N13      1.0000 0.25920  0.20860  0.72860  Biso   1.000  N
  N14      1.0000 0.75920  0.29140  0.22860  Biso   1.000  N
  N15      1.0000 0.74080  0.79140  0.27140  Biso   1.000  N
  N16      1.0000 0.24080  0.70860  0.77140  Biso   1.000  N
  C29      1.0000 0.42230  0.21750  0.78010  Biso   1.000  C
  C30      1.0000 0.92230  0.28250  0.28010  Biso   1.000  C
  C31      1.0000 0.57770  0.78250  0.21990  Biso   1.000  C
  C32      1.0000 0.07770  0.71750  0.71990  Biso   1.000  C
  H41      1.0000 0.49160  0.23440  0.74690  Biso   1.000  H
  H42      1.0000 0.99160  0.26560  0.24690  Biso   1.000  H
  H43      1.0000 0.50840  0.76560  0.25310  Biso   1.000  H
  H44      1.0000 0.00840  0.73440  0.75310  Biso   1.000  H
  H45      1.0000 0.46170  0.17180  0.80110  Biso   1.000  H
  H46      1.0000 0.96170  0.32820  0.30110  Biso   1.000  H
  H47      1.0000 0.53830  0.82820  0.19890  Biso   1.000  H
  H48      1.0000 0.03830  0.67180  0.69890  Biso   1.000  H
  C33      1.0000 0.43270  0.26790  0.85020  Biso   1.000  C
  C34      1.0000 0.93270  0.23210  0.35020  Biso   1.000  C
  C35      1.0000 0.56730  0.73210  0.14980  Biso   1.000  C
  C36      1.0000 0.06730  0.76790  0.64980  Biso   1.000  C
  H49      1.0000 0.46800  0.31300  0.83400  Biso   1.000  H
  H50      1.0000 0.96800  0.18700  0.33400  Biso   1.000  H
  H51      1.0000 0.53200  0.68700  0.16600  Biso   1.000  H
  H52      1.0000 0.03200  0.81300  0.66600  Biso   1.000  H
  H53      1.0000 0.51640  0.25080  0.89420  Biso   1.000  H
  H54      1.0000 0.01640  0.24920  0.39420  Biso   1.000  H
  H55      1.0000 0.48360  0.74920  0.10580  Biso   1.000  H
  H56      1.0000 0.98360  0.75080  0.60580  Biso   1.000  H
  C37      1.0000 0.28610  0.28200  0.88410  Biso   1.000  C
  C38      1.0000 0.78610  0.21800  0.38410  Biso   1.000  C
  C39      1.0000 0.71390  0.71800  0.11590  Biso   1.000  C
  C40      1.0000 0.21390  0.78200  0.61590  Biso   1.000  C
  H57      1.0000 0.32030  0.30980  0.93270  Biso   1.000  H
  H58      1.0000 0.82030  0.19020  0.43270  Biso   1.000  H
  H59      1.0000 0.67970  0.69020  0.06730  Biso   1.000  H
  H60      1.0000 0.17970  0.80980  0.56730  Biso   1.000  H
  H61      1.0000 0.21310  0.31090  0.84560  Biso   1.000  H
  H62      1.0000 0.71310  0.18910  0.34560  Biso   1.000  H
  H63      1.0000 0.78690  0.68910  0.15440  Biso   1.000  H
  H64      1.0000 0.28690  0.81090  0.65440  Biso   1.000  H
  C41      1.0000 0.78220  0.07540  0.60610  Biso   1.000  C
  C42      1.0000 0.28220  0.42460  0.10610  Biso   1.000  C
  C43      1.0000 0.21780  0.92460  0.39390  Biso   1.000  C
  C44      1.0000 0.71780  0.57540  0.89390  Biso   1.000  C
  H65      1.0000 0.67630  0.06120  0.59570  Biso   1.000  H
  H66      1.0000 0.17630  0.43880  0.09570  Biso   1.000  H
  H67      1.0000 0.32370  0.93880  0.40430  Biso   1.000  H
  H68      1.0000 0.82370  0.56120  0.90430  Biso   1.000  H
  C45      1.0000 0.86800  0.07150  0.54590  Biso   1.000  C
  C46      1.0000 0.36800  0.42850  0.04590  Biso   1.000  C
  C47      1.0000 0.13200  0.92850  0.45410  Biso   1.000  C
  C48      1.0000 0.63200  0.57150  0.95410  Biso   1.000  C
  H69      1.0000 0.82190  0.05250  0.49570  Biso   1.000  H
  H70      1.0000 0.32190  0.44750  0.99570  Biso   1.000  H
  H71      1.0000 0.17810  0.94750  0.50430  Biso   1.000  H
  H72      1.0000 0.67810  0.55250  0.00430  Biso   1.000  H
  C49      1.0000 0.02370  0.09680  0.56280  Biso   1.000  C
  C50      1.0000 0.52370  0.40320  0.06280  Biso   1.000  C
  C51      1.0000 0.97630  0.90320  0.43720  Biso   1.000  C
  C52      1.0000 0.47630  0.59680  0.93720  Biso   1.000  C
  H73      1.0000 0.08080  0.09660  0.52290  Biso   1.000  H
  H74      1.0000 0.58080  0.40340  0.02290  Biso   1.000  H
  H75      1.0000 0.91920  0.90340  0.47710  Biso   1.000  H
  H76      1.0000 0.41920  0.59660  0.97710  Biso   1.000  H
  C53      1.0000 0.30280  0.17240  0.96310  Biso   1.000  C
  C54      1.0000 0.80280  0.32760  0.46310  Biso   1.000  C
  C55      1.0000 0.69720  0.82760  0.03690  Biso   1.000  C
  C56      1.0000 0.19720  0.67240  0.53690  Biso   1.000  C
  H77      1.0000 0.39820  0.19860  0.98750  Biso   1.000  H
  H78      1.0000 0.89820  0.30140  0.48750  Biso   1.000  H
  H79      1.0000 0.60180  0.80140  0.01250  Biso   1.000  H
  H80      1.0000 0.10180  0.69860  0.51250  Biso   1.000  H
  H81      1.0000 0.24960  0.16090  0.00550  Biso   1.000  H
  H82      1.0000 0.74960  0.33910  0.50550  Biso   1.000  H
  H83      1.0000 0.75040  0.83910  0.99450  Biso   1.000  H
  H84      1.0000 0.25040  0.66090  0.49450  Biso   1.000  H
  C57      1.0000 0.35180  0.10550  0.93060  Biso   1.000  C
  C58      1.0000 0.85180  0.39450  0.43060  Biso   1.000  C
  C59      1.0000 0.64820  0.89450  0.06940  Biso   1.000  C
  C60      1.0000 0.14820  0.60550  0.56940  Biso   1.000  C
  O1       1.0000 0.44680  0.06760  0.97920  Biso   1.000  O
  O2       1.0000 0.94680  0.43240  0.47920  Biso   1.000  O
  O3       1.0000 0.55320  0.93240  0.02080  Biso   1.000  O
  O4       1.0000 0.05320  0.56760  0.52080  Biso   1.000  O
  O5       1.0000 0.29750  0.08960  0.85740  Biso   1.000  O
  O6       1.0000 0.79750  0.41040  0.35740  Biso   1.000  O
  O7       1.0000 0.70250  0.91040  0.14260  Biso   1.000  O
  O8       1.0000 0.20250  0.58960  0.64260  Biso   1.000  O
  C61      1.0000 0.95250  0.05520  0.86300  Biso   1.000  C
  C62      1.0000 0.45250  0.44480  0.36300  Biso   1.000  C
  C63      1.0000 0.04750  0.94480  0.13700  Biso   1.000  C
  C64      1.0000 0.54750  0.55520  0.63700  Biso   1.000  C
  H85      1.0000 0.03430  0.06490  0.91120  Biso   1.000  H
  H86      1.0000 0.53430  0.43510  0.41120  Biso   1.000  H
  H87      1.0000 0.96570  0.93510  0.08880  Biso   1.000  H
  H88      1.0000 0.46570  0.56490  0.58880  Biso   1.000  H
  H89      1.0000 0.00440  0.03170  0.82560  Biso   1.000  H
  H90      1.0000 0.50440  0.46830  0.32560  Biso   1.000  H
  H91      1.0000 0.99560  0.96830  0.17440  Biso   1.000  H
  H92      1.0000 0.49560  0.53170  0.67440  Biso   1.000  H
  C65      1.0000 0.83440  0.00090  0.88650  Biso   1.000  C
  C66      1.0000 0.33440  0.49910  0.38650  Biso   1.000  C
  C67      1.0000 0.16560  0.99910  0.11350  Biso   1.000  C
  C68      1.0000 0.66560  0.50090  0.61350  Biso   1.000  C
  O9       1.0000 0.89820  0.94320  0.91040  Biso   1.000  O
  O10      1.0000 0.39820  0.55680  0.41040  Biso   1.000  O
  O11      1.0000 0.10180  0.05680  0.08960  Biso   1.000  O
  O12      1.0000 0.60180  0.44320  0.58960  Biso   1.000  O
  O13      1.0000 0.69340  0.01950  0.88200  Biso   1.000  O
  O14      1.0000 0.19340  0.48050  0.38200  Biso   1.000  O
  O15      1.0000 0.30660  0.98050  0.11800  Biso   1.000  O
  O16      1.0000 0.80660  0.51950  0.61800  Biso   1.000  O
  C69      1.0000 0.19950  0.27570  0.68570  Biso   1.000  C
  C70      1.0000 0.69950  0.22430  0.18570  Biso   1.000  C
  C71      1.0000 0.80050  0.72430  0.31430  Biso   1.000  C
  C72      1.0000 0.30050  0.77570  0.81430  Biso   1.000  C
  H93      1.0000 0.19690  0.26970  0.62910  Biso   1.000  H
  H94      1.0000 0.69690  0.23030  0.12910  Biso   1.000  H
  H95      1.0000 0.80310  0.73030  0.37090  Biso   1.000  H
  H96      1.0000 0.30310  0.76970  0.87090  Biso   1.000  H
  H97      1.0000 0.27580  0.31270  0.70610  Biso   1.000  H
  H98      1.0000 0.77580  0.18730  0.20610  Biso   1.000  H
  H99      1.0000 0.72420  0.68730  0.29390  Biso   1.000  H
  H100     1.0000 0.22420  0.81270  0.79390  Biso   1.000  H
  C73      1.0000 0.03630  0.30050  0.69310  Biso   1.000  C
  C74      1.0000 0.53630  0.19950  0.19310  Biso   1.000  C
  C75      1.0000 0.96370  0.69950  0.30690  Biso   1.000  C
  C76      1.0000 0.46370  0.80050  0.80690  Biso   1.000  C
  O17      1.0000 0.98770  0.35510  0.65370  Biso   1.000  O
  O18      1.0000 0.48770  0.14490  0.15370  Biso   1.000  O
  O19      1.0000 0.01230  0.64490  0.34630  Biso   1.000  O
  O20      1.0000 0.51230  0.85510  0.84630  Biso   1.000  O
  O21      1.0000 0.96440  0.26830  0.73820  Biso   1.000  O
  O22      1.0000 0.46440  0.23170  0.23820  Biso   1.000  O
  O23      1.0000 0.03560  0.73170  0.26180  Biso   1.000  O
  O24      1.0000 0.53560  0.76830  0.76180  Biso   1.000  O
  Ca1      1.0000 0.44316  0.96717  0.88158  Biso   1.000  Ca
  Ca2      1.0000 0.94316  0.53283  0.38158  Biso   1.000  Ca
  Ca3      1.0000 0.55684  0.03283  0.11842  Biso   1.000  Ca
  Ca4      1.0000 0.05684  0.46717  0.61842  Biso   1.000  Ca
  N17      1.0000 0.83300  0.38600  0.96460  Biso   1.000  N
  N18      1.0000 0.33300  0.11400  0.46460  Biso   1.000  N
  N19      1.0000 0.16700  0.61400  0.03540  Biso   1.000  N
  N20      1.0000 0.66700  0.88600  0.53540  Biso   1.000  N
  C77      1.0000 0.79260  0.39400  0.89630  Biso   1.000  C
  C78      1.0000 0.29260  0.10600  0.39630  Biso   1.000  C
  C79      1.0000 0.20740  0.60600  0.10370  Biso   1.000  C
  C80      1.0000 0.70740  0.89400  0.60370  Biso   1.000  C
  C81      1.0000 0.75630  0.40810  0.81140  Biso   1.000  C
  C82      1.0000 0.25630  0.09190  0.31140  Biso   1.000  C
  C83      1.0000 0.24370  0.59190  0.18860  Biso   1.000  C
  C84      1.0000 0.74370  0.90810  0.68860  Biso   1.000  C
  H101     1.0000 0.83520  0.43920  0.79930  Biso   1.000  H
  H102     1.0000 0.33520  0.06080  0.29930  Biso   1.000  H
  H103     1.0000 0.16480  0.56080  0.20070  Biso   1.000  H
  H104     1.0000 0.66480  0.93920  0.70070  Biso   1.000  H
  H105     1.0000 0.65340  0.42980  0.79560  Biso   1.000  H
  H106     1.0000 0.15340  0.07020  0.29560  Biso   1.000  H
  H107     1.0000 0.34660  0.57020  0.20440  Biso   1.000  H
  H108     1.0000 0.84660  0.92980  0.70440  Biso   1.000  H
  H109     1.0000 0.75620  0.36470  0.78250  Biso   1.000  H
  H110     1.0000 0.25620  0.13530  0.28250  Biso   1.000  H
  H111     1.0000 0.24380  0.63530  0.21750  Biso   1.000  H
  H112     1.0000 0.74380  0.86470  0.71750  Biso   1.000  H
  O25      1.0000 0.22920  0.92900  0.94080  Biso   1.000  O
  O26      1.0000 0.72920  0.57100  0.44080  Biso   1.000  O
  O27      1.0000 0.77080  0.07100  0.05920  Biso   1.000  O
  O28      1.0000 0.27080  0.42900  0.55920  Biso   1.000  O
  H113     1.0000 0.14500  0.90500  0.92300  Biso   1.000  H
  H114     1.0000 0.64500  0.59500  0.42300  Biso   1.000  H
  H115     1.0000 0.85500  0.09500  0.07700  Biso   1.000  H
  H116     1.0000 0.35500  0.40500  0.57700  Biso   1.000  H
  H117     1.0000 0.22600  0.94600  0.98700  Biso   1.000  H
  H118     1.0000 0.72600  0.55400  0.48700  Biso   1.000  H
  H119     1.0000 0.77400  0.05400  0.01300  Biso   1.000  H
  H120     1.0000 0.27400  0.44600  0.51300  Biso   1.000  H
  O29      1.0000 0.63450  0.29450  0.65250  Biso   1.000  O
  O30      1.0000 0.13450  0.20550  0.15250  Biso   1.000  O
  O31      1.0000 0.36550  0.70550  0.34750  Biso   1.000  O
  O32      1.0000 0.86550  0.79450  0.84750  Biso   1.000  O
  H121     1.0000 0.73200  0.28400  0.66900  Biso   1.000  H
  H122     1.0000 0.23200  0.21600  0.16900  Biso   1.000  H
  H123     1.0000 0.26800  0.71600  0.33100  Biso   1.000  H
  H124     1.0000 0.76800  0.78400  0.83100  Biso   1.000  H
  H125     1.0000 0.61900  0.33600  0.66900  Biso   1.000  H
  H126     1.0000 0.11900  0.16400  0.16900  Biso   1.000  H
  H127     1.0000 0.38100  0.66400  0.33100  Biso   1.000  H
  H128     1.0000 0.88100  0.83600  0.83100  Biso   1.000  H
  N21      1.0000 0.27040  0.96090  0.71210  Biso   1.000  N
  N22      1.0000 0.77040  0.53910  0.21210  Biso   1.000  N
  N23      1.0000 0.72960  0.03910  0.28790  Biso   1.000  N
  N24      1.0000 0.22960  0.46090  0.78790  Biso   1.000  N
  O33      1.0000 0.40770  0.98770  0.73200  Biso   1.000  O
  O34      1.0000 0.90770  0.51230  0.23200  Biso   1.000  O
  O35      1.0000 0.59230  0.01230  0.26800  Biso   1.000  O
  O36      1.0000 0.09230  0.48770  0.76800  Biso   1.000  O
  O37      1.0000 0.20300  0.94270  0.76590  Biso   1.000  O
  O38      1.0000 0.70300  0.55730  0.26590  Biso   1.000  O
  O39      1.0000 0.79700  0.05730  0.23410  Biso   1.000  O
  O40      1.0000 0.29700  0.44270  0.73410  Biso   1.000  O
  O41      1.0000 0.20060  0.95470  0.64140  Biso   1.000  O
  O42      1.0000 0.70060  0.54530  0.14140  Biso   1.000  O
  O43      1.0000 0.79940  0.04530  0.35860  Biso   1.000  O
  O44      1.0000 0.29940  0.45470  0.85860  Biso   1.000  O
