data_image0
_cell_length_a       8.9271
_cell_length_b       9.094
_cell_length_c       9.659
_cell_angle_alpha    110.33
_cell_angle_beta     97.52
_cell_angle_gamma    105.74

_symmetry_space_group_name_H-M    "P 1"
_symmetry_int_tables_number       1

loop_
  _symmetry_equiv_pos_as_xyz
  'x, y, z'

loop_
  _atom_site_label
  _atom_site_occupancy
  _atom_site_fract_x
  _atom_site_fract_y
  _atom_site_fract_z
  _atom_site_thermal_displace_type
  _atom_site_B_iso_or_equiv
  _atom_site_type_symbol
  Cu1      1.0000 0.29086  0.55184  0.18621  Biso   1.000  Cu
  Cu2      1.0000 0.70914  0.44816  0.81379  Biso   1.000  Cu
  O1       1.0000 0.10150  0.67830  0.16680  Biso   1.000  O
  O2       1.0000 0.89850  0.32170  0.83320  Biso   1.000  O
  O3       1.0000 0.11900  0.37620  0.00630  Biso   1.000  O
  O4       1.0000 0.88100  0.62380  0.99370  Biso   1.000  O
  O5       1.0000 0.44820  0.38800  0.11110  Biso   1.000  O
  O6       1.0000 0.55180  0.61200  0.88890  Biso   1.000  O
  O7       1.0000 0.39660  0.64250  0.05100  Biso   1.000  O
  O8       1.0000 0.60340  0.35750  0.94900  Biso   1.000  O
  N1       1.0000 0.20840  0.46750  0.33580  Biso   1.000  N
  N2       1.0000 0.79160  0.53250  0.66420  Biso   1.000  N
  N3       1.0000 0.45890  0.72150  0.37600  Biso   1.000  N
  N4       1.0000 0.54110  0.27850  0.62400  Biso   1.000  N
  C1       1.0000 0.99590  0.58710  0.04690  Biso   1.000  C
  C2       1.0000 0.00410  0.41290  0.95310  Biso   1.000  C
  C3       1.0000 0.51360  0.42720  0.01920  Biso   1.000  C
  C4       1.0000 0.48640  0.57280  0.98080  Biso   1.000  C
  C5       1.0000 0.07920  0.33470  0.30450  Biso   1.000  C
  C6       1.0000 0.92080  0.66530  0.69550  Biso   1.000  C
  H1       1.0000 0.01360  0.33200  0.23410  Biso   1.000  H
  H2       1.0000 0.98640  0.66800  0.76590  Biso   1.000  H
  C7       1.0000 0.03010  0.28510  0.41630  Biso   1.000  C
  C8       1.0000 0.96990  0.71490  0.58370  Biso   1.000  C
  H3       1.0000 0.90900  0.18970  0.38180  Biso   1.000  H
  H4       1.0000 0.09100  0.81030  0.61820  Biso   1.000  H
  C9       1.0000 0.11980  0.37250  0.56350  Biso   1.000  C
  C10      1.0000 0.88020  0.62750  0.43650  Biso   1.000  C
  H5       1.0000 0.07760  0.33630  0.64330  Biso   1.000  H
  H6       1.0000 0.92240  0.66370  0.35670  Biso   1.000  H
  C11      1.0000 0.25640  0.50880  0.59780  Biso   1.000  C
  C12      1.0000 0.74360  0.49120  0.40220  Biso   1.000  C
  H7       1.0000 0.32620  0.56120  0.69960  Biso   1.000  H
  H8       1.0000 0.67380  0.43880  0.30040  Biso   1.000  H
  C13      1.0000 0.29790  0.55240  0.48210  Biso   1.000  C
  C14      1.0000 0.70210  0.44760  0.51790  Biso   1.000  C
  C15      1.0000 0.44080  0.69550  0.50400  Biso   1.000  C
  C16      1.0000 0.55920  0.30450  0.49600  Biso   1.000  C
  C17      1.0000 0.55030  0.79710  0.64370  Biso   1.000  C
  C18      1.0000 0.44970  0.20290  0.35630  Biso   1.000  C
  H9       1.0000 0.54790  0.78030  0.73740  Biso   1.000  H
  H10      1.0000 0.45210  0.21970  0.26260  Biso   1.000  H
  C19      1.0000 0.67930  0.92680  0.65230  Biso   1.000  C
  C20      1.0000 0.32070  0.07320  0.34770  Biso   1.000  C
  H11      1.0000 0.76590  0.01500  0.75990  Biso   1.000  H
  H12      1.0000 0.23410  0.98500  0.24010  Biso   1.000  H
  C21      1.0000 0.69590  0.95430  0.52250  Biso   1.000  C
  C22      1.0000 0.30410  0.04570  0.47750  Biso   1.000  C
  H13      1.0000 0.78340  0.01920  0.49860  Biso   1.000  H
  H14      1.0000 0.21660  0.98080  0.50140  Biso   1.000  H
  C23      1.0000 0.58230  0.84620  0.38530  Biso   1.000  C
  C24      1.0000 0.41770  0.15380  0.61470  Biso   1.000  C
  H15      1.0000 0.59170  0.87600  0.29640  Biso   1.000  H
  H16      1.0000 0.40830  0.12400  0.70360  Biso   1.000  H
  O9       1.0000 0.66040  0.11300  0.05470  Biso   1.000  O
  O10      1.0000 0.33960  0.88700  0.94530  Biso   1.000  O
  H17      1.0000 0.64830  0.06050  0.09950  Biso   1.000  H
  H18      1.0000 0.35170  0.93950  0.90050  Biso   1.000  H
  H19      1.0000 0.57320  0.10460  0.99180  Biso   1.000  H
  H20      1.0000 0.42680  0.89540  0.00820  Biso   1.000  H
  O11      1.0000 0.12230  0.04460  0.93370  Biso   1.000  O
  O12      1.0000 0.87770  0.95540  0.06630  Biso   1.000  O
  H21      1.0000 0.20510  0.13210  0.97760  Biso   1.000  H
  H22      1.0000 0.79490  0.86790  0.02240  Biso   1.000  H
  H23      1.0000 0.12600  0.98020  0.93850  Biso   1.000  H
  H24      1.0000 0.87400  0.01980  0.06150  Biso   1.000  H
