data_image0
_cell_length_a       9.11
_cell_length_b       9.675
_cell_length_c       8.922
_cell_angle_alpha    97.54
_cell_angle_beta     105.8
_cell_angle_gamma    110.26

_symmetry_space_group_name_H-M    "P 1"
_symmetry_int_tables_number       1

loop_
  _symmetry_equiv_pos_as_xyz
  'x, y, z'

loop_
  _atom_site_label
  _atom_site_occupancy
  _atom_site_fract_x
  _atom_site_fract_y
  _atom_site_fract_z
  _atom_site_thermal_displace_type
  _atom_site_B_iso_or_equiv
  _atom_site_type_symbol
  O1       1.0000 0.14220  0.05030  0.39610  Biso   1.000  O
  O2       1.0000 0.85780  0.94970  0.60390  Biso   1.000  O
  O3       1.0000 0.87590  0.00690  0.11840  Biso   1.000  O
  O4       1.0000 0.12410  0.99310  0.88160  Biso   1.000  O
  N1       1.0000 0.22040  0.37640  0.45780  Biso   1.000  N
  N2       1.0000 0.77960  0.62360  0.54220  Biso   1.000  N
  N3       1.0000 0.96780  0.33680  0.20950  Biso   1.000  N
  N4       1.0000 0.03220  0.66320  0.79050  Biso   1.000  N
  C1       1.0000 0.34790  0.38630  0.58360  Biso   1.000  C
  C2       1.0000 0.65210  0.61370  0.41640  Biso   1.000  C
  C3       1.0000 0.45360  0.52140  0.69480  Biso   1.000  C
  C4       1.0000 0.54640  0.47860  0.30520  Biso   1.000  C
  C5       1.0000 0.42740  0.65180  0.67890  Biso   1.000  C
  C6       1.0000 0.57260  0.34820  0.32110  Biso   1.000  C
  C7       1.0000 0.29710  0.64320  0.55010  Biso   1.000  C
  C8       1.0000 0.70290  0.35680  0.44990  Biso   1.000  C
  C9       1.0000 0.19640  0.50390  0.44120  Biso   1.000  C
  C10      1.0000 0.80360  0.49610  0.55880  Biso   1.000  C
  C11      1.0000 0.05310  0.48130  0.29780  Biso   1.000  C
  C12      1.0000 0.94690  0.51870  0.70220  Biso   1.000  C
  C13      1.0000 0.00930  0.59840  0.25620  Biso   1.000  C
  C14      1.0000 0.99070  0.40160  0.74380  Biso   1.000  C
  C15      1.0000 0.87240  0.56350  0.11950  Biso   1.000  C
  C16      1.0000 0.12760  0.43650  0.88050  Biso   1.000  C
  C17      1.0000 0.78560  0.41570  0.03030  Biso   1.000  C
  C18      1.0000 0.21440  0.58430  0.96970  Biso   1.000  C
  C19      1.0000 0.83600  0.30530  0.07810  Biso   1.000  C
  C20      1.0000 0.16400  0.69470  0.92190  Biso   1.000  C
  O5       1.0000 0.11140  0.88870  0.55200  Biso   1.000  O
  O6       1.0000 0.88860  0.11130  0.44800  Biso   1.000  O
  O7       1.0000 0.17800  0.16630  0.10110  Biso   1.000  O
  O8       1.0000 0.82200  0.83370  0.89890  Biso   1.000  O
  C21      1.0000 0.07270  0.98130  0.48580  Biso   1.000  C
  C22      1.0000 0.92730  0.01870  0.51420  Biso   1.000  C
  C23      1.0000 0.91230  0.95270  0.00370  Biso   1.000  C
  C24      1.0000 0.08770  0.04730  0.99630  Biso   1.000  C
  H1       1.0000 0.36000  0.31000  0.59000  Biso   1.000  H
  H2       1.0000 0.64000  0.69000  0.41000  Biso   1.000  H
  H3       1.0000 0.54000  0.51600  0.78900  Biso   1.000  H
  H4       1.0000 0.46000  0.48400  0.21100  Biso   1.000  H
  H5       1.0000 0.50400  0.75200  0.75800  Biso   1.000  H
  H6       1.0000 0.49600  0.24800  0.24200  Biso   1.000  H
  H7       1.0000 0.28200  0.72800  0.54200  Biso   1.000  H
  H8       1.0000 0.71800  0.27200  0.45800  Biso   1.000  H
  H9       1.0000 0.07800  0.69800  0.32300  Biso   1.000  H
  H10      1.0000 0.92200  0.30200  0.67700  Biso   1.000  H
  H11      1.0000 0.83500  0.64100  0.08800  Biso   1.000  H
  H12      1.0000 0.16500  0.35900  0.91200  Biso   1.000  H
  H13      1.0000 0.68500  0.38400  0.93800  Biso   1.000  H
  H14      1.0000 0.31500  0.61600  0.06200  Biso   1.000  H
  H15      1.0000 0.78600  0.21600  0.02200  Biso   1.000  H
  H16      1.0000 0.21400  0.78400  0.97800  Biso   1.000  H
  Cu1      1.0000 0.05167  0.18595  0.29095  Biso   1.000  Cu
  Cu2      1.0000 0.94833  0.81405  0.70905  Biso   1.000  Cu
  O9       1.0000 0.61410  0.05920  0.65800  Biso   1.000  O
  O10      1.0000 0.38590  0.94080  0.34200  Biso   1.000  O
  H17      1.0000 0.58600  0.01600  0.70000  Biso   1.000  H
  H18      1.0000 0.41400  0.98400  0.30000  Biso   1.000  H
  H19      1.0000 0.56200  0.01800  0.57900  Biso   1.000  H
  H20      1.0000 0.43800  0.98200  0.42100  Biso   1.000  H
  O11      1.0000 0.45750  0.06330  0.87800  Biso   1.000  O
  O12      1.0000 0.54250  0.93670  0.12200  Biso   1.000  O
  H21      1.0000 0.42200  0.98700  0.82700  Biso   1.000  H
  H22      1.0000 0.57800  0.01300  0.17300  Biso   1.000  H
  H23      1.0000 0.43400  0.14700  0.85100  Biso   1.000  H
  H24      1.0000 0.56600  0.85300  0.14900  Biso   1.000  H
