data_image0
_cell_length_a       8.9254
_cell_length_b       9.0881
_cell_length_c       9.652
_cell_angle_alpha    110.363
_cell_angle_beta     97.535
_cell_angle_gamma    105.761

_symmetry_space_group_name_H-M    "P 1"
_symmetry_int_tables_number       1

loop_
  _symmetry_equiv_pos_as_xyz
  'x, y, z'

loop_
  _atom_site_label
  _atom_site_occupancy
  _atom_site_fract_x
  _atom_site_fract_y
  _atom_site_fract_z
  _atom_site_thermal_displace_type
  _atom_site_B_iso_or_equiv
  _atom_site_type_symbol
  Cu1      1.0000 0.70909  0.94816  0.81400  Biso   1.000  Cu
  Cu2      1.0000 0.29091  0.05184  0.18600  Biso   1.000  Cu
  O1       1.0000 0.88090  0.12380  0.99330  Biso   1.000  O
  O2       1.0000 0.11910  0.87620  0.00670  Biso   1.000  O
  O3       1.0000 0.60380  0.85770  0.94950  Biso   1.000  O
  O4       1.0000 0.39620  0.14230  0.05050  Biso   1.000  O
  N1       1.0000 0.54240  0.77960  0.62370  Biso   1.000  N
  N2       1.0000 0.45760  0.22040  0.37630  Biso   1.000  N
  C1       1.0000 0.55850  0.80370  0.49580  Biso   1.000  C
  C2       1.0000 0.44150  0.19630  0.50420  Biso   1.000  C
  N3       1.0000 0.79070  0.03250  0.66350  Biso   1.000  N
  N4       1.0000 0.20930  0.96750  0.33650  Biso   1.000  N
  C3       1.0000 0.70200  0.94660  0.51820  Biso   1.000  C
  C4       1.0000 0.29800  0.05340  0.48180  Biso   1.000  C
  C5       1.0000 0.74430  0.99160  0.40270  Biso   1.000  C
  C6       1.0000 0.25570  0.00840  0.59730  Biso   1.000  C
  H1       1.0000 0.68200  0.93130  0.30280  Biso   1.000  H
  H2       1.0000 0.31800  0.06870  0.69720  Biso   1.000  H
  C7       1.0000 0.44910  0.70280  0.35670  Biso   1.000  C
  C8       1.0000 0.55090  0.29720  0.64330  Biso   1.000  C
  H3       1.0000 0.46230  0.72260  0.27000  Biso   1.000  H
  H4       1.0000 0.53770  0.27740  0.73000  Biso   1.000  H
  C9       1.0000 0.92230  0.16410  0.69470  Biso   1.000  C
  C10      1.0000 0.07770  0.83590  0.30530  Biso   1.000  C
  H5       1.0000 0.98400  0.22320  0.79490  Biso   1.000  H
  H6       1.0000 0.01600  0.77680  0.20510  Biso   1.000  H
  C11      1.0000 0.41580  0.65190  0.61340  Biso   1.000  C
  C12      1.0000 0.58420  0.34810  0.38660  Biso   1.000  C
  H7       1.0000 0.40330  0.63420  0.70110  Biso   1.000  H
  H8       1.0000 0.59670  0.36580  0.29890  Biso   1.000  H
  C13      1.0000 0.88050  0.12740  0.43720  Biso   1.000  C
  C14      1.0000 0.11950  0.87260  0.56280  Biso   1.000  C
  H9       1.0000 0.91140  0.15910  0.36060  Biso   1.000  H
  H10      1.0000 0.08860  0.84090  0.63940  Biso   1.000  H
  C15      1.0000 0.32060  0.57280  0.34810  Biso   1.000  C
  C16      1.0000 0.67940  0.42720  0.65190  Biso   1.000  C
  H11      1.0000 0.24550  0.50330  0.25570  Biso   1.000  H
  H12      1.0000 0.75450  0.49670  0.74430  Biso   1.000  H
  C17      1.0000 0.96930  0.21480  0.58470  Biso   1.000  C
  C18      1.0000 0.03070  0.78520  0.41530  Biso   1.000  C
  H13      1.0000 0.06050  0.30760  0.61000  Biso   1.000  H
  H14      1.0000 0.93950  0.69240  0.39000  Biso   1.000  H
  C19      1.0000 0.30530  0.54740  0.47840  Biso   1.000  C
  C20      1.0000 0.69470  0.45260  0.52160  Biso   1.000  C
  H15      1.0000 0.21980  0.45940  0.47480  Biso   1.000  H
  H16      1.0000 0.78020  0.54060  0.52520  Biso   1.000  H
  O5       1.0000 0.44830  0.88850  0.11130  Biso   1.000  O
  O6       1.0000 0.55170  0.11150  0.88870  Biso   1.000  O
  O7       1.0000 0.10130  0.17790  0.16660  Biso   1.000  O
  O8       1.0000 0.89870  0.82210  0.83340  Biso   1.000  O
  C21      1.0000 0.99640  0.08800  0.04760  Biso   1.000  C
  C22      1.0000 0.00360  0.91200  0.95240  Biso   1.000  C
  C23      1.0000 0.51390  0.92650  0.01850  Biso   1.000  C
  C24      1.0000 0.48610  0.07350  0.98150  Biso   1.000  C
  O9       1.0000 0.65590  0.61040  0.05500  Biso   1.000  O
  O10      1.0000 0.34410  0.38960  0.94500  Biso   1.000  O
  H17      1.0000 0.63200  0.69840  0.01900  Biso   1.000  H
  H18      1.0000 0.36800  0.30160  0.98100  Biso   1.000  H
  H19      1.0000 0.70410  0.54830  0.06470  Biso   1.000  H
  H20      1.0000 0.29590  0.45170  0.93530  Biso   1.000  H
  O11      1.0000 0.87540  0.45590  0.06440  Biso   1.000  O
  O12      1.0000 0.12460  0.54410  0.93560  Biso   1.000  O
  H21      1.0000 0.86700  0.41530  0.96740  Biso   1.000  H
  H22      1.0000 0.13300  0.58470  0.03260  Biso   1.000  H
  H23      1.0000 0.85630  0.42260  0.13030  Biso   1.000  H
  H24      1.0000 0.14370  0.57740  0.86970  Biso   1.000  H
