data_image0
_cell_length_a       8.9254
_cell_length_b       9.0881
_cell_length_c       9.652
_cell_angle_alpha    110.363
_cell_angle_beta     97.535
_cell_angle_gamma    105.761

_symmetry_space_group_name_H-M    "P 1"
_symmetry_int_tables_number       1

loop_
  _symmetry_equiv_pos_as_xyz
  'x, y, z'

loop_
  _atom_site_label
  _atom_site_occupancy
  _atom_site_fract_x
  _atom_site_fract_y
  _atom_site_fract_z
  _atom_site_thermal_displace_type
  _atom_site_B_iso_or_equiv
  _atom_site_type_symbol
  Cu1      1.0000 0.70907  0.94815  0.81399  Biso   1.000  Cu
  Cu2      1.0000 0.29093  0.05185  0.18601  Biso   1.000  Cu
  O1       1.0000 0.88070  0.12380  0.99330  Biso   1.000  O
  O2       1.0000 0.11930  0.87620  0.00670  Biso   1.000  O
  O3       1.0000 0.60420  0.85770  0.94960  Biso   1.000  O
  O4       1.0000 0.39580  0.14230  0.05040  Biso   1.000  O
  N1       1.0000 0.54280  0.78000  0.62390  Biso   1.000  N
  N2       1.0000 0.45720  0.22000  0.37610  Biso   1.000  N
  C1       1.0000 0.55830  0.80380  0.49590  Biso   1.000  C
  C2       1.0000 0.44170  0.19620  0.50410  Biso   1.000  C
  N3       1.0000 0.79070  0.03230  0.66350  Biso   1.000  N
  N4       1.0000 0.20930  0.96770  0.33650  Biso   1.000  N
  C3       1.0000 0.70210  0.94660  0.51830  Biso   1.000  C
  C4       1.0000 0.29790  0.05340  0.48170  Biso   1.000  C
  C5       1.0000 0.74400  0.99130  0.40230  Biso   1.000  C
  C6       1.0000 0.25600  0.00870  0.59770  Biso   1.000  C
  H1       1.0000 0.68150  0.93110  0.30250  Biso   1.000  H
  H2       1.0000 0.31850  0.06890  0.69750  Biso   1.000  H
  C7       1.0000 0.44910  0.70300  0.35660  Biso   1.000  C
  C8       1.0000 0.55090  0.29700  0.64340  Biso   1.000  C
  H3       1.0000 0.46240  0.72310  0.27010  Biso   1.000  H
  H4       1.0000 0.53760  0.27690  0.72990  Biso   1.000  H
  C9       1.0000 0.92260  0.16410  0.69500  Biso   1.000  C
  C10      1.0000 0.07740  0.83590  0.30500  Biso   1.000  C
  H5       1.0000 0.98420  0.22320  0.79530  Biso   1.000  H
  H6       1.0000 0.01580  0.77680  0.20470  Biso   1.000  H
  C11      1.0000 0.41560  0.65210  0.61370  Biso   1.000  C
  C12      1.0000 0.58440  0.34790  0.38630  Biso   1.000  C
  H7       1.0000 0.40280  0.63480  0.70150  Biso   1.000  H
  H8       1.0000 0.59720  0.36520  0.29850  Biso   1.000  H
  C13      1.0000 0.88080  0.12750  0.43700  Biso   1.000  C
  C14      1.0000 0.11920  0.87250  0.56300  Biso   1.000  C
  H9       1.0000 0.91200  0.15930  0.36050  Biso   1.000  H
  H10      1.0000 0.08800  0.84070  0.63950  Biso   1.000  H
  C15      1.0000 0.32020  0.57240  0.34770  Biso   1.000  C
  C16      1.0000 0.67980  0.42760  0.65230  Biso   1.000  C
  H11      1.0000 0.24520  0.50290  0.25530  Biso   1.000  H
  H12      1.0000 0.75480  0.49710  0.74470  Biso   1.000  H
  C17      1.0000 0.96940  0.21460  0.58480  Biso   1.000  C
  C18      1.0000 0.03060  0.78540  0.41520  Biso   1.000  C
  H13      1.0000 0.06070  0.30740  0.61020  Biso   1.000  H
  H14      1.0000 0.93930  0.69260  0.38980  Biso   1.000  H
  C19      1.0000 0.30480  0.54690  0.47810  Biso   1.000  C
  C20      1.0000 0.69520  0.45310  0.52190  Biso   1.000  C
  H15      1.0000 0.21950  0.45870  0.47440  Biso   1.000  H
  H16      1.0000 0.78050  0.54130  0.52560  Biso   1.000  H
  O5       1.0000 0.44800  0.88850  0.11150  Biso   1.000  O
  O6       1.0000 0.55200  0.11150  0.88850  Biso   1.000  O
  O7       1.0000 0.10160  0.17820  0.16670  Biso   1.000  O
  O8       1.0000 0.89840  0.82180  0.83330  Biso   1.000  O
  C21      1.0000 0.99620  0.08810  0.04760  Biso   1.000  C
  C22      1.0000 0.00380  0.91190  0.95240  Biso   1.000  C
  C23      1.0000 0.51400  0.92660  0.01840  Biso   1.000  C
  C24      1.0000 0.48600  0.07340  0.98160  Biso   1.000  C
  O9       1.0000 0.65610  0.61010  0.05450  Biso   1.000  O
  O10      1.0000 0.34390  0.38990  0.94550  Biso   1.000  O
  O11      1.0000 0.87530  0.45500  0.06310  Biso   1.000  O
  O12      1.0000 0.12470  0.54500  0.93690  Biso   1.000  O
