data_image0
_cell_length_a       8.9298
_cell_length_b       9.1011
_cell_length_c       9.7112
_cell_angle_alpha    110.46
_cell_angle_beta     97.61
_cell_angle_gamma    105.8

_symmetry_space_group_name_H-M    "P 1"
_symmetry_int_tables_number       1

loop_
  _symmetry_equiv_pos_as_xyz
  'x, y, z'

loop_
  _atom_site_label
  _atom_site_occupancy
  _atom_site_fract_x
  _atom_site_fract_y
  _atom_site_fract_z
  _atom_site_thermal_displace_type
  _atom_site_B_iso_or_equiv
  _atom_site_type_symbol
  C1       1.0000 0.41980  0.66300  0.69610  Biso   1.000  C
  C2       1.0000 0.58020  0.33700  0.30390  Biso   1.000  C
  H1       1.0000 0.47760  0.72360  0.79700  Biso   1.000  H
  H2       1.0000 0.52240  0.27640  0.20300  Biso   1.000  H
  C3       1.0000 0.47400  0.71800  0.58200  Biso   1.000  C
  C4       1.0000 0.52600  0.28200  0.41800  Biso   1.000  C
  H3       1.0000 0.56530  0.81050  0.60500  Biso   1.000  H
  H4       1.0000 0.43470  0.18950  0.39500  Biso   1.000  H
  C5       1.0000 0.37900  0.62000  0.43700  Biso   1.000  C
  C6       1.0000 0.62100  0.38000  0.56300  Biso   1.000  C
  H5       1.0000 0.40970  0.64710  0.35860  Biso   1.000  H
  H6       1.0000 0.59030  0.35290  0.64140  Biso   1.000  H
  C7       1.0000 0.24800  0.49300  0.40190  Biso   1.000  C
  C8       1.0000 0.75200  0.50700  0.59810  Biso   1.000  C
  H7       1.0000 0.18630  0.43540  0.30220  Biso   1.000  H
  H8       1.0000 0.81370  0.56460  0.69780  Biso   1.000  H
  C9       1.0000 0.20110  0.44090  0.52040  Biso   1.000  C
  C10      1.0000 0.79890  0.55910  0.47960  Biso   1.000  C
  C11      1.0000 0.05790  0.30480  0.49450  Biso   1.000  C
  C12      1.0000 0.94210  0.69520  0.50550  Biso   1.000  C
  C13      1.0000 0.95100  0.20600  0.35690  Biso   1.000  C
  C14      1.0000 0.04900  0.79400  0.64310  Biso   1.000  C
  H9       1.0000 0.96460  0.22660  0.27120  Biso   1.000  H
  H10      1.0000 0.03540  0.77340  0.72880  Biso   1.000  H
  C15      1.0000 0.82200  0.07500  0.34810  Biso   1.000  C
  C16      1.0000 0.17800  0.92500  0.65190  Biso   1.000  C
  H11      1.0000 0.74620  0.00840  0.25600  Biso   1.000  H
  H12      1.0000 0.25380  0.99160  0.74400  Biso   1.000  H
  C17      1.0000 0.80500  0.04200  0.47650  Biso   1.000  C
  C18      1.0000 0.19500  0.95800  0.52350  Biso   1.000  C
  H13      1.0000 0.72340  0.94910  0.47140  Biso   1.000  H
  H14      1.0000 0.27660  0.05090  0.52860  Biso   1.000  H
  C19      1.0000 0.91600  0.15560  0.61230  Biso   1.000  C
  C20      1.0000 0.08400  0.84440  0.38770  Biso   1.000  C
  H15      1.0000 0.89890  0.14530  0.70130  Biso   1.000  H
  H16      1.0000 0.10110  0.85470  0.29870  Biso   1.000  H
  C21      1.0000 0.01340  0.42860  0.02060  Biso   1.000  C
  C22      1.0000 0.98660  0.57140  0.97940  Biso   1.000  C
  C23      1.0000 0.49680  0.58700  0.04780  Biso   1.000  C
  C24      1.0000 0.50320  0.41300  0.95220  Biso   1.000  C
  N1       1.0000 0.29220  0.53080  0.66290  Biso   1.000  N
  N2       1.0000 0.70780  0.46920  0.33710  Biso   1.000  N
  N3       1.0000 0.04390  0.27600  0.62380  Biso   1.000  N
  N4       1.0000 0.95610  0.72400  0.37620  Biso   1.000  N
  O1       1.0000 0.10300  0.35960  0.94890  Biso   1.000  O
  O2       1.0000 0.89700  0.64040  0.05110  Biso   1.000  O
  O3       1.0000 0.94920  0.39000  0.11110  Biso   1.000  O
  O4       1.0000 0.05080  0.61000  0.88890  Biso   1.000  O
  O5       1.0000 0.37930  0.62570  0.99390  Biso   1.000  O
  O6       1.0000 0.62070  0.37430  0.00610  Biso   1.000  O
  O7       1.0000 0.60200  0.67920  0.16640  Biso   1.000  O
  O8       1.0000 0.39800  0.32080  0.83360  Biso   1.000  O
  Cu1      1.0000 0.20900  0.44820  0.81409  Biso   1.000  Cu
  Cu2      1.0000 0.79100  0.55180  0.18591  Biso   1.000  Cu
  O9       1.0000 0.15700  0.11400  0.05400  Biso   1.000  O
  O10      1.0000 0.84300  0.88600  0.94600  Biso   1.000  O
  H17      1.0000 0.22900  0.03200  0.00300  Biso   1.000  H
  H18      1.0000 0.77100  0.96800  0.99700  Biso   1.000  H
  H19      1.0000 0.27100  0.25800  0.10300  Biso   1.000  H
  H20      1.0000 0.72900  0.74200  0.89700  Biso   1.000  H
  O11      1.0000 0.37100  0.95200  0.04600  Biso   1.000  O
  O12      1.0000 0.62900  0.04800  0.95400  Biso   1.000  O
  H21      1.0000 0.36900  0.94700  0.13900  Biso   1.000  H
  H22      1.0000 0.63100  0.05300  0.86100  Biso   1.000  H
  H23      1.0000 0.34000  0.07000  0.10600  Biso   1.000  H
  H24      1.0000 0.66000  0.93000  0.89400  Biso   1.000  H
