data_image0
_cell_length_a       9.673
_cell_length_b       8.94
_cell_length_c       9.103
_cell_angle_alpha    105.718
_cell_angle_beta     110.347
_cell_angle_gamma    97.539

_symmetry_space_group_name_H-M    "P 1"
_symmetry_int_tables_number       1

loop_
  _symmetry_equiv_pos_as_xyz
  'x, y, z'

loop_
  _atom_site_label
  _atom_site_occupancy
  _atom_site_fract_x
  _atom_site_fract_y
  _atom_site_fract_z
  _atom_site_thermal_displace_type
  _atom_site_B_iso_or_equiv
  _atom_site_type_symbol
  Cu1      1.0000 0.31390  0.20900  0.44800  Biso   1.000  Cu
  Cu2      1.0000 0.68610  0.79100  0.55200  Biso   1.000  Cu
  N1       1.0000 0.16330  0.29100  0.53270  Biso   1.000  N
  N2       1.0000 0.83670  0.70900  0.46730  Biso   1.000  N
  C1       1.0000 0.19520  0.42190  0.66410  Biso   1.000  C
  C2       1.0000 0.80480  0.57810  0.33590  Biso   1.000  C
  C3       1.0000 0.08460  0.47010  0.71540  Biso   1.000  C
  C4       1.0000 0.91540  0.52990  0.28460  Biso   1.000  C
  C5       1.0000 0.93610  0.38010  0.62750  Biso   1.000  C
  C6       1.0000 0.06390  0.61990  0.37250  Biso   1.000  C
  C7       1.0000 0.90130  0.24400  0.49090  Biso   1.000  C
  C8       1.0000 0.09870  0.75600  0.50910  Biso   1.000  C
  C9       1.0000 0.01790  0.20090  0.44600  Biso   1.000  C
  C10      1.0000 0.98210  0.79910  0.55400  Biso   1.000  C
  C11      1.0000 0.99580  0.05930  0.30430  Biso   1.000  C
  C12      1.0000 0.00420  0.94070  0.69570  Biso   1.000  C
  C13      1.0000 0.85600  0.95010  0.20350  Biso   1.000  C
  C14      1.0000 0.14400  0.04990  0.79650  Biso   1.000  C
  C15      1.0000 0.84780  0.82060  0.07220  Biso   1.000  C
  C16      1.0000 0.15220  0.17940  0.92780  Biso   1.000  C
  C17      1.0000 0.97810  0.80390  0.04550  Biso   1.000  C
  C18      1.0000 0.02190  0.19610  0.95450  Biso   1.000  C
  C19      1.0000 0.11470  0.91620  0.15180  Biso   1.000  C
  C20      1.0000 0.88530  0.08380  0.84820  Biso   1.000  C
  N3       1.0000 0.12320  0.04250  0.27930  Biso   1.000  N
  N4       1.0000 0.87680  0.95750  0.72070  Biso   1.000  N
  O1       1.0000 0.49310  0.38120  0.62340  Biso   1.000  O
  O2       1.0000 0.50690  0.61880  0.37660  Biso   1.000  O
  O3       1.0000 0.33290  0.39900  0.32120  Biso   1.000  O
  O4       1.0000 0.66710  0.60100  0.67880  Biso   1.000  O
  C21      1.0000 0.51860  0.01390  0.42730  Biso   1.000  C
  C22      1.0000 0.48140  0.98610  0.57270  Biso   1.000  C
  C23      1.0000 0.54680  0.49620  0.58710  Biso   1.000  C
  C24      1.0000 0.45320  0.50380  0.41290  Biso   1.000  C
  O5       1.0000 0.44930  0.10380  0.35730  Biso   1.000  O
  O6       1.0000 0.55070  0.89620  0.64270  Biso   1.000  O
  O7       1.0000 0.38830  0.05130  0.61150  Biso   1.000  O
  O8       1.0000 0.61170  0.94870  0.38850  Biso   1.000  O
  H1       1.0000 0.31160  0.49240  0.73300  Biso   1.000  H
  H2       1.0000 0.68840  0.50760  0.26700  Biso   1.000  H
  H3       1.0000 0.11330  0.57690  0.82150  Biso   1.000  H
  H4       1.0000 0.88670  0.42310  0.17850  Biso   1.000  H
  H5       1.0000 0.84750  0.41520  0.66510  Biso   1.000  H
  H6       1.0000 0.15250  0.58480  0.33490  Biso   1.000  H
  H7       1.0000 0.78550  0.17270  0.41970  Biso   1.000  H
  H8       1.0000 0.21450  0.82730  0.58030  Biso   1.000  H
  H9       1.0000 0.75560  0.96430  0.22700  Biso   1.000  H
  H10      1.0000 0.24440  0.03570  0.77300  Biso   1.000  H
  H11      1.0000 0.74030  0.73490  0.99050  Biso   1.000  H
  H12      1.0000 0.25970  0.26510  0.00950  Biso   1.000  H
  H13      1.0000 0.97390  0.70450  0.94390  Biso   1.000  H
  H14      1.0000 0.02610  0.29550  0.05610  Biso   1.000  H
  H15      1.0000 0.21690  0.90210  0.13250  Biso   1.000  H
  H16      1.0000 0.78310  0.09790  0.86750  Biso   1.000  H
  O9       1.0000 0.55640  0.15810  0.11170  Biso   1.000  O
  O10      1.0000 0.44360  0.84190  0.88830  Biso   1.000  O
  H17      1.0000 0.49730  0.04770  0.00760  Biso   1.000  H
  H18      1.0000 0.50270  0.95230  0.99240  Biso   1.000  H
  H19      1.0000 0.67540  0.16010  0.16790  Biso   1.000  H
  H20      1.0000 0.32460  0.83990  0.83210  Biso   1.000  H
  O11      1.0000 0.56450  0.37640  0.95680  Biso   1.000  O
  O12      1.0000 0.43550  0.62360  0.04320  Biso   1.000  O
  H21      1.0000 0.67210  0.43670  0.96380  Biso   1.000  H
  H22      1.0000 0.32790  0.56330  0.03620  Biso   1.000  H
  H23      1.0000 0.47690  0.35410  0.83520  Biso   1.000  H
  H24      1.0000 0.52310  0.64590  0.16480  Biso   1.000  H
