data_image0
_cell_length_a       8.9254
_cell_length_b       9.0881
_cell_length_c       9.652
_cell_angle_alpha    110.363
_cell_angle_beta     97.535
_cell_angle_gamma    105.761

_symmetry_space_group_name_H-M    "P 1"
_symmetry_int_tables_number       1

loop_
  _symmetry_equiv_pos_as_xyz
  'x, y, z'

loop_
  _atom_site_label
  _atom_site_occupancy
  _atom_site_fract_x
  _atom_site_fract_y
  _atom_site_fract_z
  _atom_site_thermal_displace_type
  _atom_site_B_iso_or_equiv
  _atom_site_type_symbol
  Cu1      1.0000 0.70907  0.94815  0.81400  Biso   1.000  Cu
  Cu2      1.0000 0.29093  0.05185  0.18600  Biso   1.000  Cu
  O1       1.0000 0.88070  0.12380  0.99340  Biso   1.000  O
  O2       1.0000 0.11930  0.87620  0.00660  Biso   1.000  O
  O3       1.0000 0.60420  0.85780  0.94970  Biso   1.000  O
  O4       1.0000 0.39580  0.14220  0.05030  Biso   1.000  O
  N1       1.0000 0.54270  0.77990  0.62380  Biso   1.000  N
  N2       1.0000 0.45730  0.22010  0.37620  Biso   1.000  N
  C1       1.0000 0.55840  0.80390  0.49580  Biso   1.000  C
  C2       1.0000 0.44160  0.19610  0.50420  Biso   1.000  C
  N3       1.0000 0.79070  0.03230  0.66350  Biso   1.000  N
  N4       1.0000 0.20930  0.96770  0.33650  Biso   1.000  N
  C3       1.0000 0.70200  0.94660  0.51840  Biso   1.000  C
  C4       1.0000 0.29800  0.05340  0.48160  Biso   1.000  C
  C5       1.0000 0.74410  0.99120  0.40220  Biso   1.000  C
  C6       1.0000 0.25590  0.00880  0.59780  Biso   1.000  C
  H1       1.0000 0.68180  0.93080  0.30230  Biso   1.000  H
  H2       1.0000 0.31820  0.06920  0.69770  Biso   1.000  H
  C7       1.0000 0.44920  0.70310  0.35670  Biso   1.000  C
  C8       1.0000 0.55080  0.29690  0.64330  Biso   1.000  C
  H3       1.0000 0.46240  0.72320  0.27020  Biso   1.000  H
  H4       1.0000 0.53760  0.27680  0.72980  Biso   1.000  H
  C9       1.0000 0.92250  0.16420  0.69510  Biso   1.000  C
  C10      1.0000 0.07750  0.83580  0.30490  Biso   1.000  C
  H5       1.0000 0.98420  0.22320  0.79530  Biso   1.000  H
  H6       1.0000 0.01580  0.77680  0.20470  Biso   1.000  H
  C11      1.0000 0.41580  0.65210  0.61370  Biso   1.000  C
  C12      1.0000 0.58420  0.34790  0.38630  Biso   1.000  C
  H7       1.0000 0.40310  0.63470  0.70150  Biso   1.000  H
  H8       1.0000 0.59690  0.36530  0.29850  Biso   1.000  H
  C13      1.0000 0.88090  0.12780  0.43710  Biso   1.000  C
  C14      1.0000 0.11910  0.87220  0.56290  Biso   1.000  C
  H9       1.0000 0.91200  0.15980  0.36070  Biso   1.000  H
  H10      1.0000 0.08800  0.84020  0.63930  Biso   1.000  H
  C15      1.0000 0.32010  0.57230  0.34760  Biso   1.000  C
  C16      1.0000 0.67990  0.42770  0.65240  Biso   1.000  C
  H11      1.0000 0.24510  0.50280  0.25510  Biso   1.000  H
  H12      1.0000 0.75490  0.49720  0.74490  Biso   1.000  H
  C17      1.0000 0.96940  0.21470  0.58480  Biso   1.000  C
  C18      1.0000 0.03060  0.78530  0.41520  Biso   1.000  C
  H13      1.0000 0.06070  0.30740  0.61030  Biso   1.000  H
  H14      1.0000 0.93930  0.69260  0.38970  Biso   1.000  H
  C19      1.0000 0.30480  0.54690  0.47810  Biso   1.000  C
  C20      1.0000 0.69520  0.45310  0.52190  Biso   1.000  C
  H15      1.0000 0.21950  0.45870  0.47460  Biso   1.000  H
  H16      1.0000 0.78050  0.54130  0.52540  Biso   1.000  H
  O5       1.0000 0.44800  0.88850  0.11150  Biso   1.000  O
  O6       1.0000 0.55200  0.11150  0.88850  Biso   1.000  O
  O7       1.0000 0.10160  0.17830  0.16670  Biso   1.000  O
  O8       1.0000 0.89840  0.82170  0.83330  Biso   1.000  O
  C21      1.0000 0.99620  0.08810  0.04760  Biso   1.000  C
  C22      1.0000 0.00380  0.91190  0.95240  Biso   1.000  C
  C23      1.0000 0.51410  0.92670  0.01840  Biso   1.000  C
  C24      1.0000 0.48590  0.07330  0.98160  Biso   1.000  C
  O9       1.0000 0.65620  0.61010  0.05450  Biso   1.000  O
  O10      1.0000 0.34380  0.38990  0.94550  Biso   1.000  O
  O11      1.0000 0.87530  0.45500  0.06310  Biso   1.000  O
  O12      1.0000 0.12470  0.54500  0.93690  Biso   1.000  O
