data_image0
_cell_length_a       9.606
_cell_length_b       12.478
_cell_length_c       10.762
_cell_angle_alpha    90
_cell_angle_beta     90
_cell_angle_gamma    90

_symmetry_space_group_name_H-M    "P 1"
_symmetry_int_tables_number       1

loop_
  _symmetry_equiv_pos_as_xyz
  'x, y, z'

loop_
  _atom_site_label
  _atom_site_occupancy
  _atom_site_fract_x
  _atom_site_fract_y
  _atom_site_fract_z
  _atom_site_thermal_displace_type
  _atom_site_B_iso_or_equiv
  _atom_site_type_symbol
  Cu1      1.0000 0.50000  0.00000  0.00000  Biso   1.000  Cu
  Cu2      1.0000 0.00000  0.50000  0.00000  Biso   1.000  Cu
  Cu3      1.0000 0.00000  0.00000  0.50000  Biso   1.000  Cu
  Cu4      1.0000 0.50000  0.50000  0.50000  Biso   1.000  Cu
  Cl1      1.0000 0.50000  0.17990  0.00000  Biso   1.000  Cl
  Cl2      1.0000 0.00000  0.67990  0.00000  Biso   1.000  Cl
  Cl3      1.0000 0.00000  0.17990  0.50000  Biso   1.000  Cl
  Cl4      1.0000 0.50000  0.67990  0.50000  Biso   1.000  Cl
  Cl5      1.0000 0.50000  0.82010  0.00000  Biso   1.000  Cl
  Cl6      1.0000 0.00000  0.32010  0.00000  Biso   1.000  Cl
  Cl7      1.0000 0.00000  0.82010  0.50000  Biso   1.000  Cl
  Cl8      1.0000 0.50000  0.32010  0.50000  Biso   1.000  Cl
  S1       1.0000 0.25700  0.00000  0.96010  Biso   1.000  S
  S2       1.0000 0.75700  0.50000  0.96010  Biso   1.000  S
  S3       1.0000 0.24300  0.00000  0.46010  Biso   1.000  S
  S4       1.0000 0.74300  0.50000  0.46010  Biso   1.000  S
  S5       1.0000 0.75700  0.00000  0.53990  Biso   1.000  S
  S6       1.0000 0.25700  0.50000  0.53990  Biso   1.000  S
  S7       1.0000 0.74300  0.00000  0.03990  Biso   1.000  S
  S8       1.0000 0.24300  0.50000  0.03990  Biso   1.000  S
  O1       1.0000 0.04690  0.00000  0.73550  Biso   1.000  O
  O2       1.0000 0.54690  0.50000  0.73550  Biso   1.000  O
  O3       1.0000 0.45310  0.00000  0.23550  Biso   1.000  O
  O4       1.0000 0.95310  0.50000  0.23550  Biso   1.000  O
  O5       1.0000 0.54690  0.00000  0.76450  Biso   1.000  O
  O6       1.0000 0.04690  0.50000  0.76450  Biso   1.000  O
  O7       1.0000 0.95310  0.00000  0.26450  Biso   1.000  O
  O8       1.0000 0.45310  0.50000  0.26450  Biso   1.000  O
  C1       1.0000 0.21190  0.10820  0.85410  Biso   1.000  C
  C2       1.0000 0.71190  0.60820  0.85410  Biso   1.000  C
  C3       1.0000 0.28810  0.10820  0.35410  Biso   1.000  C
  C4       1.0000 0.78810  0.60820  0.35410  Biso   1.000  C
  C5       1.0000 0.21190  0.89180  0.85410  Biso   1.000  C
  C6       1.0000 0.71190  0.39180  0.85410  Biso   1.000  C
  C7       1.0000 0.71190  0.10820  0.64590  Biso   1.000  C
  C8       1.0000 0.21190  0.60820  0.64590  Biso   1.000  C
  C9       1.0000 0.78810  0.89180  0.14590  Biso   1.000  C
  C10      1.0000 0.28810  0.39180  0.14590  Biso   1.000  C
  C11      1.0000 0.71190  0.89180  0.64590  Biso   1.000  C
  C12      1.0000 0.21190  0.39180  0.64590  Biso   1.000  C
  C13      1.0000 0.78810  0.10820  0.14590  Biso   1.000  C
  C14      1.0000 0.28810  0.60820  0.14590  Biso   1.000  C
  C15      1.0000 0.28810  0.89180  0.35410  Biso   1.000  C
  C16      1.0000 0.78810  0.39180  0.35410  Biso   1.000  C
  C17      1.0000 0.06440  0.09560  0.80810  Biso   1.000  C
  C18      1.0000 0.56440  0.59560  0.80810  Biso   1.000  C
  C19      1.0000 0.43560  0.09560  0.30810  Biso   1.000  C
  C20      1.0000 0.93560  0.59560  0.30810  Biso   1.000  C
  C21      1.0000 0.06440  0.90440  0.80810  Biso   1.000  C
  C22      1.0000 0.56440  0.40440  0.80810  Biso   1.000  C
  C23      1.0000 0.56440  0.09560  0.69190  Biso   1.000  C
  C24      1.0000 0.06440  0.59560  0.69190  Biso   1.000  C
  C25      1.0000 0.93560  0.90440  0.19190  Biso   1.000  C
  C26      1.0000 0.43560  0.40440  0.19190  Biso   1.000  C
  C27      1.0000 0.56440  0.90440  0.69190  Biso   1.000  C
  C28      1.0000 0.06440  0.40440  0.69190  Biso   1.000  C
  C29      1.0000 0.93560  0.09560  0.19190  Biso   1.000  C
  C30      1.0000 0.43560  0.59560  0.19190  Biso   1.000  C
  C31      1.0000 0.43560  0.90440  0.30810  Biso   1.000  C
  C32      1.0000 0.93560  0.40440  0.30810  Biso   1.000  C
  H1       1.0000 0.27400  0.11600  0.78600  Biso   1.000  H
  H2       1.0000 0.77400  0.61600  0.78600  Biso   1.000  H
  H3       1.0000 0.22600  0.11600  0.28600  Biso   1.000  H
  H4       1.0000 0.72600  0.61600  0.28600  Biso   1.000  H
  H5       1.0000 0.27400  0.88400  0.78600  Biso   1.000  H
  H6       1.0000 0.77400  0.38400  0.78600  Biso   1.000  H
  H7       1.0000 0.77400  0.11600  0.71400  Biso   1.000  H
  H8       1.0000 0.27400  0.61600  0.71400  Biso   1.000  H
  H9       1.0000 0.72600  0.88400  0.21400  Biso   1.000  H
  H10      1.0000 0.22600  0.38400  0.21400  Biso   1.000  H
  H11      1.0000 0.77400  0.88400  0.71400  Biso   1.000  H
  H12      1.0000 0.27400  0.38400  0.71400  Biso   1.000  H
  H13      1.0000 0.72600  0.11600  0.21400  Biso   1.000  H
  H14      1.0000 0.22600  0.61600  0.21400  Biso   1.000  H
  H15      1.0000 0.22600  0.88400  0.28600  Biso   1.000  H
  H16      1.0000 0.72600  0.38400  0.28600  Biso   1.000  H
  H17      1.0000 0.20700  0.16200  0.89800  Biso   1.000  H
  H18      1.0000 0.70700  0.66200  0.89800  Biso   1.000  H
  H19      1.0000 0.29300  0.16200  0.39800  Biso   1.000  H
  H20      1.0000 0.79300  0.66200  0.39800  Biso   1.000  H
  H21      1.0000 0.20700  0.83800  0.89800  Biso   1.000  H
  H22      1.0000 0.70700  0.33800  0.89800  Biso   1.000  H
  H23      1.0000 0.70700  0.16200  0.60200  Biso   1.000  H
  H24      1.0000 0.20700  0.66200  0.60200  Biso   1.000  H
  H25      1.0000 0.79300  0.83800  0.10200  Biso   1.000  H
  H26      1.0000 0.29300  0.33800  0.10200  Biso   1.000  H
  H27      1.0000 0.70700  0.83800  0.60200  Biso   1.000  H
  H28      1.0000 0.20700  0.33800  0.60200  Biso   1.000  H
  H29      1.0000 0.79300  0.16200  0.10200  Biso   1.000  H
  H30      1.0000 0.29300  0.66200  0.10200  Biso   1.000  H
  H31      1.0000 0.29300  0.83800  0.39800  Biso   1.000  H
  H32      1.0000 0.79300  0.33800  0.39800  Biso   1.000  H
  H33      1.0000 0.04600  0.15700  0.76000  Biso   1.000  H
  H34      1.0000 0.54600  0.65700  0.76000  Biso   1.000  H
  H35      1.0000 0.45400  0.15700  0.26000  Biso   1.000  H
  H36      1.0000 0.95400  0.65700  0.26000  Biso   1.000  H
  H37      1.0000 0.04600  0.84300  0.76000  Biso   1.000  H
  H38      1.0000 0.54600  0.34300  0.76000  Biso   1.000  H
  H39      1.0000 0.54600  0.15700  0.74000  Biso   1.000  H
  H40      1.0000 0.04600  0.65700  0.74000  Biso   1.000  H
  H41      1.0000 0.95400  0.84300  0.24000  Biso   1.000  H
  H42      1.0000 0.45400  0.34300  0.24000  Biso   1.000  H
  H43      1.0000 0.54600  0.84300  0.74000  Biso   1.000  H
  H44      1.0000 0.04600  0.34300  0.74000  Biso   1.000  H
  H45      1.0000 0.95400  0.15700  0.24000  Biso   1.000  H
  H46      1.0000 0.45400  0.65700  0.24000  Biso   1.000  H
  H47      1.0000 0.45400  0.84300  0.26000  Biso   1.000  H
  H48      1.0000 0.95400  0.34300  0.26000  Biso   1.000  H
  H49      1.0000 0.00600  0.09200  0.87800  Biso   1.000  H
  H50      1.0000 0.50600  0.59200  0.87800  Biso   1.000  H
  H51      1.0000 0.49400  0.09200  0.37800  Biso   1.000  H
  H52      1.0000 0.99400  0.59200  0.37800  Biso   1.000  H
  H53      1.0000 0.00600  0.90800  0.87800  Biso   1.000  H
  H54      1.0000 0.50600  0.40800  0.87800  Biso   1.000  H
  H55      1.0000 0.50600  0.09200  0.62200  Biso   1.000  H
  H56      1.0000 0.00600  0.59200  0.62200  Biso   1.000  H
  H57      1.0000 0.99400  0.90800  0.12200  Biso   1.000  H
  H58      1.0000 0.49400  0.40800  0.12200  Biso   1.000  H
  H59      1.0000 0.50600  0.90800  0.62200  Biso   1.000  H
  H60      1.0000 0.00600  0.40800  0.62200  Biso   1.000  H
  H61      1.0000 0.99400  0.09200  0.12200  Biso   1.000  H
  H62      1.0000 0.49400  0.59200  0.12200  Biso   1.000  H
  H63      1.0000 0.49400  0.90800  0.37800  Biso   1.000  H
  H64      1.0000 0.99400  0.40800  0.37800  Biso   1.000  H
