data_image0
_cell_length_a       10.86
_cell_length_b       12.63
_cell_length_c       9.64
_cell_angle_alpha    90
_cell_angle_beta     90
_cell_angle_gamma    90

_symmetry_space_group_name_H-M    "P 1"
_symmetry_int_tables_number       1

loop_
  _symmetry_equiv_pos_as_xyz
  'x, y, z'

loop_
  _atom_site_label
  _atom_site_occupancy
  _atom_site_fract_x
  _atom_site_fract_y
  _atom_site_fract_z
  _atom_site_thermal_displace_type
  _atom_site_B_iso_or_equiv
  _atom_site_type_symbol
  Cu1      1.0000 0.00000  0.00000  0.00000  Biso   1.000  Cu
  Cu2      1.0000 0.00000  0.50000  0.50000  Biso   1.000  Cu
  Cu3      1.0000 0.50000  0.00000  0.50000  Biso   1.000  Cu
  Cu4      1.0000 0.50000  0.50000  0.00000  Biso   1.000  Cu
  Cl1      1.0000 0.00000  0.17850  0.00000  Biso   1.000  Cl
  Cl2      1.0000 0.00000  0.67850  0.50000  Biso   1.000  Cl
  Cl3      1.0000 0.50000  0.82150  0.50000  Biso   1.000  Cl
  Cl4      1.0000 0.50000  0.32150  0.00000  Biso   1.000  Cl
  Cl5      1.0000 0.00000  0.82150  0.00000  Biso   1.000  Cl
  Cl6      1.0000 0.00000  0.32150  0.50000  Biso   1.000  Cl
  Cl7      1.0000 0.50000  0.17850  0.50000  Biso   1.000  Cl
  Cl8      1.0000 0.50000  0.67850  0.00000  Biso   1.000  Cl
  S1       1.0000 0.04170  0.00000  0.24150  Biso   1.000  S
  S2       1.0000 0.04170  0.50000  0.74150  Biso   1.000  S
  S3       1.0000 0.95830  0.00000  0.75850  Biso   1.000  S
  S4       1.0000 0.95830  0.50000  0.25850  Biso   1.000  S
  S5       1.0000 0.54170  0.00000  0.25850  Biso   1.000  S
  S6       1.0000 0.54170  0.50000  0.75850  Biso   1.000  S
  S7       1.0000 0.45830  0.00000  0.74150  Biso   1.000  S
  S8       1.0000 0.45830  0.50000  0.24150  Biso   1.000  S
  C1       1.0000 0.14530  0.89190  0.28570  Biso   1.000  C
  C2       1.0000 0.14530  0.39190  0.78570  Biso   1.000  C
  C3       1.0000 0.85470  0.89190  0.71430  Biso   1.000  C
  C4       1.0000 0.85470  0.39190  0.21430  Biso   1.000  C
  C5       1.0000 0.64530  0.10810  0.21430  Biso   1.000  C
  C6       1.0000 0.64530  0.60810  0.71430  Biso   1.000  C
  C7       1.0000 0.35470  0.10810  0.78570  Biso   1.000  C
  C8       1.0000 0.35470  0.60810  0.28570  Biso   1.000  C
  C9       1.0000 0.85470  0.10810  0.71430  Biso   1.000  C
  C10      1.0000 0.85470  0.60810  0.21430  Biso   1.000  C
  C11      1.0000 0.14530  0.10810  0.28570  Biso   1.000  C
  C12      1.0000 0.14530  0.60810  0.78570  Biso   1.000  C
  C13      1.0000 0.35470  0.89190  0.78570  Biso   1.000  C
  C14      1.0000 0.35470  0.39190  0.28570  Biso   1.000  C
  C15      1.0000 0.64530  0.89190  0.21430  Biso   1.000  C
  C16      1.0000 0.64530  0.39190  0.71430  Biso   1.000  C
  C17      1.0000 0.19330  0.90520  0.43240  Biso   1.000  C
  C18      1.0000 0.19330  0.40520  0.93240  Biso   1.000  C
  C19      1.0000 0.80670  0.90520  0.56760  Biso   1.000  C
  C20      1.0000 0.80670  0.40520  0.06760  Biso   1.000  C
  C21      1.0000 0.69330  0.09480  0.06760  Biso   1.000  C
  C22      1.0000 0.69330  0.59480  0.56760  Biso   1.000  C
  C23      1.0000 0.30670  0.09480  0.93240  Biso   1.000  C
  C24      1.0000 0.30670  0.59480  0.43240  Biso   1.000  C
  C25      1.0000 0.80670  0.09480  0.56760  Biso   1.000  C
  C26      1.0000 0.80670  0.59480  0.06760  Biso   1.000  C
  C27      1.0000 0.19330  0.09480  0.43240  Biso   1.000  C
  C28      1.0000 0.19330  0.59480  0.93240  Biso   1.000  C
  C29      1.0000 0.30670  0.90520  0.93240  Biso   1.000  C
  C30      1.0000 0.30670  0.40520  0.43240  Biso   1.000  C
  C31      1.0000 0.69330  0.90520  0.06760  Biso   1.000  C
  C32      1.0000 0.69330  0.40520  0.56760  Biso   1.000  C
  O1       1.0000 0.23660  0.00000  0.94770  Biso   1.000  O
  O2       1.0000 0.23660  0.50000  0.44770  Biso   1.000  O
  O3       1.0000 0.76340  0.00000  0.05230  Biso   1.000  O
  O4       1.0000 0.76340  0.50000  0.55230  Biso   1.000  O
  O5       1.0000 0.73660  0.00000  0.55230  Biso   1.000  O
  O6       1.0000 0.73660  0.50000  0.05230  Biso   1.000  O
  O7       1.0000 0.26340  0.00000  0.44770  Biso   1.000  O
  O8       1.0000 0.26340  0.50000  0.94770  Biso   1.000  O
  H1       1.0000 0.22210  0.89190  0.21450  Biso   1.000  H
  H2       1.0000 0.22210  0.39190  0.71450  Biso   1.000  H
  H3       1.0000 0.77790  0.89190  0.78550  Biso   1.000  H
  H4       1.0000 0.77790  0.39190  0.28550  Biso   1.000  H
  H5       1.0000 0.72210  0.10810  0.28550  Biso   1.000  H
  H6       1.0000 0.72210  0.60810  0.78550  Biso   1.000  H
  H7       1.0000 0.27790  0.10810  0.71450  Biso   1.000  H
  H8       1.0000 0.27790  0.60810  0.21450  Biso   1.000  H
  H9       1.0000 0.77790  0.10810  0.78550  Biso   1.000  H
  H10      1.0000 0.77790  0.60810  0.28550  Biso   1.000  H
  H11      1.0000 0.22210  0.10810  0.21450  Biso   1.000  H
  H12      1.0000 0.22210  0.60810  0.71450  Biso   1.000  H
  H13      1.0000 0.27790  0.89190  0.71450  Biso   1.000  H
  H14      1.0000 0.27790  0.39190  0.21450  Biso   1.000  H
  H15      1.0000 0.72210  0.89190  0.28550  Biso   1.000  H
  H16      1.0000 0.72210  0.39190  0.78550  Biso   1.000  H
  H17      1.0000 0.09650  0.81760  0.27770  Biso   1.000  H
  H18      1.0000 0.09650  0.31760  0.77770  Biso   1.000  H
  H19      1.0000 0.90350  0.81760  0.72230  Biso   1.000  H
  H20      1.0000 0.90350  0.31760  0.22230  Biso   1.000  H
  H21      1.0000 0.59650  0.18240  0.22230  Biso   1.000  H
  H22      1.0000 0.59650  0.68240  0.72230  Biso   1.000  H
  H23      1.0000 0.40350  0.18240  0.77770  Biso   1.000  H
  H24      1.0000 0.40350  0.68240  0.27770  Biso   1.000  H
  H25      1.0000 0.90350  0.18240  0.72230  Biso   1.000  H
  H26      1.0000 0.90350  0.68240  0.22230  Biso   1.000  H
  H27      1.0000 0.09650  0.18240  0.27770  Biso   1.000  H
  H28      1.0000 0.09650  0.68240  0.77770  Biso   1.000  H
  H29      1.0000 0.40350  0.81760  0.77770  Biso   1.000  H
  H30      1.0000 0.40350  0.31760  0.27770  Biso   1.000  H
  H31      1.0000 0.59650  0.81760  0.22230  Biso   1.000  H
  H32      1.0000 0.59650  0.31760  0.72230  Biso   1.000  H
  H33      1.0000 0.25080  0.83820  0.45790  Biso   1.000  H
  H34      1.0000 0.25080  0.33820  0.95790  Biso   1.000  H
  H35      1.0000 0.74920  0.83820  0.54210  Biso   1.000  H
  H36      1.0000 0.74920  0.33820  0.04210  Biso   1.000  H
  H37      1.0000 0.75080  0.16180  0.04210  Biso   1.000  H
  H38      1.0000 0.75080  0.66180  0.54210  Biso   1.000  H
  H39      1.0000 0.24920  0.16180  0.95790  Biso   1.000  H
  H40      1.0000 0.24920  0.66180  0.45790  Biso   1.000  H
  H41      1.0000 0.74920  0.16180  0.54210  Biso   1.000  H
  H42      1.0000 0.74920  0.66180  0.04210  Biso   1.000  H
  H43      1.0000 0.25080  0.16180  0.45790  Biso   1.000  H
  H44      1.0000 0.25080  0.66180  0.95790  Biso   1.000  H
  H45      1.0000 0.24920  0.83820  0.95790  Biso   1.000  H
  H46      1.0000 0.24920  0.33820  0.45790  Biso   1.000  H
  H47      1.0000 0.75080  0.83820  0.04210  Biso   1.000  H
  H48      1.0000 0.75080  0.33820  0.54210  Biso   1.000  H
  H49      1.0000 0.11590  0.90800  0.50270  Biso   1.000  H
  H50      1.0000 0.11590  0.40800  0.00270  Biso   1.000  H
  H51      1.0000 0.88410  0.90800  0.49730  Biso   1.000  H
  H52      1.0000 0.88410  0.40800  0.99730  Biso   1.000  H
  H53      1.0000 0.61590  0.09200  0.99730  Biso   1.000  H
  H54      1.0000 0.61590  0.59200  0.49730  Biso   1.000  H
  H55      1.0000 0.38410  0.09200  0.00270  Biso   1.000  H
  H56      1.0000 0.38410  0.59200  0.50270  Biso   1.000  H
  H57      1.0000 0.88410  0.09200  0.49730  Biso   1.000  H
  H58      1.0000 0.88410  0.59200  0.99730  Biso   1.000  H
  H59      1.0000 0.11590  0.09200  0.50270  Biso   1.000  H
  H60      1.0000 0.11590  0.59200  0.00270  Biso   1.000  H
  H61      1.0000 0.38410  0.90800  0.00270  Biso   1.000  H
  H62      1.0000 0.38410  0.40800  0.50270  Biso   1.000  H
  H63      1.0000 0.61590  0.90800  0.99730  Biso   1.000  H
  H64      1.0000 0.61590  0.40800  0.49730  Biso   1.000  H
