data_image0
_cell_length_a       16.806
_cell_length_b       8.9444
_cell_length_c       15.2034
_cell_angle_alpha    90
_cell_angle_beta     108.187
_cell_angle_gamma    90

_symmetry_space_group_name_H-M    "P 1"
_symmetry_int_tables_number       1

loop_
  _symmetry_equiv_pos_as_xyz
  'x, y, z'

loop_
  _atom_site_label
  _atom_site_occupancy
  _atom_site_fract_x
  _atom_site_fract_y
  _atom_site_fract_z
  _atom_site_thermal_displace_type
  _atom_site_B_iso_or_equiv
  _atom_site_type_symbol
  Cu1      1.0000 0.00000  0.00000  0.00000  Biso   1.000  Cu
  Cu2      1.0000 0.00000  0.50000  0.50000  Biso   1.000  Cu
  Cu3      1.0000 0.13633  0.57609  0.87227  Biso   1.000  Cu
  Cu4      1.0000 0.86367  0.07609  0.62773  Biso   1.000  Cu
  Cu5      1.0000 0.86367  0.42391  0.12773  Biso   1.000  Cu
  Cu6      1.0000 0.13633  0.92391  0.37227  Biso   1.000  Cu
  S1       1.0000 0.84735  0.08696  0.26068  Biso   1.000  S
  S2       1.0000 0.15265  0.58696  0.23932  Biso   1.000  S
  S3       1.0000 0.15265  0.91304  0.73932  Biso   1.000  S
  S4       1.0000 0.84735  0.41304  0.76068  Biso   1.000  S
  O1       1.0000 0.18503  0.73550  0.96486  Biso   1.000  O
  O2       1.0000 0.81497  0.23550  0.53514  Biso   1.000  O
  O3       1.0000 0.81497  0.26450  0.03514  Biso   1.000  O
  O4       1.0000 0.18503  0.76450  0.46486  Biso   1.000  O
  O5       1.0000 0.07070  0.85080  0.97161  Biso   1.000  O
  O6       1.0000 0.92930  0.35080  0.52839  Biso   1.000  O
  O7       1.0000 0.92930  0.14920  0.02839  Biso   1.000  O
  O8       1.0000 0.07070  0.64920  0.47161  Biso   1.000  O
  O9       1.0000 0.09341  0.08400  0.09545  Biso   1.000  O
  O10      1.0000 0.90659  0.58400  0.40455  Biso   1.000  O
  O11      1.0000 0.90659  0.91600  0.90455  Biso   1.000  O
  O12      1.0000 0.09341  0.41600  0.59545  Biso   1.000  O
  O13      1.0000 0.85954  0.24850  0.25595  Biso   1.000  O
  O14      1.0000 0.14046  0.74850  0.24405  Biso   1.000  O
  O15      1.0000 0.14046  0.75150  0.74405  Biso   1.000  O
  O16      1.0000 0.85954  0.25150  0.75595  Biso   1.000  O
  O17      1.0000 0.89338  0.02810  0.35204  Biso   1.000  O
  O18      1.0000 0.10662  0.52810  0.14796  Biso   1.000  O
  O19      1.0000 0.10662  0.97190  0.64796  Biso   1.000  O
  O20      1.0000 0.89338  0.47190  0.85204  Biso   1.000  O
  O21      1.0000 0.86295  0.00480  0.18610  Biso   1.000  O
  O22      1.0000 0.13705  0.50480  0.31390  Biso   1.000  O
  O23      1.0000 0.13705  0.99520  0.81390  Biso   1.000  O
  O24      1.0000 0.86295  0.49520  0.68610  Biso   1.000  O
  O25      1.0000 0.11120  0.41720  0.97720  Biso   1.000  O
  O26      1.0000 0.88880  0.91720  0.52280  Biso   1.000  O
  O27      1.0000 0.88880  0.58280  0.02280  Biso   1.000  O
  O28      1.0000 0.11120  0.08280  0.47720  Biso   1.000  O
  O29      1.0000 0.09100  0.41680  0.77550  Biso   1.000  O
  O30      1.0000 0.90900  0.91680  0.72450  Biso   1.000  O
  O31      1.0000 0.90900  0.58320  0.22450  Biso   1.000  O
  O32      1.0000 0.09100  0.08320  0.27550  Biso   1.000  O
  O33      1.0000 0.02145  0.65580  0.84129  Biso   1.000  O
  O34      1.0000 0.97855  0.15580  0.65871  Biso   1.000  O
  O35      1.0000 0.97855  0.34420  0.15871  Biso   1.000  O
  O36      1.0000 0.02145  0.84420  0.34129  Biso   1.000  O
  O37      1.0000 0.97249  0.82730  0.12560  Biso   1.000  O
  O38      1.0000 0.02751  0.32730  0.37440  Biso   1.000  O
  O39      1.0000 0.02751  0.17270  0.87440  Biso   1.000  O
  O40      1.0000 0.97249  0.67270  0.62560  Biso   1.000  O
  N1       1.0000 0.43228  0.02090  0.13900  Biso   1.000  N
  N2       1.0000 0.56772  0.52090  0.36100  Biso   1.000  N
  N3       1.0000 0.56772  0.97910  0.86100  Biso   1.000  N
  N4       1.0000 0.43228  0.47910  0.63900  Biso   1.000  N
  N5       1.0000 0.48084  0.08950  0.20630  Biso   1.000  N
  N6       1.0000 0.51916  0.58950  0.29370  Biso   1.000  N
  N7       1.0000 0.51916  0.91050  0.79370  Biso   1.000  N
  N8       1.0000 0.48084  0.41050  0.70630  Biso   1.000  N
  N9       1.0000 0.25359  0.50190  0.89460  Biso   1.000  N
  N10      1.0000 0.74641  0.00190  0.60540  Biso   1.000  N
  N11      1.0000 0.74641  0.49810  0.10540  Biso   1.000  N
  N12      1.0000 0.25359  0.99810  0.39460  Biso   1.000  N
  C1       1.0000 0.15020  0.84130  0.99350  Biso   1.000  C
  C2       1.0000 0.84980  0.34130  0.50650  Biso   1.000  C
  C3       1.0000 0.84980  0.15870  0.00650  Biso   1.000  C
  C4       1.0000 0.15020  0.65870  0.49350  Biso   1.000  C
  C5       1.0000 0.20410  0.95530  0.05490  Biso   1.000  C
  C6       1.0000 0.79590  0.45530  0.44510  Biso   1.000  C
  C7       1.0000 0.79590  0.04470  0.94510  Biso   1.000  C
  C8       1.0000 0.20410  0.54470  0.55490  Biso   1.000  C
  C9       1.0000 0.17270  0.06830  0.10040  Biso   1.000  C
  C10      1.0000 0.82730  0.56830  0.39960  Biso   1.000  C
  C11      1.0000 0.82730  0.93170  0.89960  Biso   1.000  C
  C12      1.0000 0.17270  0.43170  0.60040  Biso   1.000  C
  C13      1.0000 0.23100  0.17040  0.15720  Biso   1.000  C
  C14      1.0000 0.76900  0.67040  0.34280  Biso   1.000  C
  C15      1.0000 0.76900  0.82960  0.84280  Biso   1.000  C
  C16      1.0000 0.23100  0.32960  0.65720  Biso   1.000  C
  H1       1.0000 0.21090  0.24910  0.18650  Biso   1.000  H
  H2       1.0000 0.78910  0.74910  0.31350  Biso   1.000  H
  H3       1.0000 0.78910  0.75090  0.81350  Biso   1.000  H
  H4       1.0000 0.21090  0.25090  0.68650  Biso   1.000  H
  C17      1.0000 0.31490  0.15920  0.17120  Biso   1.000  C
  C18      1.0000 0.68510  0.65920  0.32880  Biso   1.000  C
  C19      1.0000 0.68510  0.84080  0.82880  Biso   1.000  C
  C20      1.0000 0.31490  0.34080  0.67120  Biso   1.000  C
  H5       1.0000 0.35230  0.22870  0.21040  Biso   1.000  H
  H6       1.0000 0.64770  0.72870  0.28960  Biso   1.000  H
  H7       1.0000 0.64770  0.77130  0.78960  Biso   1.000  H
  H8       1.0000 0.35230  0.27130  0.71040  Biso   1.000  H
  C21      1.0000 0.34600  0.04550  0.12780  Biso   1.000  C
  C22      1.0000 0.65400  0.54550  0.37220  Biso   1.000  C
  C23      1.0000 0.65400  0.95450  0.87220  Biso   1.000  C
  C24      1.0000 0.34600  0.45450  0.62780  Biso   1.000  C
  C25      1.0000 0.29030  0.94680  0.06920  Biso   1.000  C
  C26      1.0000 0.70970  0.44680  0.43080  Biso   1.000  C
  C27      1.0000 0.70970  0.05320  0.93080  Biso   1.000  C
  C28      1.0000 0.29030  0.55320  0.56920  Biso   1.000  C
  H9       1.0000 0.31120  0.87170  0.03820  Biso   1.000  H
  H10      1.0000 0.68880  0.37170  0.46180  Biso   1.000  H
  H11      1.0000 0.68880  0.12830  0.96180  Biso   1.000  H
  H12      1.0000 0.31120  0.62830  0.53820  Biso   1.000  H
  C29      1.0000 0.56780  0.07140  0.21650  Biso   1.000  C
  C30      1.0000 0.43220  0.57140  0.28350  Biso   1.000  C
  C31      1.0000 0.43220  0.92860  0.78350  Biso   1.000  C
  C32      1.0000 0.56780  0.42860  0.71650  Biso   1.000  C
  C33      1.0000 0.62280  0.10960  0.30200  Biso   1.000  C
  C34      1.0000 0.37720  0.60960  0.19800  Biso   1.000  C
  C35      1.0000 0.37720  0.89040  0.69800  Biso   1.000  C
  C36      1.0000 0.62280  0.39040  0.80200  Biso   1.000  C
  H13      1.0000 0.60140  0.13980  0.35020  Biso   1.000  H
  H14      1.0000 0.39860  0.63980  0.14980  Biso   1.000  H
  H15      1.0000 0.39860  0.86020  0.64980  Biso   1.000  H
  H16      1.0000 0.60140  0.36020  0.85020  Biso   1.000  H
  C37      1.0000 0.70880  0.10450  0.31840  Biso   1.000  C
  C38      1.0000 0.29120  0.60450  0.18160  Biso   1.000  C
  C39      1.0000 0.29120  0.89550  0.68160  Biso   1.000  C
  C40      1.0000 0.70880  0.39550  0.81840  Biso   1.000  C
  H17      1.0000 0.74650  0.12770  0.37780  Biso   1.000  H
  H18      1.0000 0.25350  0.62770  0.12220  Biso   1.000  H
  H19      1.0000 0.25350  0.87230  0.62220  Biso   1.000  H
  H20      1.0000 0.74650  0.37230  0.87780  Biso   1.000  H
  C41      1.0000 0.73880  0.06500  0.24610  Biso   1.000  C
  C42      1.0000 0.26120  0.56500  0.25390  Biso   1.000  C
  C43      1.0000 0.26120  0.93500  0.75390  Biso   1.000  C
  C44      1.0000 0.73880  0.43500  0.74610  Biso   1.000  C
  C45      1.0000 0.68470  0.02390  0.16150  Biso   1.000  C
  C46      1.0000 0.31530  0.52390  0.33850  Biso   1.000  C
  C47      1.0000 0.31530  0.97610  0.83850  Biso   1.000  C
  C48      1.0000 0.68470  0.47610  0.66150  Biso   1.000  C
  H21      1.0000 0.70590  0.99350  0.11320  Biso   1.000  H
  H22      1.0000 0.29410  0.49350  0.38680  Biso   1.000  H
  H23      1.0000 0.29410  0.00650  0.88680  Biso   1.000  H
  H24      1.0000 0.70590  0.50650  0.61320  Biso   1.000  H
  C49      1.0000 0.59900  0.02710  0.14670  Biso   1.000  C
  C50      1.0000 0.40100  0.52710  0.35330  Biso   1.000  C
  C51      1.0000 0.40100  0.97290  0.85330  Biso   1.000  C
  C52      1.0000 0.59900  0.47290  0.64670  Biso   1.000  C
  H25      1.0000 0.56150  0.99850  0.08830  Biso   1.000  H
  H26      1.0000 0.43850  0.49850  0.41170  Biso   1.000  H
  H27      1.0000 0.43850  0.00150  0.91170  Biso   1.000  H
  H28      1.0000 0.56150  0.50150  0.58830  Biso   1.000  H
  C53      1.0000 0.30580  0.57130  0.85820  Biso   1.000  C
  C54      1.0000 0.69420  0.07130  0.64180  Biso   1.000  C
  C55      1.0000 0.69420  0.42870  0.14180  Biso   1.000  C
  C56      1.0000 0.30580  0.92870  0.35820  Biso   1.000  C
  H29      1.0000 0.28610  0.65760  0.82140  Biso   1.000  H
  H30      1.0000 0.71390  0.15760  0.67860  Biso   1.000  H
  H31      1.0000 0.71390  0.34240  0.17860  Biso   1.000  H
  H32      1.0000 0.28610  0.84240  0.32140  Biso   1.000  H
  C57      1.0000 0.38690  0.52540  0.87080  Biso   1.000  C
  C58      1.0000 0.61310  0.02540  0.62920  Biso   1.000  C
  C59      1.0000 0.61310  0.47460  0.12920  Biso   1.000  C
  C60      1.0000 0.38690  0.97460  0.37080  Biso   1.000  C
  H33      1.0000 0.42150  0.57790  0.84230  Biso   1.000  H
  H34      1.0000 0.57850  0.07790  0.65770  Biso   1.000  H
  H35      1.0000 0.57850  0.42210  0.15770  Biso   1.000  H
  H36      1.0000 0.42150  0.92210  0.34230  Biso   1.000  H
  C61      1.0000 0.41650  0.40410  0.92440  Biso   1.000  C
  C62      1.0000 0.58350  0.90410  0.57560  Biso   1.000  C
  C63      1.0000 0.58350  0.59590  0.07560  Biso   1.000  C
  C64      1.0000 0.41650  0.09590  0.42440  Biso   1.000  C
  H37      1.0000 0.47270  0.37170  0.93570  Biso   1.000  H
  H38      1.0000 0.52730  0.87170  0.56430  Biso   1.000  H
  H39      1.0000 0.52730  0.62830  0.06430  Biso   1.000  H
  H40      1.0000 0.47270  0.12830  0.43570  Biso   1.000  H
  C65      1.0000 0.36400  0.33000  0.96150  Biso   1.000  C
  C66      1.0000 0.63600  0.83000  0.53850  Biso   1.000  C
  C67      1.0000 0.63600  0.67000  0.03850  Biso   1.000  C
  C68      1.0000 0.36400  0.17000  0.46150  Biso   1.000  C
  H41      1.0000 0.38270  0.24300  0.99790  Biso   1.000  H
  H42      1.0000 0.61730  0.74300  0.50210  Biso   1.000  H
  H43      1.0000 0.61730  0.75700  0.00210  Biso   1.000  H
  H44      1.0000 0.38270  0.25700  0.49790  Biso   1.000  H
  C69      1.0000 0.28290  0.38200  0.94590  Biso   1.000  C
  C70      1.0000 0.71710  0.88200  0.55410  Biso   1.000  C
  C71      1.0000 0.71710  0.61800  0.05410  Biso   1.000  C
  C72      1.0000 0.28290  0.11800  0.44590  Biso   1.000  C
  H45      1.0000 0.24710  0.32990  0.97300  Biso   1.000  H
  H46      1.0000 0.75290  0.82990  0.52700  Biso   1.000  H
  H47      1.0000 0.75290  0.67010  0.02700  Biso   1.000  H
  H48      1.0000 0.24710  0.17010  0.47300  Biso   1.000  H
  H49      1.0000 0.08300  0.34500  0.96300  Biso   1.000  H
  H50      1.0000 0.91700  0.84500  0.53700  Biso   1.000  H
  H51      1.0000 0.91700  0.65500  0.03700  Biso   1.000  H
  H52      1.0000 0.08300  0.15500  0.46300  Biso   1.000  H
  H53      1.0000 0.10900  0.44400  0.02600  Biso   1.000  H
  H54      1.0000 0.89100  0.94400  0.47400  Biso   1.000  H
  H55      1.0000 0.89100  0.55600  0.97400  Biso   1.000  H
  H56      1.0000 0.10900  0.05600  0.52600  Biso   1.000  H
  H57      1.0000 0.07600  0.34400  0.78900  Biso   1.000  H
  H58      1.0000 0.92400  0.84400  0.71100  Biso   1.000  H
  H59      1.0000 0.92400  0.65600  0.21100  Biso   1.000  H
  H60      1.0000 0.07600  0.15600  0.28900  Biso   1.000  H
  H61      1.0000 0.08700  0.42000  0.71900  Biso   1.000  H
  H62      1.0000 0.91300  0.92000  0.78100  Biso   1.000  H
  H63      1.0000 0.91300  0.58000  0.28100  Biso   1.000  H
  H64      1.0000 0.08700  0.08000  0.21900  Biso   1.000  H
  H65      1.0000 0.99100  0.59400  0.84500  Biso   1.000  H
  H66      1.0000 0.00900  0.09400  0.65500  Biso   1.000  H
  H67      1.0000 0.00900  0.40600  0.15500  Biso   1.000  H
  H68      1.0000 0.99100  0.90600  0.34500  Biso   1.000  H
  H69      1.0000 0.02500  0.71900  0.87600  Biso   1.000  H
  H70      1.0000 0.97500  0.21900  0.62400  Biso   1.000  H
  H71      1.0000 0.97500  0.28100  0.12400  Biso   1.000  H
  H72      1.0000 0.02500  0.78100  0.37600  Biso   1.000  H
  H73      1.0000 0.95100  0.88400  0.14600  Biso   1.000  H
  H74      1.0000 0.04900  0.38400  0.35400  Biso   1.000  H
  H75      1.0000 0.04900  0.11600  0.85400  Biso   1.000  H
  H76      1.0000 0.95100  0.61600  0.64600  Biso   1.000  H
  H77      1.0000 0.01700  0.81400  0.15800  Biso   1.000  H
  H78      1.0000 0.98300  0.31400  0.34200  Biso   1.000  H
  H79      1.0000 0.98300  0.18600  0.84200  Biso   1.000  H
  H80      1.0000 0.01700  0.68600  0.65800  Biso   1.000  H
