data_image0
_cell_length_a       12.4289
_cell_length_b       14.3925
_cell_length_c       17.9428
_cell_angle_alpha    90
_cell_angle_beta     98.631
_cell_angle_gamma    90

_symmetry_space_group_name_H-M    "P 1"
_symmetry_int_tables_number       1

loop_
  _symmetry_equiv_pos_as_xyz
  'x, y, z'

loop_
  _atom_site_label
  _atom_site_occupancy
  _atom_site_fract_x
  _atom_site_fract_y
  _atom_site_fract_z
  _atom_site_thermal_displace_type
  _atom_site_B_iso_or_equiv
  _atom_site_type_symbol
  Cu1      1.0000 0.33140  0.47330  0.78260  Biso   1.000  Cu
  Cu2      1.0000 0.66860  0.97330  0.71740  Biso   1.000  Cu
  Cu3      1.0000 0.66860  0.52670  0.21740  Biso   1.000  Cu
  Cu4      1.0000 0.33140  0.02670  0.28260  Biso   1.000  Cu
  Cu5      1.0000 0.18196  0.33322  0.81367  Biso   1.000  Cu
  Cu6      1.0000 0.81804  0.83322  0.68633  Biso   1.000  Cu
  Cu7      1.0000 0.81804  0.66678  0.18633  Biso   1.000  Cu
  Cu8      1.0000 0.18196  0.16678  0.31367  Biso   1.000  Cu
  O1       1.0000 0.39660  0.58020  0.88220  Biso   1.000  O
  O2       1.0000 0.60340  0.08020  0.61780  Biso   1.000  O
  O3       1.0000 0.60340  0.41980  0.11780  Biso   1.000  O
  O4       1.0000 0.39660  0.91980  0.38220  Biso   1.000  O
  H1       1.0000 0.46890  0.57900  0.88060  Biso   1.000  H
  H2       1.0000 0.53110  0.07900  0.61940  Biso   1.000  H
  H3       1.0000 0.53110  0.42100  0.11940  Biso   1.000  H
  H4       1.0000 0.46890  0.92100  0.38060  Biso   1.000  H
  O5       1.0000 0.18570  0.46780  0.80950  Biso   1.000  O
  O6       1.0000 0.81430  0.96780  0.69050  Biso   1.000  O
  O7       1.0000 0.81430  0.53220  0.19050  Biso   1.000  O
  O8       1.0000 0.18570  0.03220  0.30950  Biso   1.000  O
  O9       1.0000 0.27250  0.42530  0.64340  Biso   1.000  O
  O10      1.0000 0.72750  0.92530  0.85660  Biso   1.000  O
  O11      1.0000 0.72750  0.57470  0.35660  Biso   1.000  O
  O12      1.0000 0.27250  0.07470  0.14340  Biso   1.000  O
  H5       1.0000 0.32490  0.42760  0.62130  Biso   1.000  H
  H6       1.0000 0.67510  0.92760  0.87870  Biso   1.000  H
  H7       1.0000 0.67510  0.57240  0.37870  Biso   1.000  H
  H8       1.0000 0.32490  0.07240  0.12130  Biso   1.000  H
  O13      1.0000 0.47420  0.46800  0.75110  Biso   1.000  O
  O14      1.0000 0.52580  0.96800  0.74890  Biso   1.000  O
  O15      1.0000 0.52580  0.53200  0.24890  Biso   1.000  O
  O16      1.0000 0.47420  0.03200  0.25110  Biso   1.000  O
  O17      1.0000 0.58150  0.49420  0.86030  Biso   1.000  O
  O18      1.0000 0.41850  0.99420  0.63970  Biso   1.000  O
  O19      1.0000 0.41850  0.50580  0.13970  Biso   1.000  O
  O20      1.0000 0.58150  0.00580  0.36030  Biso   1.000  O
  O21      1.0000 0.17720  0.27500  0.67330  Biso   1.000  O
  O22      1.0000 0.82280  0.77500  0.82670  Biso   1.000  O
  O23      1.0000 0.82280  0.72500  0.32670  Biso   1.000  O
  O24      1.0000 0.17720  0.22500  0.17330  Biso   1.000  O
  H9       1.0000 0.20490  0.33970  0.67190  Biso   1.000  H
  H10      1.0000 0.79510  0.83970  0.82810  Biso   1.000  H
  H11      1.0000 0.79510  0.66030  0.32810  Biso   1.000  H
  H12      1.0000 0.20490  0.16030  0.17190  Biso   1.000  H
  O25      1.0000 0.33830  0.35240  0.83290  Biso   1.000  O
  O26      1.0000 0.66170  0.85240  0.66710  Biso   1.000  O
  O27      1.0000 0.66170  0.64760  0.16710  Biso   1.000  O
  O28      1.0000 0.33830  0.14760  0.33290  Biso   1.000  O
  O29      1.0000 0.16190  0.30270  0.94330  Biso   1.000  O
  O30      1.0000 0.83810  0.80270  0.55670  Biso   1.000  O
  O31      1.0000 0.83810  0.69730  0.05670  Biso   1.000  O
  O32      1.0000 0.16190  0.19730  0.44330  Biso   1.000  O
  H13      1.0000 0.09570  0.32170  0.93810  Biso   1.000  H
  H14      1.0000 0.90430  0.82170  0.56190  Biso   1.000  H
  H15      1.0000 0.90430  0.67830  0.06190  Biso   1.000  H
  H16      1.0000 0.09570  0.17830  0.43810  Biso   1.000  H
  O33      1.0000 0.02560  0.32300  0.78080  Biso   1.000  O
  O34      1.0000 0.97440  0.82300  0.71920  Biso   1.000  O
  O35      1.0000 0.97440  0.67700  0.21920  Biso   1.000  O
  O36      1.0000 0.02560  0.17700  0.28080  Biso   1.000  O
  O37      1.0000 0.96110  0.35400  0.88570  Biso   1.000  O
  O38      1.0000 0.03890  0.85400  0.61430  Biso   1.000  O
  O39      1.0000 0.03890  0.64600  0.11430  Biso   1.000  O
  O40      1.0000 0.96110  0.14600  0.38570  Biso   1.000  O
  N1       1.0000 0.28380  0.59490  0.73040  Biso   1.000  N
  N2       1.0000 0.71620  0.09490  0.76960  Biso   1.000  N
  N3       1.0000 0.71620  0.40510  0.26960  Biso   1.000  N
  N4       1.0000 0.28380  0.90510  0.23040  Biso   1.000  N
  N5       1.0000 0.21690  0.19500  0.81920  Biso   1.000  N
  N6       1.0000 0.78310  0.69500  0.68080  Biso   1.000  N
  N7       1.0000 0.78310  0.80500  0.18080  Biso   1.000  N
  N8       1.0000 0.21690  0.30500  0.31920  Biso   1.000  N
  C1       1.0000 0.36850  0.66840  0.85050  Biso   1.000  C
  C2       1.0000 0.63150  0.16840  0.64950  Biso   1.000  C
  C3       1.0000 0.63150  0.33160  0.14950  Biso   1.000  C
  C4       1.0000 0.36850  0.83160  0.35050  Biso   1.000  C
  H17      1.0000 0.42540  0.71380  0.87060  Biso   1.000  H
  H18      1.0000 0.57460  0.21380  0.62940  Biso   1.000  H
  H19      1.0000 0.57460  0.28620  0.12940  Biso   1.000  H
  H20      1.0000 0.42540  0.78620  0.37060  Biso   1.000  H
  H21      1.0000 0.29920  0.68880  0.86610  Biso   1.000  H
  H22      1.0000 0.70080  0.18880  0.63390  Biso   1.000  H
  H23      1.0000 0.70080  0.31120  0.13390  Biso   1.000  H
  H24      1.0000 0.29920  0.81120  0.36610  Biso   1.000  H
  C5       1.0000 0.35630  0.66860  0.76540  Biso   1.000  C
  C6       1.0000 0.64370  0.16860  0.73460  Biso   1.000  C
  C7       1.0000 0.64370  0.33140  0.23460  Biso   1.000  C
  C8       1.0000 0.35630  0.83140  0.26540  Biso   1.000  C
  H25      1.0000 0.32730  0.72960  0.74650  Biso   1.000  H
  H26      1.0000 0.67270  0.22960  0.75350  Biso   1.000  H
  H27      1.0000 0.67270  0.27040  0.25350  Biso   1.000  H
  H28      1.0000 0.32730  0.77040  0.24650  Biso   1.000  H
  H29      1.0000 0.42900  0.66080  0.75000  Biso   1.000  H
  H30      1.0000 0.57100  0.16080  0.75000  Biso   1.000  H
  H31      1.0000 0.57100  0.33920  0.25000  Biso   1.000  H
  H32      1.0000 0.42900  0.83920  0.25000  Biso   1.000  H
  C9       1.0000 0.11230  0.51960  0.75660  Biso   1.000  C
  C10      1.0000 0.88770  0.01960  0.74340  Biso   1.000  C
  C11      1.0000 0.88770  0.48040  0.24340  Biso   1.000  C
  C12      1.0000 0.11230  0.98040  0.25660  Biso   1.000  C
  H33      1.0000 0.04410  0.53220  0.77710  Biso   1.000  H
  H34      1.0000 0.95590  0.03220  0.72290  Biso   1.000  H
  H35      1.0000 0.95590  0.46780  0.22290  Biso   1.000  H
  H36      1.0000 0.04410  0.96780  0.27710  Biso   1.000  H
  H37      1.0000 0.09420  0.48430  0.70900  Biso   1.000  H
  H38      1.0000 0.90580  0.98430  0.79100  Biso   1.000  H
  H39      1.0000 0.90580  0.51570  0.29100  Biso   1.000  H
  H40      1.0000 0.09420  0.01570  0.20900  Biso   1.000  H
  C13      1.0000 0.16900  0.61090  0.74230  Biso   1.000  C
  C14      1.0000 0.83100  0.11090  0.75770  Biso   1.000  C
  C15      1.0000 0.83100  0.38910  0.25770  Biso   1.000  C
  C16      1.0000 0.16900  0.88910  0.24230  Biso   1.000  C
  H41      1.0000 0.12860  0.64170  0.69720  Biso   1.000  H
  H42      1.0000 0.87140  0.14170  0.80280  Biso   1.000  H
  H43      1.0000 0.87140  0.35830  0.30280  Biso   1.000  H
  H44      1.0000 0.12860  0.85830  0.19720  Biso   1.000  H
  H45      1.0000 0.16820  0.65280  0.78590  Biso   1.000  H
  H46      1.0000 0.83180  0.15280  0.71410  Biso   1.000  H
  H47      1.0000 0.83180  0.34720  0.21410  Biso   1.000  H
  H48      1.0000 0.16820  0.84720  0.28590  Biso   1.000  H
  C17      1.0000 0.23260  0.50850  0.60670  Biso   1.000  C
  C18      1.0000 0.76740  0.00850  0.89330  Biso   1.000  C
  C19      1.0000 0.76740  0.49150  0.39330  Biso   1.000  C
  C20      1.0000 0.23260  0.99150  0.10670  Biso   1.000  C
  H49      1.0000 0.15380  0.51520  0.60850  Biso   1.000  H
  H50      1.0000 0.84620  0.01520  0.89150  Biso   1.000  H
  H51      1.0000 0.84620  0.48480  0.39150  Biso   1.000  H
  H52      1.0000 0.15380  0.98480  0.10850  Biso   1.000  H
  C21      1.0000 0.29540  0.58860  0.64830  Biso   1.000  C
  C22      1.0000 0.70460  0.08860  0.85170  Biso   1.000  C
  C23      1.0000 0.70460  0.41140  0.35170  Biso   1.000  C
  C24      1.0000 0.29540  0.91140  0.14830  Biso   1.000  C
  H53      1.0000 0.37350  0.58170  0.64400  Biso   1.000  H
  H54      1.0000 0.62650  0.08170  0.85600  Biso   1.000  H
  H55      1.0000 0.62650  0.41830  0.35600  Biso   1.000  H
  H56      1.0000 0.37350  0.91830  0.14400  Biso   1.000  H
  H57      1.0000 0.26980  0.64760  0.62320  Biso   1.000  H
  H58      1.0000 0.73020  0.14760  0.87680  Biso   1.000  H
  H59      1.0000 0.73020  0.35240  0.37680  Biso   1.000  H
  H60      1.0000 0.26980  0.85240  0.12320  Biso   1.000  H
  C25      1.0000 0.56630  0.46660  0.79450  Biso   1.000  C
  C26      1.0000 0.43370  0.96660  0.70550  Biso   1.000  C
  C27      1.0000 0.43370  0.53340  0.20550  Biso   1.000  C
  C28      1.0000 0.56630  0.03340  0.29450  Biso   1.000  C
  C29      1.0000 0.66040  0.43200  0.75860  Biso   1.000  C
  C30      1.0000 0.33960  0.93200  0.74140  Biso   1.000  C
  C31      1.0000 0.33960  0.56800  0.24140  Biso   1.000  C
  C32      1.0000 0.66040  0.06800  0.25860  Biso   1.000  C
  C33      1.0000 0.65080  0.42540  0.68080  Biso   1.000  C
  C34      1.0000 0.34920  0.92540  0.81920  Biso   1.000  C
  C35      1.0000 0.34920  0.57460  0.31920  Biso   1.000  C
  C36      1.0000 0.65080  0.07460  0.18080  Biso   1.000  C
  H61      1.0000 0.58420  0.44160  0.65040  Biso   1.000  H
  H62      1.0000 0.41580  0.94160  0.84960  Biso   1.000  H
  H63      1.0000 0.41580  0.55840  0.34960  Biso   1.000  H
  H64      1.0000 0.58420  0.05840  0.15040  Biso   1.000  H
  C37      1.0000 0.73780  0.39550  0.64710  Biso   1.000  C
  C38      1.0000 0.26220  0.89550  0.85290  Biso   1.000  C
  C39      1.0000 0.26220  0.60450  0.35290  Biso   1.000  C
  C40      1.0000 0.73780  0.10450  0.14710  Biso   1.000  C
  H65      1.0000 0.73090  0.39120  0.59380  Biso   1.000  H
  H66      1.0000 0.26910  0.89120  0.90620  Biso   1.000  H
  H67      1.0000 0.26910  0.60880  0.40620  Biso   1.000  H
  H68      1.0000 0.73090  0.10880  0.09380  Biso   1.000  H
  C41      1.0000 0.83540  0.37170  0.69160  Biso   1.000  C
  C42      1.0000 0.16460  0.87170  0.80840  Biso   1.000  C
  C43      1.0000 0.16460  0.62830  0.30840  Biso   1.000  C
  C44      1.0000 0.83540  0.12830  0.19160  Biso   1.000  C
  H69      1.0000 0.89550  0.35190  0.66850  Biso   1.000  H
  H70      1.0000 0.10450  0.85190  0.83150  Biso   1.000  H
  H71      1.0000 0.10450  0.64810  0.33150  Biso   1.000  H
  H72      1.0000 0.89550  0.14810  0.16850  Biso   1.000  H
  C45      1.0000 0.84540  0.37680  0.76970  Biso   1.000  C
  C46      1.0000 0.15460  0.87680  0.73030  Biso   1.000  C
  C47      1.0000 0.15460  0.62320  0.23030  Biso   1.000  C
  C48      1.0000 0.84540  0.12320  0.26970  Biso   1.000  C
  C49      1.0000 0.75760  0.40860  0.80290  Biso   1.000  C
  C50      1.0000 0.24240  0.90860  0.69710  Biso   1.000  C
  C51      1.0000 0.24240  0.59140  0.19710  Biso   1.000  C
  C52      1.0000 0.75760  0.09140  0.30290  Biso   1.000  C
  H73      1.0000 0.76460  0.41420  0.85620  Biso   1.000  H
  H74      1.0000 0.23540  0.91420  0.64380  Biso   1.000  H
  H75      1.0000 0.23540  0.58580  0.14380  Biso   1.000  H
  H76      1.0000 0.76460  0.08580  0.35620  Biso   1.000  H
  C53      1.0000 0.95180  0.35020  0.81740  Biso   1.000  C
  C54      1.0000 0.04820  0.85020  0.68260  Biso   1.000  C
  C55      1.0000 0.04820  0.64980  0.18260  Biso   1.000  C
  C56      1.0000 0.95180  0.14980  0.31740  Biso   1.000  C
  C57      1.0000 0.16330  0.14640  0.75320  Biso   1.000  C
  C58      1.0000 0.83670  0.64640  0.74680  Biso   1.000  C
  C59      1.0000 0.83670  0.85360  0.24680  Biso   1.000  C
  C60      1.0000 0.16330  0.35360  0.25320  Biso   1.000  C
  H77      1.0000 0.08390  0.15760  0.74740  Biso   1.000  H
  H78      1.0000 0.91610  0.65760  0.75260  Biso   1.000  H
  H79      1.0000 0.91610  0.84240  0.25260  Biso   1.000  H
  H80      1.0000 0.08390  0.34240  0.24740  Biso   1.000  H
  H81      1.0000 0.17590  0.07870  0.75950  Biso   1.000  H
  H82      1.0000 0.82410  0.57870  0.74050  Biso   1.000  H
  H83      1.0000 0.82410  0.92130  0.24050  Biso   1.000  H
  H84      1.0000 0.17590  0.42130  0.25950  Biso   1.000  H
  C61      1.0000 0.20660  0.17960  0.68360  Biso   1.000  C
  C62      1.0000 0.79340  0.67960  0.81640  Biso   1.000  C
  C63      1.0000 0.79340  0.82040  0.31640  Biso   1.000  C
  C64      1.0000 0.20660  0.32040  0.18360  Biso   1.000  C
  H85      1.0000 0.28680  0.17260  0.69010  Biso   1.000  H
  H86      1.0000 0.71320  0.67260  0.80990  Biso   1.000  H
  H87      1.0000 0.71320  0.82740  0.30990  Biso   1.000  H
  H88      1.0000 0.28680  0.32740  0.19010  Biso   1.000  H
  H89      1.0000 0.17460  0.14270  0.63910  Biso   1.000  H
  H90      1.0000 0.82540  0.64270  0.86090  Biso   1.000  H
  H91      1.0000 0.82540  0.85730  0.36090  Biso   1.000  H
  H92      1.0000 0.17460  0.35730  0.13910  Biso   1.000  H
  C65      1.0000 0.39410  0.27320  0.81050  Biso   1.000  C
  C66      1.0000 0.60590  0.77320  0.68950  Biso   1.000  C
  C67      1.0000 0.60590  0.72680  0.18950  Biso   1.000  C
  C68      1.0000 0.39410  0.22680  0.31050  Biso   1.000  C
  H93      1.0000 0.47160  0.27470  0.83340  Biso   1.000  H
  H94      1.0000 0.52840  0.77470  0.66660  Biso   1.000  H
  H95      1.0000 0.52840  0.72530  0.16660  Biso   1.000  H
  H96      1.0000 0.47160  0.22530  0.33340  Biso   1.000  H
  H97      1.0000 0.38990  0.27150  0.75490  Biso   1.000  H
  H98      1.0000 0.61010  0.77150  0.74510  Biso   1.000  H
  H99      1.0000 0.61010  0.72850  0.24510  Biso   1.000  H
  H100     1.0000 0.38990  0.22850  0.25490  Biso   1.000  H
  C69      1.0000 0.33650  0.18660  0.83860  Biso   1.000  C
  C70      1.0000 0.66350  0.68660  0.66140  Biso   1.000  C
  C71      1.0000 0.66350  0.81340  0.16140  Biso   1.000  C
  C72      1.0000 0.33650  0.31340  0.33860  Biso   1.000  C
  H101     1.0000 0.36140  0.12990  0.81500  Biso   1.000  H
  H102     1.0000 0.63860  0.62990  0.68500  Biso   1.000  H
  H103     1.0000 0.63860  0.87010  0.18500  Biso   1.000  H
  H104     1.0000 0.36140  0.37010  0.31500  Biso   1.000  H
  H105     1.0000 0.35650  0.18080  0.89390  Biso   1.000  H
  H106     1.0000 0.64350  0.68080  0.60610  Biso   1.000  H
  H107     1.0000 0.64350  0.81920  0.10610  Biso   1.000  H
  H108     1.0000 0.35650  0.31920  0.39390  Biso   1.000  H
  C73      1.0000 0.18530  0.21100  0.95580  Biso   1.000  C
  C74      1.0000 0.81470  0.71100  0.54420  Biso   1.000  C
  C75      1.0000 0.81470  0.78900  0.04420  Biso   1.000  C
  C76      1.0000 0.18530  0.28900  0.45580  Biso   1.000  C
  H109     1.0000 0.14200  0.18680  0.99350  Biso   1.000  H
  H110     1.0000 0.85800  0.68680  0.50650  Biso   1.000  H
  H111     1.0000 0.85800  0.81320  0.00650  Biso   1.000  H
  H112     1.0000 0.14200  0.31320  0.49350  Biso   1.000  H
  H113     1.0000 0.26320  0.20420  0.97660  Biso   1.000  H
  H114     1.0000 0.73680  0.70420  0.52340  Biso   1.000  H
  H115     1.0000 0.73680  0.79580  0.02340  Biso   1.000  H
  H116     1.0000 0.26320  0.29580  0.47660  Biso   1.000  H
  C77      1.0000 0.16170  0.15700  0.88740  Biso   1.000  C
  C78      1.0000 0.83830  0.65700  0.61260  Biso   1.000  C
  C79      1.0000 0.83830  0.84300  0.11260  Biso   1.000  C
  C80      1.0000 0.16170  0.34300  0.38740  Biso   1.000  C
  H117     1.0000 0.08190  0.15550  0.87170  Biso   1.000  H
  H118     1.0000 0.91810  0.65550  0.62830  Biso   1.000  H
  H119     1.0000 0.91810  0.84450  0.12830  Biso   1.000  H
  H120     1.0000 0.08190  0.34450  0.37170  Biso   1.000  H
  H121     1.0000 0.18640  0.09240  0.89830  Biso   1.000  H
  H122     1.0000 0.81360  0.59240  0.60170  Biso   1.000  H
  H123     1.0000 0.81360  0.90760  0.10170  Biso   1.000  H
  H124     1.0000 0.18640  0.40760  0.39830  Biso   1.000  H
  Na1      1.0000 0.37880  0.55480  0.01311  Biso   1.000  Na
  Na2      1.0000 0.62120  0.05480  0.48689  Biso   1.000  Na
  Na3      1.0000 0.62120  0.44520  0.98689  Biso   1.000  Na
  Na4      1.0000 0.37880  0.94520  0.51311  Biso   1.000  Na
  O41      1.0000 0.42830  0.40070  0.97840  Biso   1.000  O
  O42      1.0000 0.57170  0.90070  0.52160  Biso   1.000  O
  O43      1.0000 0.57170  0.59930  0.02160  Biso   1.000  O
  O44      1.0000 0.42830  0.09930  0.47840  Biso   1.000  O
  H125     1.0000 0.38850  0.38240  0.92980  Biso   1.000  H
  H126     1.0000 0.61150  0.88240  0.57020  Biso   1.000  H
  H127     1.0000 0.61150  0.61760  0.07020  Biso   1.000  H
  H128     1.0000 0.38850  0.11760  0.42980  Biso   1.000  H
  H129     1.0000 0.42270  0.35220  0.01580  Biso   1.000  H
  H130     1.0000 0.57730  0.85220  0.48420  Biso   1.000  H
  H131     1.0000 0.57730  0.64780  0.98420  Biso   1.000  H
  H132     1.0000 0.42270  0.14780  0.51580  Biso   1.000  H
  O45      1.0000 0.33880  0.71000  0.03700  Biso   1.000  O
  O46      1.0000 0.66120  0.21000  0.46300  Biso   1.000  O
  O47      1.0000 0.66120  0.29000  0.96300  Biso   1.000  O
  O48      1.0000 0.33880  0.79000  0.53700  Biso   1.000  O
  H133     1.0000 0.26890  0.73900  0.02690  Biso   1.000  H
  H134     1.0000 0.73110  0.23900  0.47310  Biso   1.000  H
  H135     1.0000 0.73110  0.26100  0.97310  Biso   1.000  H
  H136     1.0000 0.26890  0.76100  0.52690  Biso   1.000  H
  H137     1.0000 0.39650  0.74440  0.02330  Biso   1.000  H
  H138     1.0000 0.60350  0.24440  0.47670  Biso   1.000  H
  H139     1.0000 0.60350  0.25560  0.97670  Biso   1.000  H
  H140     1.0000 0.39650  0.75560  0.52330  Biso   1.000  H
  O49      1.0000 0.19290  0.53090  0.96110  Biso   1.000  O
  O50      1.0000 0.80710  0.03090  0.53890  Biso   1.000  O
  O51      1.0000 0.80710  0.46910  0.03890  Biso   1.000  O
  O52      1.0000 0.19290  0.96910  0.46110  Biso   1.000  O
  H141     1.0000 0.15810  0.48620  0.98670  Biso   1.000  H
  H142     1.0000 0.84190  0.98620  0.51330  Biso   1.000  H
  H143     1.0000 0.84190  0.51380  0.01330  Biso   1.000  H
  H144     1.0000 0.15810  0.01380  0.48670  Biso   1.000  H
  H145     1.0000 0.20110  0.50870  0.91510  Biso   1.000  H
  H146     1.0000 0.79890  0.00870  0.58490  Biso   1.000  H
  H147     1.0000 0.79890  0.49130  0.08490  Biso   1.000  H
  H148     1.0000 0.20110  0.99130  0.41510  Biso   1.000  H
  O53      1.0000 0.95950  0.53130  0.95370  Biso   1.000  O
  O54      1.0000 0.04050  0.03130  0.54630  Biso   1.000  O
  O55      1.0000 0.04050  0.46870  0.04630  Biso   1.000  O
  O56      1.0000 0.95950  0.96870  0.45370  Biso   1.000  O
  N9       1.0000 0.94570  0.22830  0.05190  Biso   1.000  N
  N10      1.0000 0.05430  0.72830  0.44810  Biso   1.000  N
  N11      1.0000 0.05430  0.77170  0.94810  Biso   1.000  N
  N12      1.0000 0.94570  0.27170  0.55190  Biso   1.000  N
  O57      1.0000 0.86650  0.21400  0.99290  Biso   1.000  O
  O58      1.0000 0.13350  0.71400  0.50710  Biso   1.000  O
  O59      1.0000 0.13350  0.78600  0.00710  Biso   1.000  O
  O60      1.0000 0.86650  0.28600  0.49290  Biso   1.000  O
  O61      1.0000 0.95870  0.29860  0.09310  Biso   1.000  O
  O62      1.0000 0.04130  0.79860  0.40690  Biso   1.000  O
  O63      1.0000 0.04130  0.70140  0.90690  Biso   1.000  O
  O64      1.0000 0.95870  0.20140  0.59310  Biso   1.000  O
  O65      1.0000 0.01380  0.15410  0.06590  Biso   1.000  O
  O66      1.0000 0.98620  0.65410  0.43410  Biso   1.000  O
  O67      1.0000 0.98620  0.84590  0.93410  Biso   1.000  O
  O68      1.0000 0.01380  0.34590  0.56590  Biso   1.000  O
  N13      1.0000 0.47550  0.12260  0.01870  Biso   1.000  N
  N14      1.0000 0.52450  0.62260  0.48130  Biso   1.000  N
  N15      1.0000 0.52450  0.87740  0.98130  Biso   1.000  N
  N16      1.0000 0.47550  0.37740  0.51870  Biso   1.000  N
  O69      1.0000 0.52310  0.14630  0.98650  Biso   1.000  O
  O70      1.0000 0.47690  0.64630  0.51350  Biso   1.000  O
  O71      1.0000 0.47690  0.85370  0.01350  Biso   1.000  O
  O72      1.0000 0.52310  0.35370  0.48650  Biso   1.000  O
  O73      1.0000 0.43000  0.20180  0.06240  Biso   1.000  O
  O74      1.0000 0.57000  0.70180  0.43760  Biso   1.000  O
  O75      1.0000 0.57000  0.79820  0.93760  Biso   1.000  O
  O76      1.0000 0.43000  0.29820  0.56240  Biso   1.000  O
  O77      1.0000 0.43030  0.04610  0.03280  Biso   1.000  O
  O78      1.0000 0.56970  0.54610  0.46720  Biso   1.000  O
  O79      1.0000 0.56970  0.95390  0.96720  Biso   1.000  O
  O80      1.0000 0.43030  0.45390  0.53280  Biso   1.000  O
  H149     1.0000 0.24400  0.50750  0.55330  Biso   1.000  H
  H150     1.0000 0.75600  0.00750  0.94670  Biso   1.000  H
  H151     1.0000 0.75600  0.49250  0.44670  Biso   1.000  H
  H152     1.0000 0.24400  0.99250  0.05330  Biso   1.000  H
  H153     1.0000 0.93690  0.49140  0.92040  Biso   1.000  H
  H154     1.0000 0.06310  0.99140  0.57960  Biso   1.000  H
  H155     1.0000 0.06310  0.50860  0.07960  Biso   1.000  H
  H156     1.0000 0.93690  0.00860  0.42040  Biso   1.000  H
  H157     1.0000 0.00000  0.50000  0.00000  Biso   1.000  H
  H158     1.0000 0.00000  0.00000  0.50000  Biso   1.000  H
