data_image0
_cell_length_a       10.75
_cell_length_b       6.9767
_cell_length_c       16.377
_cell_angle_alpha    90
_cell_angle_beta     100.653
_cell_angle_gamma    90

_symmetry_space_group_name_H-M    "P 1"
_symmetry_int_tables_number       1

loop_
  _symmetry_equiv_pos_as_xyz
  'x, y, z'

loop_
  _atom_site_label
  _atom_site_occupancy
  _atom_site_fract_x
  _atom_site_fract_y
  _atom_site_fract_z
  _atom_site_thermal_displace_type
  _atom_site_B_iso_or_equiv
  _atom_site_type_symbol
  C1       1.0000 0.84550  0.25440  0.87840  Biso   1.000  C
  C2       1.0000 0.15450  0.25440  0.62160  Biso   1.000  C
  C3       1.0000 0.15450  0.74560  0.12160  Biso   1.000  C
  C4       1.0000 0.84550  0.74560  0.37840  Biso   1.000  C
  C5       1.0000 0.92420  0.38430  0.94170  Biso   1.000  C
  C6       1.0000 0.07580  0.38430  0.55830  Biso   1.000  C
  C7       1.0000 0.07580  0.61570  0.05830  Biso   1.000  C
  C8       1.0000 0.92420  0.61570  0.44170  Biso   1.000  C
  C9       1.0000 0.92870  0.57900  0.92900  Biso   1.000  C
  C10      1.0000 0.07130  0.57900  0.57100  Biso   1.000  C
  C11      1.0000 0.07130  0.42100  0.07100  Biso   1.000  C
  C12      1.0000 0.92870  0.42100  0.42900  Biso   1.000  C
  H1       1.0000 0.88090  0.63310  0.88140  Biso   1.000  H
  H2       1.0000 0.11910  0.63310  0.61860  Biso   1.000  H
  H3       1.0000 0.11910  0.36690  0.11860  Biso   1.000  H
  H4       1.0000 0.88090  0.36690  0.38140  Biso   1.000  H
  C13      1.0000 0.99590  0.30530  0.01340  Biso   1.000  C
  C14      1.0000 0.00410  0.30530  0.48660  Biso   1.000  C
  C15      1.0000 0.00410  0.69470  0.98660  Biso   1.000  C
  C16      1.0000 0.99590  0.69470  0.51340  Biso   1.000  C
  H5       1.0000 0.99310  0.17400  0.02250  Biso   1.000  H
  H6       1.0000 0.00690  0.17400  0.47750  Biso   1.000  H
  H7       1.0000 0.00690  0.82600  0.97750  Biso   1.000  H
  H8       1.0000 0.99310  0.82600  0.52250  Biso   1.000  H
  C17      1.0000 0.60600  0.20700  0.57480  Biso   1.000  C
  C18      1.0000 0.39400  0.20700  0.92520  Biso   1.000  C
  C19      1.0000 0.39400  0.79300  0.42520  Biso   1.000  C
  C20      1.0000 0.60600  0.79300  0.07480  Biso   1.000  C
  H9       1.0000 0.62130  0.07120  0.56860  Biso   1.000  H
  H10      1.0000 0.37870  0.07120  0.93140  Biso   1.000  H
  H11      1.0000 0.37870  0.92880  0.43140  Biso   1.000  H
  H12      1.0000 0.62130  0.92880  0.06860  Biso   1.000  H
  H13      1.0000 0.61420  0.27080  0.52350  Biso   1.000  H
  H14      1.0000 0.38580  0.27080  0.97650  Biso   1.000  H
  H15      1.0000 0.38580  0.72920  0.47650  Biso   1.000  H
  H16      1.0000 0.61420  0.72920  0.02350  Biso   1.000  H
  C21      1.0000 0.82300  0.17500  0.65070  Biso   1.000  C
  C22      1.0000 0.17700  0.17500  0.84930  Biso   1.000  C
  C23      1.0000 0.17700  0.82500  0.34930  Biso   1.000  C
  C24      1.0000 0.82300  0.82500  0.15070  Biso   1.000  C
  H17      1.0000 0.85230  0.18600  0.59840  Biso   1.000  H
  H18      1.0000 0.14770  0.18600  0.90160  Biso   1.000  H
  H19      1.0000 0.14770  0.81400  0.40160  Biso   1.000  H
  H20      1.0000 0.85230  0.81400  0.09840  Biso   1.000  H
  H21      1.0000 0.88480  0.23710  0.69290  Biso   1.000  H
  H22      1.0000 0.11520  0.23710  0.80710  Biso   1.000  H
  H23      1.0000 0.11520  0.76290  0.30710  Biso   1.000  H
  H24      1.0000 0.88480  0.76290  0.19290  Biso   1.000  H
  C25      1.0000 0.71800  0.49100  0.63480  Biso   1.000  C
  C26      1.0000 0.28200  0.49100  0.86520  Biso   1.000  C
  C27      1.0000 0.28200  0.50900  0.36520  Biso   1.000  C
  C28      1.0000 0.71800  0.50900  0.13480  Biso   1.000  C
  H25      1.0000 0.75120  0.51610  0.58540  Biso   1.000  H
  H26      1.0000 0.24880  0.51610  0.91460  Biso   1.000  H
  H27      1.0000 0.24880  0.48390  0.41460  Biso   1.000  H
  H28      1.0000 0.75120  0.48390  0.08540  Biso   1.000  H
  H29      1.0000 0.77600  0.53710  0.68240  Biso   1.000  H
  H30      1.0000 0.22400  0.53710  0.81760  Biso   1.000  H
  H31      1.0000 0.22400  0.46290  0.31760  Biso   1.000  H
  H32      1.0000 0.77600  0.46290  0.18240  Biso   1.000  H
  H33      1.0000 0.63810  0.55650  0.63130  Biso   1.000  H
  H34      1.0000 0.36190  0.55650  0.86870  Biso   1.000  H
  H35      1.0000 0.36190  0.44350  0.36870  Biso   1.000  H
  H36      1.0000 0.63810  0.44350  0.13130  Biso   1.000  H
  C29      1.0000 0.47120  0.23730  0.59220  Biso   1.000  C
  C30      1.0000 0.52880  0.23730  0.90780  Biso   1.000  C
  C31      1.0000 0.52880  0.76270  0.40780  Biso   1.000  C
  C32      1.0000 0.47120  0.76270  0.09220  Biso   1.000  C
  H37      1.0000 0.39700  0.31880  0.58000  Biso   1.000  H
  H38      1.0000 0.60300  0.31880  0.92000  Biso   1.000  H
  H39      1.0000 0.60300  0.68120  0.42000  Biso   1.000  H
  H40      1.0000 0.39700  0.68120  0.08000  Biso   1.000  H
  H41      1.0000 0.46030  0.13540  0.55120  Biso   1.000  H
  H42      1.0000 0.53970  0.13540  0.94880  Biso   1.000  H
  H43      1.0000 0.53970  0.86460  0.44880  Biso   1.000  H
  H44      1.0000 0.46030  0.86460  0.05120  Biso   1.000  H
  C33      1.0000 0.82010  0.98060  0.67070  Biso   1.000  C
  C34      1.0000 0.17990  0.98060  0.82930  Biso   1.000  C
  C35      1.0000 0.17990  0.01940  0.32930  Biso   1.000  C
  C36      1.0000 0.82010  0.01940  0.17070  Biso   1.000  C
  H45      1.0000 0.83530  0.86510  0.64110  Biso   1.000  H
  H46      1.0000 0.16470  0.86510  0.85890  Biso   1.000  H
  H47      1.0000 0.16470  0.13490  0.35890  Biso   1.000  H
  H48      1.0000 0.83530  0.13490  0.14110  Biso   1.000  H
  H49      1.0000 0.90180  0.03550  0.69430  Biso   1.000  H
  H50      1.0000 0.09820  0.03550  0.80570  Biso   1.000  H
  H51      1.0000 0.09820  0.96450  0.30570  Biso   1.000  H
  H52      1.0000 0.90180  0.96450  0.19430  Biso   1.000  H
  N1       1.0000 0.69860  0.28400  0.64300  Biso   1.000  N
  N2       1.0000 0.30140  0.28400  0.85700  Biso   1.000  N
  N3       1.0000 0.30140  0.71600  0.35700  Biso   1.000  N
  N4       1.0000 0.69860  0.71600  0.14300  Biso   1.000  N
  O1       1.0000 0.76680  0.34200  0.82360  Biso   1.000  O
  O2       1.0000 0.23320  0.34200  0.67640  Biso   1.000  O
  O3       1.0000 0.23320  0.65800  0.17640  Biso   1.000  O
  O4       1.0000 0.76680  0.65800  0.32360  Biso   1.000  O
  O5       1.0000 0.86240  0.08000  0.88320  Biso   1.000  O
  O6       1.0000 0.13760  0.08000  0.61680  Biso   1.000  O
  O7       1.0000 0.13760  0.92000  0.11680  Biso   1.000  O
  O8       1.0000 0.86240  0.92000  0.38320  Biso   1.000  O
  O9       1.0000 0.50000  0.54330  0.75000  Biso   1.000  O
  O10      1.0000 0.50000  0.45670  0.25000  Biso   1.000  O
  O11      1.0000 0.47470  0.15370  0.67150  Biso   1.000  O
  O12      1.0000 0.52530  0.15370  0.82850  Biso   1.000  O
  O13      1.0000 0.52530  0.84630  0.32850  Biso   1.000  O
  O14      1.0000 0.47470  0.84630  0.17150  Biso   1.000  O
  O15      1.0000 0.75670  0.93050  0.73610  Biso   1.000  O
  O16      1.0000 0.24330  0.93050  0.76390  Biso   1.000  O
  O17      1.0000 0.24330  0.06950  0.26390  Biso   1.000  O
  O18      1.0000 0.75670  0.06950  0.23610  Biso   1.000  O
  Cu1      1.0000 0.62899  0.22762  0.74700  Biso   1.000  Cu
  Cu2      1.0000 0.37101  0.22762  0.75300  Biso   1.000  Cu
  Cu3      1.0000 0.37101  0.77238  0.25300  Biso   1.000  Cu
  Cu4      1.0000 0.62899  0.77238  0.24700  Biso   1.000  Cu
  H53      1.0000 0.42520  0.64720  0.72180  Biso   1.000  H
  H54      1.0000 0.57480  0.64720  0.77820  Biso   1.000  H
  H55      1.0000 0.57480  0.35280  0.27820  Biso   1.000  H
  H56      1.0000 0.42520  0.35280  0.22180  Biso   1.000  H
  H57      1.0000 0.81300  0.94800  0.79000  Biso   1.000  H
  H58      1.0000 0.18700  0.94800  0.71000  Biso   1.000  H
  H59      1.0000 0.18700  0.05200  0.21000  Biso   1.000  H
  H60      1.0000 0.81300  0.05200  0.29000  Biso   1.000  H
  O19      1.0000 0.39730  0.78580  0.62570  Biso   1.000  O
  O20      1.0000 0.60270  0.78580  0.87430  Biso   1.000  O
  O21      1.0000 0.60270  0.21420  0.37430  Biso   1.000  O
  O22      1.0000 0.39730  0.21420  0.12570  Biso   1.000  O
  H61      1.0000 0.40890  0.89610  0.65090  Biso   1.000  H
  H62      1.0000 0.59110  0.89610  0.84910  Biso   1.000  H
  H63      1.0000 0.59110  0.10390  0.34910  Biso   1.000  H
  H64      1.0000 0.40890  0.10390  0.15090  Biso   1.000  H
  H65      1.0000 0.31770  0.75950  0.62660  Biso   1.000  H
  H66      1.0000 0.68230  0.75950  0.87340  Biso   1.000  H
  H67      1.0000 0.68230  0.24050  0.37340  Biso   1.000  H
  H68      1.0000 0.31770  0.24050  0.12660  Biso   1.000  H
  C37      1.0000 0.57920  0.34800  0.58190  Biso   1.000  C
  C38      1.0000 0.42080  0.34800  0.91810  Biso   1.000  C
  C39      1.0000 0.42080  0.65200  0.41810  Biso   1.000  C
  C40      1.0000 0.57920  0.65200  0.08190  Biso   1.000  C
  H69      1.0000 0.56300  0.48280  0.59110  Biso   1.000  H
  H70      1.0000 0.43700  0.48280  0.90890  Biso   1.000  H
  H71      1.0000 0.43700  0.51720  0.40890  Biso   1.000  H
  H72      1.0000 0.56300  0.51720  0.09110  Biso   1.000  H
  H73      1.0000 0.59330  0.33460  0.52540  Biso   1.000  H
  H74      1.0000 0.40670  0.33460  0.97460  Biso   1.000  H
  H75      1.0000 0.40670  0.66540  0.47460  Biso   1.000  H
  H76      1.0000 0.59330  0.66540  0.02540  Biso   1.000  H
  C41      1.0000 0.74900  0.12000  0.61000  Biso   1.000  C
  C42      1.0000 0.25100  0.12000  0.89000  Biso   1.000  C
  C43      1.0000 0.25100  0.88000  0.39000  Biso   1.000  C
  C44      1.0000 0.74900  0.88000  0.11000  Biso   1.000  C
  H77      1.0000 0.80460  0.16350  0.57360  Biso   1.000  H
  H78      1.0000 0.19540  0.16350  0.92640  Biso   1.000  H
  H79      1.0000 0.19540  0.83650  0.42640  Biso   1.000  H
  H80      1.0000 0.80460  0.83650  0.07360  Biso   1.000  H
  H81      1.0000 0.67920  0.05240  0.57590  Biso   1.000  H
  H82      1.0000 0.32080  0.05240  0.92410  Biso   1.000  H
  H83      1.0000 0.32080  0.94760  0.42410  Biso   1.000  H
  H84      1.0000 0.67920  0.94760  0.07590  Biso   1.000  H
  C45      1.0000 0.78700  0.44400  0.64840  Biso   1.000  C
  C46      1.0000 0.21300  0.44400  0.85160  Biso   1.000  C
  C47      1.0000 0.21300  0.55600  0.35160  Biso   1.000  C
  C48      1.0000 0.78700  0.55600  0.14840  Biso   1.000  C
  H85      1.0000 0.85990  0.41780  0.69050  Biso   1.000  H
  H86      1.0000 0.14010  0.41780  0.80950  Biso   1.000  H
  H87      1.0000 0.14010  0.58220  0.30950  Biso   1.000  H
  H88      1.0000 0.85990  0.58220  0.19050  Biso   1.000  H
  H89      1.0000 0.74660  0.55890  0.66250  Biso   1.000  H
  H90      1.0000 0.25340  0.55890  0.83750  Biso   1.000  H
  H91      1.0000 0.25340  0.44110  0.33750  Biso   1.000  H
  H92      1.0000 0.74660  0.44110  0.16250  Biso   1.000  H
  H93      1.0000 0.81300  0.46090  0.59580  Biso   1.000  H
  H94      1.0000 0.18700  0.46090  0.90420  Biso   1.000  H
  H95      1.0000 0.18700  0.53910  0.40420  Biso   1.000  H
  H96      1.0000 0.81300  0.53910  0.09580  Biso   1.000  H
