data_image0
_cell_length_a       9.9893
_cell_length_b       22.732
_cell_length_c       15.015
_cell_angle_alpha    90
_cell_angle_beta     95.472
_cell_angle_gamma    90

_symmetry_space_group_name_H-M    "P 1"
_symmetry_int_tables_number       1

loop_
  _symmetry_equiv_pos_as_xyz
  'x, y, z'

loop_
  _atom_site_label
  _atom_site_occupancy
  _atom_site_fract_x
  _atom_site_fract_y
  _atom_site_fract_z
  _atom_site_thermal_displace_type
  _atom_site_B_iso_or_equiv
  _atom_site_type_symbol
  Cu1      1.0000 0.80855  0.15947  0.37279  Biso   1.000  Cu
  Cu2      1.0000 0.69145  0.65947  0.12721  Biso   1.000  Cu
  Cu3      1.0000 0.19145  0.84053  0.62721  Biso   1.000  Cu
  Cu4      1.0000 0.30855  0.34053  0.87279  Biso   1.000  Cu
  Cu5      1.0000 0.71212  0.07496  0.23820  Biso   1.000  Cu
  Cu6      1.0000 0.78788  0.57496  0.26180  Biso   1.000  Cu
  Cu7      1.0000 0.28788  0.92504  0.76180  Biso   1.000  Cu
  Cu8      1.0000 0.21212  0.42504  0.73820  Biso   1.000  Cu
  O1       1.0000 0.76460  0.23974  0.40910  Biso   1.000  O
  O2       1.0000 0.73540  0.73974  0.09090  Biso   1.000  O
  O3       1.0000 0.23540  0.76026  0.59090  Biso   1.000  O
  O4       1.0000 0.26460  0.26026  0.90910  Biso   1.000  O
  O5       1.0000 0.66450  0.22734  0.53550  Biso   1.000  O
  O6       1.0000 0.83550  0.72734  0.96450  Biso   1.000  O
  O7       1.0000 0.33550  0.77266  0.46450  Biso   1.000  O
  O8       1.0000 0.16450  0.27266  0.03550  Biso   1.000  O
  O9       1.0000 0.63980  0.13810  0.30650  Biso   1.000  O
  O10      1.0000 0.86020  0.63810  0.19350  Biso   1.000  O
  O11      1.0000 0.36020  0.86190  0.69350  Biso   1.000  O
  O12      1.0000 0.13980  0.36190  0.80650  Biso   1.000  O
  O13      1.0000 0.85980  0.08197  0.33140  Biso   1.000  O
  O14      1.0000 0.64020  0.58197  0.16860  Biso   1.000  O
  O15      1.0000 0.14020  0.91803  0.66860  Biso   1.000  O
  O16      1.0000 0.35980  0.41803  0.83140  Biso   1.000  O
  O17      1.0000 0.91550  0.21727  0.25000  Biso   1.000  O
  O18      1.0000 0.58450  0.71727  0.25000  Biso   1.000  O
  O19      1.0000 0.08450  0.78273  0.75000  Biso   1.000  O
  O20      1.0000 0.41550  0.28273  0.75000  Biso   1.000  O
  H1       1.0000 0.87130  0.24950  0.25510  Biso   1.000  H
  H2       1.0000 0.62870  0.74950  0.24490  Biso   1.000  H
  H3       1.0000 0.12870  0.75050  0.74490  Biso   1.000  H
  H4       1.0000 0.37130  0.25050  0.75510  Biso   1.000  H
  O21      1.0000 0.79720  0.12548  0.52740  Biso   1.000  O
  O22      1.0000 0.70280  0.62548  0.97260  Biso   1.000  O
  O23      1.0000 0.20280  0.87452  0.47260  Biso   1.000  O
  O24      1.0000 0.29720  0.37452  0.02740  Biso   1.000  O
  H5       1.0000 0.74890  0.15760  0.54130  Biso   1.000  H
  H6       1.0000 0.75110  0.65760  0.95870  Biso   1.000  H
  H7       1.0000 0.25110  0.84240  0.45870  Biso   1.000  H
  H8       1.0000 0.24890  0.34240  0.04130  Biso   1.000  H
  O25      1.0000 0.80620  0.13544  0.13300  Biso   1.000  O
  O26      1.0000 0.69380  0.63544  0.36700  Biso   1.000  O
  O27      1.0000 0.19380  0.86456  0.86700  Biso   1.000  O
  O28      1.0000 0.30620  0.36456  0.63300  Biso   1.000  O
  H9       1.0000 0.87310  0.15940  0.13230  Biso   1.000  H
  H10      1.0000 0.62690  0.65940  0.36770  Biso   1.000  H
  H11      1.0000 0.12690  0.84060  0.86770  Biso   1.000  H
  H12      1.0000 0.37310  0.34060  0.63230  Biso   1.000  H
  O29      1.0000 0.72230  0.51049  0.33460  Biso   1.000  O
  O30      1.0000 0.77770  0.01049  0.16540  Biso   1.000  O
  O31      1.0000 0.27770  0.48951  0.66540  Biso   1.000  O
  O32      1.0000 0.22230  0.98951  0.83460  Biso   1.000  O
  O33      1.0000 0.78110  0.42927  0.26350  Biso   1.000  O
  O34      1.0000 0.71890  0.92927  0.23650  Biso   1.000  O
  O35      1.0000 0.21890  0.57073  0.73650  Biso   1.000  O
  O36      1.0000 0.28110  0.07073  0.76350  Biso   1.000  O
  N1       1.0000 0.00500  0.16706  0.42240  Biso   1.000  N
  N2       1.0000 0.49500  0.66706  0.07760  Biso   1.000  N
  N3       1.0000 0.99500  0.83294  0.57760  Biso   1.000  N
  N4       1.0000 0.50500  0.33294  0.92240  Biso   1.000  N
  N5       1.0000 0.54870  0.08940  0.14710  Biso   1.000  N
  N6       1.0000 0.95130  0.58940  0.35290  Biso   1.000  N
  N7       1.0000 0.45130  0.91060  0.85290  Biso   1.000  N
  N8       1.0000 0.04870  0.41060  0.64710  Biso   1.000  N
  C1       1.0000 0.70390  0.25850  0.47420  Biso   1.000  C
  C2       1.0000 0.79610  0.75850  0.02580  Biso   1.000  C
  C3       1.0000 0.29610  0.74150  0.52580  Biso   1.000  C
  C4       1.0000 0.20390  0.24150  0.97420  Biso   1.000  C
  C5       1.0000 0.67940  0.32390  0.47530  Biso   1.000  C
  C6       1.0000 0.82060  0.82390  0.02470  Biso   1.000  C
  C7       1.0000 0.32060  0.67610  0.52470  Biso   1.000  C
  C8       1.0000 0.17940  0.17610  0.97530  Biso   1.000  C
  C9       1.0000 0.61920  0.34990  0.54510  Biso   1.000  C
  C10      1.0000 0.88080  0.84990  0.95490  Biso   1.000  C
  C11      1.0000 0.38080  0.65010  0.45490  Biso   1.000  C
  C12      1.0000 0.11920  0.15010  0.04510  Biso   1.000  C
  H13      1.0000 0.59360  0.32640  0.59290  Biso   1.000  H
  H14      1.0000 0.90640  0.82640  0.90710  Biso   1.000  H
  H15      1.0000 0.40640  0.67360  0.40710  Biso   1.000  H
  H16      1.0000 0.09360  0.17360  0.09290  Biso   1.000  H
  C13      1.0000 0.59630  0.41070  0.54530  Biso   1.000  C
  C14      1.0000 0.90370  0.91070  0.95470  Biso   1.000  C
  C15      1.0000 0.40370  0.58930  0.45470  Biso   1.000  C
  C16      1.0000 0.09630  0.08930  0.04530  Biso   1.000  C
  H17      1.0000 0.55600  0.42860  0.59330  Biso   1.000  H
  H18      1.0000 0.94400  0.92860  0.90670  Biso   1.000  H
  H19      1.0000 0.44400  0.57140  0.40670  Biso   1.000  H
  H20      1.0000 0.05600  0.07140  0.09330  Biso   1.000  H
  C17      1.0000 0.63320  0.44470  0.47420  Biso   1.000  C
  C18      1.0000 0.86680  0.94470  0.02580  Biso   1.000  C
  C19      1.0000 0.36680  0.55530  0.52580  Biso   1.000  C
  C20      1.0000 0.13320  0.05530  0.97420  Biso   1.000  C
  H21      1.0000 0.61770  0.48590  0.47390  Biso   1.000  H
  H22      1.0000 0.88230  0.98590  0.02610  Biso   1.000  H
  H23      1.0000 0.38230  0.51410  0.52610  Biso   1.000  H
  H24      1.0000 0.11770  0.01410  0.97390  Biso   1.000  H
  C21      1.0000 0.69220  0.41880  0.40390  Biso   1.000  C
  C22      1.0000 0.80780  0.91880  0.09610  Biso   1.000  C
  C23      1.0000 0.30780  0.58120  0.59610  Biso   1.000  C
  C24      1.0000 0.19220  0.08120  0.90390  Biso   1.000  C
  C25      1.0000 0.71510  0.35840  0.40460  Biso   1.000  C
  C26      1.0000 0.78490  0.85840  0.09540  Biso   1.000  C
  C27      1.0000 0.28490  0.64160  0.59540  Biso   1.000  C
  C28      1.0000 0.21510  0.14160  0.90460  Biso   1.000  C
  H25      1.0000 0.75540  0.34060  0.35660  Biso   1.000  H
  H26      1.0000 0.74460  0.84060  0.14340  Biso   1.000  H
  H27      1.0000 0.24460  0.65940  0.64340  Biso   1.000  H
  H28      1.0000 0.25540  0.15940  0.85660  Biso   1.000  H
  C29      1.0000 0.06620  0.22090  0.38650  Biso   1.000  C
  C30      1.0000 0.43380  0.72090  0.11350  Biso   1.000  C
  C31      1.0000 0.93380  0.77910  0.61350  Biso   1.000  C
  C32      1.0000 0.56620  0.27910  0.88650  Biso   1.000  C
  H29      1.0000 0.02410  0.25580  0.41150  Biso   1.000  H
  H30      1.0000 0.47590  0.75580  0.08850  Biso   1.000  H
  H31      1.0000 0.97590  0.74420  0.58850  Biso   1.000  H
  H32      1.0000 0.52410  0.24420  0.91150  Biso   1.000  H
  H33      1.0000 0.16300  0.22160  0.40790  Biso   1.000  H
  H34      1.0000 0.33700  0.72160  0.09210  Biso   1.000  H
  H35      1.0000 0.83700  0.77840  0.59210  Biso   1.000  H
  H36      1.0000 0.66300  0.27840  0.90790  Biso   1.000  H
  C33      1.0000 0.05270  0.22590  0.28760  Biso   1.000  C
  C34      1.0000 0.44730  0.72590  0.21240  Biso   1.000  C
  C35      1.0000 0.94730  0.77410  0.71240  Biso   1.000  C
  C36      1.0000 0.55270  0.27410  0.78760  Biso   1.000  C
  H37      1.0000 0.10770  0.19360  0.26420  Biso   1.000  H
  H38      1.0000 0.39230  0.69360  0.23580  Biso   1.000  H
  H39      1.0000 0.89230  0.80640  0.73580  Biso   1.000  H
  H40      1.0000 0.60770  0.30640  0.76420  Biso   1.000  H
  C37      1.0000 0.10840  0.28360  0.25640  Biso   1.000  C
  C38      1.0000 0.39160  0.78360  0.24360  Biso   1.000  C
  C39      1.0000 0.89160  0.71640  0.74360  Biso   1.000  C
  C40      1.0000 0.60840  0.21640  0.75640  Biso   1.000  C
  H41      1.0000 0.10400  0.28390  0.19100  Biso   1.000  H
  H42      1.0000 0.39600  0.78390  0.30900  Biso   1.000  H
  H43      1.0000 0.89600  0.71610  0.80900  Biso   1.000  H
  H44      1.0000 0.60400  0.21610  0.69100  Biso   1.000  H
  H45      1.0000 0.20210  0.28790  0.28140  Biso   1.000  H
  H46      1.0000 0.29790  0.78790  0.21860  Biso   1.000  H
  H47      1.0000 0.79790  0.71210  0.71860  Biso   1.000  H
  H48      1.0000 0.70210  0.21210  0.78140  Biso   1.000  H
  H49      1.0000 0.05500  0.31630  0.27680  Biso   1.000  H
  H50      1.0000 0.44500  0.81630  0.22320  Biso   1.000  H
  H51      1.0000 0.94500  0.68370  0.72320  Biso   1.000  H
  H52      1.0000 0.55500  0.18370  0.77680  Biso   1.000  H
  C41      1.0000 0.01200  0.17500  0.52170  Biso   1.000  C
  C42      1.0000 0.48800  0.67500  0.97830  Biso   1.000  C
  C43      1.0000 0.98800  0.82500  0.47830  Biso   1.000  C
  C44      1.0000 0.51200  0.32500  0.02170  Biso   1.000  C
  H53      1.0000 0.97870  0.21480  0.53480  Biso   1.000  H
  H54      1.0000 0.52130  0.71480  0.96520  Biso   1.000  H
  H55      1.0000 0.02130  0.78520  0.46520  Biso   1.000  H
  H56      1.0000 0.47870  0.28520  0.03480  Biso   1.000  H
  H57      1.0000 0.10720  0.17260  0.54670  Biso   1.000  H
  H58      1.0000 0.39280  0.67260  0.95330  Biso   1.000  H
  H59      1.0000 0.89280  0.82740  0.45330  Biso   1.000  H
  H60      1.0000 0.60720  0.32740  0.04670  Biso   1.000  H
  C45      1.0000 0.93120  0.12990  0.56800  Biso   1.000  C
  C46      1.0000 0.56880  0.62990  0.93200  Biso   1.000  C
  C47      1.0000 0.06880  0.87010  0.43200  Biso   1.000  C
  C48      1.0000 0.43120  0.37010  0.06800  Biso   1.000  C
  H61      1.0000 0.97530  0.09080  0.56200  Biso   1.000  H
  H62      1.0000 0.52470  0.59080  0.93800  Biso   1.000  H
  H63      1.0000 0.02470  0.90920  0.43800  Biso   1.000  H
  H64      1.0000 0.47530  0.40920  0.06200  Biso   1.000  H
  C49      1.0000 0.93290  0.14330  0.66700  Biso   1.000  C
  C50      1.0000 0.56710  0.64330  0.83300  Biso   1.000  C
  C51      1.0000 0.06710  0.85670  0.33300  Biso   1.000  C
  C52      1.0000 0.43290  0.35670  0.16700  Biso   1.000  C
  H65      1.0000 0.89420  0.18230  0.67500  Biso   1.000  H
  H66      1.0000 0.60580  0.68230  0.82500  Biso   1.000  H
  H67      1.0000 0.10580  0.81770  0.32500  Biso   1.000  H
  H68      1.0000 0.39420  0.31770  0.17500  Biso   1.000  H
  H69      1.0000 0.02580  0.14250  0.69470  Biso   1.000  H
  H70      1.0000 0.47420  0.64250  0.80530  Biso   1.000  H
  H71      1.0000 0.97420  0.85750  0.30530  Biso   1.000  H
  H72      1.0000 0.52580  0.35750  0.19470  Biso   1.000  H
  H73      1.0000 0.87970  0.11360  0.69540  Biso   1.000  H
  H74      1.0000 0.62030  0.61360  0.80460  Biso   1.000  H
  H75      1.0000 0.12030  0.88640  0.30460  Biso   1.000  H
  H76      1.0000 0.37970  0.38640  0.19540  Biso   1.000  H
  C53      1.0000 0.07290  0.11200  0.39890  Biso   1.000  C
  C54      1.0000 0.42710  0.61200  0.10110  Biso   1.000  C
  C55      1.0000 0.92710  0.88800  0.60110  Biso   1.000  C
  C56      1.0000 0.57290  0.38800  0.89890  Biso   1.000  C
  H77      1.0000 0.07910  0.08510  0.45100  Biso   1.000  H
  H78      1.0000 0.42090  0.58510  0.04900  Biso   1.000  H
  H79      1.0000 0.92090  0.91490  0.54900  Biso   1.000  H
  H80      1.0000 0.57910  0.41490  0.95100  Biso   1.000  H
  H81      1.0000 0.16550  0.12120  0.38510  Biso   1.000  H
  H82      1.0000 0.33450  0.62120  0.11490  Biso   1.000  H
  H83      1.0000 0.83450  0.87880  0.61490  Biso   1.000  H
  H84      1.0000 0.66550  0.37880  0.88510  Biso   1.000  H
  C57      1.0000 0.99830  0.08110  0.31880  Biso   1.000  C
  C58      1.0000 0.50170  0.58110  0.18120  Biso   1.000  C
  C59      1.0000 0.00170  0.91890  0.68120  Biso   1.000  C
  C60      1.0000 0.49830  0.41890  0.81880  Biso   1.000  C
  H85      1.0000 0.01230  0.10400  0.26350  Biso   1.000  H
  H86      1.0000 0.48770  0.60400  0.23650  Biso   1.000  H
  H87      1.0000 0.98770  0.89600  0.73650  Biso   1.000  H
  H88      1.0000 0.51230  0.39600  0.76350  Biso   1.000  H
  C61      1.0000 0.05250  0.02020  0.30910  Biso   1.000  C
  C62      1.0000 0.44750  0.52020  0.19090  Biso   1.000  C
  C63      1.0000 0.94750  0.97980  0.69090  Biso   1.000  C
  C64      1.0000 0.55250  0.47980  0.80910  Biso   1.000  C
  H89      1.0000 0.03480  0.99660  0.36130  Biso   1.000  H
  H90      1.0000 0.46520  0.49660  0.13870  Biso   1.000  H
  H91      1.0000 0.96520  0.00340  0.63870  Biso   1.000  H
  H92      1.0000 0.53480  0.50340  0.86130  Biso   1.000  H
  H93      1.0000 0.14970  0.02220  0.30480  Biso   1.000  H
  H94      1.0000 0.35030  0.52220  0.19520  Biso   1.000  H
  H95      1.0000 0.85030  0.97780  0.69520  Biso   1.000  H
  H96      1.0000 0.64970  0.47780  0.80480  Biso   1.000  H
  H97      1.0000 0.00850  0.00200  0.25480  Biso   1.000  H
  H98      1.0000 0.49150  0.50200  0.24520  Biso   1.000  H
  H99      1.0000 0.99150  0.99800  0.74520  Biso   1.000  H
  H100     1.0000 0.50850  0.49800  0.75480  Biso   1.000  H
  C65      1.0000 0.55710  0.17730  0.25120  Biso   1.000  C
  C66      1.0000 0.94290  0.67730  0.24880  Biso   1.000  C
  C67      1.0000 0.44290  0.82270  0.74880  Biso   1.000  C
  C68      1.0000 0.05710  0.32270  0.75120  Biso   1.000  C
  H101     1.0000 0.61550  0.20440  0.21950  Biso   1.000  H
  H102     1.0000 0.88450  0.70440  0.28050  Biso   1.000  H
  H103     1.0000 0.38450  0.79560  0.78050  Biso   1.000  H
  H104     1.0000 0.11550  0.29560  0.71950  Biso   1.000  H
  C69      1.0000 0.46460  0.21310  0.30390  Biso   1.000  C
  C70      1.0000 0.03540  0.71310  0.19610  Biso   1.000  C
  C71      1.0000 0.53540  0.78690  0.69610  Biso   1.000  C
  C72      1.0000 0.96460  0.28690  0.80390  Biso   1.000  C
  H105     1.0000 0.42080  0.18720  0.34440  Biso   1.000  H
  H106     1.0000 0.07920  0.68720  0.15560  Biso   1.000  H
  H107     1.0000 0.57920  0.81280  0.65560  Biso   1.000  H
  H108     1.0000 0.92080  0.31280  0.84440  Biso   1.000  H
  H109     1.0000 0.39610  0.23220  0.26260  Biso   1.000  H
  H110     1.0000 0.10390  0.73220  0.23740  Biso   1.000  H
  H111     1.0000 0.60390  0.76780  0.73740  Biso   1.000  H
  H112     1.0000 0.89610  0.26780  0.76260  Biso   1.000  H
  H113     1.0000 0.51690  0.24310  0.33870  Biso   1.000  H
  H114     1.0000 0.98310  0.74310  0.16130  Biso   1.000  H
  H115     1.0000 0.48310  0.75690  0.66130  Biso   1.000  H
  H116     1.0000 0.01690  0.25690  0.83870  Biso   1.000  H
  C73      1.0000 0.47180  0.13990  0.18200  Biso   1.000  C
  C74      1.0000 0.02820  0.63990  0.31800  Biso   1.000  C
  C75      1.0000 0.52820  0.86010  0.81800  Biso   1.000  C
  C76      1.0000 0.97180  0.36010  0.68200  Biso   1.000  C
  H117     1.0000 0.39310  0.12430  0.20970  Biso   1.000  H
  H118     1.0000 0.10690  0.62430  0.29030  Biso   1.000  H
  H119     1.0000 0.60690  0.87570  0.79030  Biso   1.000  H
  H120     1.0000 0.89310  0.37570  0.70970  Biso   1.000  H
  H121     1.0000 0.43790  0.16530  0.13120  Biso   1.000  H
  H122     1.0000 0.06210  0.66530  0.36880  Biso   1.000  H
  H123     1.0000 0.56210  0.83470  0.86880  Biso   1.000  H
  H124     1.0000 0.93790  0.33470  0.63120  Biso   1.000  H
  C77      1.0000 0.70490  0.15090  0.06210  Biso   1.000  C
  C78      1.0000 0.79510  0.65090  0.43790  Biso   1.000  C
  C79      1.0000 0.29510  0.84910  0.93790  Biso   1.000  C
  C80      1.0000 0.20490  0.34910  0.56210  Biso   1.000  C
  H125     1.0000 0.66340  0.18950  0.07560  Biso   1.000  H
  H126     1.0000 0.83660  0.68950  0.42440  Biso   1.000  H
  H127     1.0000 0.33660  0.81050  0.92440  Biso   1.000  H
  H128     1.0000 0.16340  0.31050  0.57560  Biso   1.000  H
  C81      1.0000 0.76800  0.15470  0.97370  Biso   1.000  C
  C82      1.0000 0.73200  0.65470  0.52630  Biso   1.000  C
  C83      1.0000 0.23200  0.84530  0.02630  Biso   1.000  C
  C84      1.0000 0.26800  0.34530  0.47370  Biso   1.000  C
  H129     1.0000 0.83090  0.18790  0.97580  Biso   1.000  H
  H130     1.0000 0.66910  0.68790  0.52420  Biso   1.000  H
  H131     1.0000 0.16910  0.81210  0.02420  Biso   1.000  H
  H132     1.0000 0.33090  0.31210  0.47580  Biso   1.000  H
  H133     1.0000 0.69720  0.16060  0.92470  Biso   1.000  H
  H134     1.0000 0.80280  0.66060  0.57530  Biso   1.000  H
  H135     1.0000 0.30280  0.83940  0.07530  Biso   1.000  H
  H136     1.0000 0.19720  0.33940  0.42470  Biso   1.000  H
  H137     1.0000 0.81640  0.11810  0.96380  Biso   1.000  H
  H138     1.0000 0.68360  0.61810  0.53620  Biso   1.000  H
  H139     1.0000 0.18360  0.88190  0.03620  Biso   1.000  H
  H140     1.0000 0.31640  0.38190  0.46380  Biso   1.000  H
  C85      1.0000 0.60040  0.10320  0.05910  Biso   1.000  C
  C86      1.0000 0.89960  0.60320  0.44090  Biso   1.000  C
  C87      1.0000 0.39960  0.89680  0.94090  Biso   1.000  C
  C88      1.0000 0.10040  0.39680  0.55910  Biso   1.000  C
  H141     1.0000 0.52350  0.11500  0.01630  Biso   1.000  H
  H142     1.0000 0.97650  0.61500  0.48370  Biso   1.000  H
  H143     1.0000 0.47650  0.88500  0.98370  Biso   1.000  H
  H144     1.0000 0.02350  0.38500  0.51630  Biso   1.000  H
  H145     1.0000 0.63910  0.06690  0.03570  Biso   1.000  H
  H146     1.0000 0.86090  0.56690  0.46430  Biso   1.000  H
  H147     1.0000 0.36090  0.93310  0.96430  Biso   1.000  H
  H148     1.0000 0.13910  0.43310  0.53570  Biso   1.000  H
  C89      1.0000 0.46430  0.04080  0.12780  Biso   1.000  C
  C90      1.0000 0.03570  0.54080  0.37220  Biso   1.000  C
  C91      1.0000 0.53570  0.95920  0.87220  Biso   1.000  C
  C92      1.0000 0.96430  0.45920  0.62780  Biso   1.000  C
  H149     1.0000 0.51210  0.01050  0.09560  Biso   1.000  H
  H150     1.0000 0.98790  0.51050  0.40440  Biso   1.000  H
  H151     1.0000 0.48790  0.98950  0.90440  Biso   1.000  H
  H152     1.0000 0.01210  0.48950  0.59560  Biso   1.000  H
  H153     1.0000 0.38330  0.05310  0.08920  Biso   1.000  H
  H154     1.0000 0.11670  0.55310  0.41080  Biso   1.000  H
  H155     1.0000 0.61670  0.94690  0.91080  Biso   1.000  H
  H156     1.0000 0.88330  0.44690  0.58920  Biso   1.000  H
  C93      1.0000 0.42320  0.01530  0.21560  Biso   1.000  C
  C94      1.0000 0.07680  0.51530  0.28440  Biso   1.000  C
  C95      1.0000 0.57680  0.98470  0.78440  Biso   1.000  C
  C96      1.0000 0.92320  0.48470  0.71560  Biso   1.000  C
  H157     1.0000 0.35550  0.04250  0.23830  Biso   1.000  H
  H158     1.0000 0.14450  0.54250  0.26170  Biso   1.000  H
  H159     1.0000 0.64450  0.95750  0.76170  Biso   1.000  H
  H160     1.0000 0.85550  0.45750  0.73830  Biso   1.000  H
  C97      1.0000 0.35730  0.95450  0.20220  Biso   1.000  C
  C98      1.0000 0.14270  0.45450  0.29780  Biso   1.000  C
  C99      1.0000 0.64270  0.04550  0.79780  Biso   1.000  C
  C100     1.0000 0.85730  0.54550  0.70220  Biso   1.000  C
  H161     1.0000 0.41960  0.92760  0.17610  Biso   1.000  H
  H162     1.0000 0.08040  0.42760  0.32390  Biso   1.000  H
  H163     1.0000 0.58040  0.07240  0.82390  Biso   1.000  H
  H164     1.0000 0.91960  0.57240  0.67610  Biso   1.000  H
  H165     1.0000 0.27450  0.95790  0.16200  Biso   1.000  H
  H166     1.0000 0.22550  0.45790  0.33800  Biso   1.000  H
  H167     1.0000 0.72550  0.04210  0.83800  Biso   1.000  H
  H168     1.0000 0.77450  0.54210  0.66200  Biso   1.000  H
  H169     1.0000 0.33590  0.93900  0.26010  Biso   1.000  H
  H170     1.0000 0.16410  0.43900  0.23990  Biso   1.000  H
  H171     1.0000 0.66410  0.06100  0.73990  Biso   1.000  H
  H172     1.0000 0.83590  0.56100  0.76010  Biso   1.000  H
  O37      1.0000 0.53380  0.01040  0.28330  Biso   1.000  O
  O38      1.0000 0.96620  0.51040  0.21670  Biso   1.000  O
  O39      1.0000 0.46620  0.98960  0.71670  Biso   1.000  O
  O40      1.0000 0.03380  0.48960  0.78330  Biso   1.000  O
  H173     1.0000 0.58580  0.97820  0.26720  Biso   1.000  H
  H174     1.0000 0.91420  0.47820  0.23280  Biso   1.000  H
  H175     1.0000 0.41420  0.02180  0.73280  Biso   1.000  H
  H176     1.0000 0.08580  0.52180  0.76720  Biso   1.000  H
  C101     1.0000 0.73410  0.45520  0.32730  Biso   1.000  C
  C102     1.0000 0.76590  0.95520  0.17270  Biso   1.000  C
  C103     1.0000 0.26590  0.54480  0.67270  Biso   1.000  C
  C104     1.0000 0.23410  0.04480  0.82730  Biso   1.000  C
  O41      1.0000 0.40880  0.07810  0.44360  Biso   1.000  O
  O42      1.0000 0.09120  0.57810  0.05640  Biso   1.000  O
  O43      1.0000 0.59120  0.92190  0.55640  Biso   1.000  O
  O44      1.0000 0.90880  0.42190  0.94360  Biso   1.000  O
  H177     1.0000 0.37340  0.04280  0.45890  Biso   1.000  H
  H178     1.0000 0.12660  0.54280  0.04110  Biso   1.000  H
  H179     1.0000 0.62660  0.95720  0.54110  Biso   1.000  H
  H180     1.0000 0.87340  0.45720  0.95890  Biso   1.000  H
  H181     1.0000 0.44860  0.07160  0.39970  Biso   1.000  H
  H182     1.0000 0.05140  0.57160  0.10030  Biso   1.000  H
  H183     1.0000 0.55140  0.92840  0.60030  Biso   1.000  H
  H184     1.0000 0.94860  0.42840  0.89970  Biso   1.000  H
  O45      1.0000 0.39390  0.18320  0.52980  Biso   1.000  O
  O46      1.0000 0.10610  0.68320  0.97020  Biso   1.000  O
  O47      1.0000 0.60610  0.81680  0.47020  Biso   1.000  O
  O48      1.0000 0.89390  0.31680  0.02980  Biso   1.000  O
  H185     1.0000 0.43520  0.14820  0.53330  Biso   1.000  H
  H186     1.0000 0.06480  0.64820  0.96670  Biso   1.000  H
  H187     1.0000 0.56480  0.85180  0.46670  Biso   1.000  H
  H188     1.0000 0.93520  0.35180  0.03330  Biso   1.000  H
  H189     1.0000 0.44800  0.19790  0.49180  Biso   1.000  H
  H190     1.0000 0.05200  0.69790  0.00820  Biso   1.000  H
  H191     1.0000 0.55200  0.80210  0.50820  Biso   1.000  H
  H192     1.0000 0.94800  0.30210  0.99180  Biso   1.000  H
  O49      1.0000 0.28970  0.18444  0.68980  Biso   1.000  O
  O50      1.0000 0.21030  0.68444  0.81020  Biso   1.000  O
  O51      1.0000 0.71030  0.81556  0.31020  Biso   1.000  O
  O52      1.0000 0.78970  0.31556  0.18980  Biso   1.000  O
  H193     1.0000 0.34480  0.19030  0.64220  Biso   1.000  H
  H194     1.0000 0.15520  0.69030  0.85780  Biso   1.000  H
  H195     1.0000 0.65520  0.80970  0.35780  Biso   1.000  H
  H196     1.0000 0.84480  0.30970  0.14220  Biso   1.000  H
  H197     1.0000 0.27560  0.14720  0.68620  Biso   1.000  H
  H198     1.0000 0.22440  0.64720  0.81380  Biso   1.000  H
  H199     1.0000 0.72440  0.85280  0.31380  Biso   1.000  H
  H200     1.0000 0.77560  0.35280  0.18620  Biso   1.000  H
  O53      1.0000 0.20980  0.00070  0.54200  Biso   1.000  O
  O54      1.0000 0.29020  0.50070  0.95800  Biso   1.000  O
  O55      1.0000 0.79020  0.99930  0.45800  Biso   1.000  O
  O56      1.0000 0.70980  0.49930  0.04200  Biso   1.000  O
  H201     1.0000 0.20550  0.97110  0.57640  Biso   1.000  H
  H202     1.0000 0.29450  0.47110  0.92360  Biso   1.000  H
  H203     1.0000 0.79450  0.02890  0.42360  Biso   1.000  H
  H204     1.0000 0.70550  0.52890  0.07640  Biso   1.000  H
  H205     1.0000 0.26490  0.02210  0.51550  Biso   1.000  H
  H206     1.0000 0.23510  0.52210  0.98450  Biso   1.000  H
  H207     1.0000 0.73510  0.97790  0.48450  Biso   1.000  H
  H208     1.0000 0.76490  0.47790  0.01550  Biso   1.000  H
  O57      1.0000 0.35790  0.97480  0.50040  Biso   1.000  O
  O58      1.0000 0.14210  0.47480  0.99960  Biso   1.000  O
  O59      1.0000 0.64210  0.02520  0.49960  Biso   1.000  O
  O60      1.0000 0.85790  0.52520  0.00040  Biso   1.000  O
  H209     1.0000 0.32470  0.93790  0.47330  Biso   1.000  H
  H210     1.0000 0.17530  0.43790  0.02670  Biso   1.000  H
  H211     1.0000 0.67530  0.06210  0.52670  Biso   1.000  H
  H212     1.0000 0.82470  0.56210  0.97330  Biso   1.000  H
  H213     1.0000 0.44860  0.96670  0.53280  Biso   1.000  H
  H214     1.0000 0.05140  0.46670  0.96720  Biso   1.000  H
  H215     1.0000 0.55140  0.03330  0.46720  Biso   1.000  H
  H216     1.0000 0.94860  0.53330  0.03280  Biso   1.000  H
  C105     1.0000 0.46400  0.02850  0.16250  Biso   1.000  C
  C106     1.0000 0.03600  0.52850  0.33750  Biso   1.000  C
  C107     1.0000 0.53600  0.97150  0.83750  Biso   1.000  C
  C108     1.0000 0.96400  0.47150  0.66250  Biso   1.000  C
  H217     1.0000 0.37300  0.03360  0.13140  Biso   1.000  H
  H218     1.0000 0.12700  0.53360  0.36860  Biso   1.000  H
  H219     1.0000 0.62700  0.96640  0.86860  Biso   1.000  H
  H220     1.0000 0.87300  0.46640  0.63140  Biso   1.000  H
  H221     1.0000 0.50780  0.99640  0.13130  Biso   1.000  H
  H222     1.0000 0.99220  0.49640  0.36870  Biso   1.000  H
  H223     1.0000 0.49220  0.00360  0.86870  Biso   1.000  H
  H224     1.0000 0.00780  0.50360  0.63130  Biso   1.000  H
  C109     1.0000 0.44700  0.00690  0.25620  Biso   1.000  C
  C110     1.0000 0.05300  0.50690  0.24380  Biso   1.000  C
  C111     1.0000 0.55300  0.99310  0.74380  Biso   1.000  C
  C112     1.0000 0.94700  0.49310  0.75620  Biso   1.000  C
  H225     1.0000 0.38910  0.03570  0.28510  Biso   1.000  H
  H226     1.0000 0.11090  0.53570  0.21490  Biso   1.000  H
  H227     1.0000 0.61090  0.96430  0.71490  Biso   1.000  H
  H228     1.0000 0.88910  0.46430  0.78510  Biso   1.000  H
  C113     1.0000 0.38100  0.94620  0.25800  Biso   1.000  C
  C114     1.0000 0.11900  0.44620  0.24200  Biso   1.000  C
  C115     1.0000 0.61900  0.05380  0.74200  Biso   1.000  C
  C116     1.0000 0.88100  0.55380  0.75800  Biso   1.000  C
  H229     1.0000 0.42850  0.91840  0.22290  Biso   1.000  H
  H230     1.0000 0.07150  0.41840  0.27710  Biso   1.000  H
  H231     1.0000 0.57150  0.08160  0.77710  Biso   1.000  H
  H232     1.0000 0.92850  0.58160  0.72290  Biso   1.000  H
  H233     1.0000 0.28660  0.94900  0.23320  Biso   1.000  H
  H234     1.0000 0.21340  0.44900  0.26680  Biso   1.000  H
  H235     1.0000 0.71340  0.05100  0.76680  Biso   1.000  H
  H236     1.0000 0.78660  0.55100  0.73320  Biso   1.000  H
  H237     1.0000 0.38410  0.93230  0.32030  Biso   1.000  H
  H238     1.0000 0.11590  0.43230  0.17970  Biso   1.000  H
  H239     1.0000 0.61590  0.06770  0.67970  Biso   1.000  H
  H240     1.0000 0.88410  0.56770  0.82030  Biso   1.000  H
  O61      1.0000 0.57820  0.00230  0.31240  Biso   1.000  O
  O62      1.0000 0.92180  0.50230  0.18760  Biso   1.000  O
  O63      1.0000 0.42180  0.99770  0.68760  Biso   1.000  O
  O64      1.0000 0.07820  0.49770  0.81240  Biso   1.000  O
  H241     1.0000 0.61510  0.96690  0.29010  Biso   1.000  H
  H242     1.0000 0.88490  0.46690  0.20990  Biso   1.000  H
  H243     1.0000 0.38490  0.03310  0.70990  Biso   1.000  H
  H244     1.0000 0.11510  0.53310  0.79010  Biso   1.000  H
