data_image0
_cell_length_a       13.8183
_cell_length_b       13.5374
_cell_length_c       25.9622
_cell_angle_alpha    90
_cell_angle_beta     90
_cell_angle_gamma    90

_symmetry_space_group_name_H-M    "P 1"
_symmetry_int_tables_number       1

loop_
  _symmetry_equiv_pos_as_xyz
  'x, y, z'

loop_
  _atom_site_label
  _atom_site_occupancy
  _atom_site_fract_x
  _atom_site_fract_y
  _atom_site_fract_z
  _atom_site_thermal_displace_type
  _atom_site_B_iso_or_equiv
  _atom_site_type_symbol
  C1       1.0000 0.27598  0.27380  0.97239  Biso   1.000  C
  C2       1.0000 0.22402  0.72620  0.47239  Biso   1.000  C
  C3       1.0000 0.77598  0.22620  0.02761  Biso   1.000  C
  C4       1.0000 0.72402  0.77380  0.52761  Biso   1.000  C
  C5       1.0000 0.72402  0.72620  0.02761  Biso   1.000  C
  C6       1.0000 0.77598  0.27380  0.52761  Biso   1.000  C
  C7       1.0000 0.22402  0.77380  0.97239  Biso   1.000  C
  C8       1.0000 0.27598  0.22620  0.47239  Biso   1.000  C
  C9       1.0000 0.28167  0.31620  0.91868  Biso   1.000  C
  C10      1.0000 0.21833  0.68380  0.41868  Biso   1.000  C
  C11      1.0000 0.78167  0.18380  0.08132  Biso   1.000  C
  C12      1.0000 0.71833  0.81620  0.58132  Biso   1.000  C
  C13      1.0000 0.71833  0.68380  0.08132  Biso   1.000  C
  C14      1.0000 0.78167  0.31620  0.58132  Biso   1.000  C
  C15      1.0000 0.21833  0.81620  0.91868  Biso   1.000  C
  C16      1.0000 0.28167  0.18380  0.41868  Biso   1.000  C
  C17      1.0000 0.26262  0.41530  0.90908  Biso   1.000  C
  C18      1.0000 0.23738  0.58470  0.40908  Biso   1.000  C
  C19      1.0000 0.76262  0.08470  0.09092  Biso   1.000  C
  C20      1.0000 0.73738  0.91530  0.59092  Biso   1.000  C
  C21      1.0000 0.73738  0.58470  0.09092  Biso   1.000  C
  C22      1.0000 0.76262  0.41530  0.59092  Biso   1.000  C
  C23      1.0000 0.23738  0.91530  0.90908  Biso   1.000  C
  C24      1.0000 0.26262  0.08470  0.40908  Biso   1.000  C
  H1       1.0000 0.24590  0.45810  0.93670  Biso   1.000  H
  H2       1.0000 0.25410  0.54190  0.43670  Biso   1.000  H
  H3       1.0000 0.74590  0.04190  0.06330  Biso   1.000  H
  H4       1.0000 0.75410  0.95810  0.56330  Biso   1.000  H
  H5       1.0000 0.75410  0.54190  0.06330  Biso   1.000  H
  H6       1.0000 0.74590  0.45810  0.56330  Biso   1.000  H
  H7       1.0000 0.25410  0.95810  0.93670  Biso   1.000  H
  H8       1.0000 0.24590  0.04190  0.43670  Biso   1.000  H
  C25      1.0000 0.26800  0.45170  0.85913  Biso   1.000  C
  C26      1.0000 0.23200  0.54830  0.35913  Biso   1.000  C
  C27      1.0000 0.76800  0.04830  0.14087  Biso   1.000  C
  C28      1.0000 0.73200  0.95170  0.64087  Biso   1.000  C
  C29      1.0000 0.73200  0.54830  0.14087  Biso   1.000  C
  C30      1.0000 0.76800  0.45170  0.64087  Biso   1.000  C
  C31      1.0000 0.23200  0.95170  0.85913  Biso   1.000  C
  C32      1.0000 0.26800  0.04830  0.35913  Biso   1.000  C
  H9       1.0000 0.25440  0.51940  0.85260  Biso   1.000  H
  H10      1.0000 0.24560  0.48060  0.35260  Biso   1.000  H
  H11      1.0000 0.75440  0.98060  0.14740  Biso   1.000  H
  H12      1.0000 0.74560  0.01940  0.64740  Biso   1.000  H
  H13      1.0000 0.74560  0.48060  0.14740  Biso   1.000  H
  H14      1.0000 0.75440  0.51940  0.64740  Biso   1.000  H
  H15      1.0000 0.24560  0.01940  0.85260  Biso   1.000  H
  H16      1.0000 0.25440  0.98060  0.35260  Biso   1.000  H
  C33      1.0000 0.29322  0.38950  0.81873  Biso   1.000  C
  C34      1.0000 0.20678  0.61050  0.31873  Biso   1.000  C
  C35      1.0000 0.79322  0.11050  0.18127  Biso   1.000  C
  C36      1.0000 0.70678  0.88950  0.68127  Biso   1.000  C
  C37      1.0000 0.70678  0.61050  0.18127  Biso   1.000  C
  C38      1.0000 0.79322  0.38950  0.68127  Biso   1.000  C
  C39      1.0000 0.20678  0.88950  0.81873  Biso   1.000  C
  C40      1.0000 0.29322  0.11050  0.31873  Biso   1.000  C
  H17      1.0000 0.29740  0.41490  0.78470  Biso   1.000  H
  H18      1.0000 0.20260  0.58510  0.28470  Biso   1.000  H
  H19      1.0000 0.79740  0.08510  0.21530  Biso   1.000  H
  H20      1.0000 0.70260  0.91490  0.71530  Biso   1.000  H
  H21      1.0000 0.70260  0.58510  0.21530  Biso   1.000  H
  H22      1.0000 0.79740  0.41490  0.71530  Biso   1.000  H
  H23      1.0000 0.20260  0.91490  0.78470  Biso   1.000  H
  H24      1.0000 0.29740  0.08510  0.28470  Biso   1.000  H
  C41      1.0000 0.31228  0.29040  0.82772  Biso   1.000  C
  C42      1.0000 0.18772  0.70960  0.32772  Biso   1.000  C
  C43      1.0000 0.81228  0.20960  0.17228  Biso   1.000  C
  C44      1.0000 0.68772  0.79040  0.67228  Biso   1.000  C
  C45      1.0000 0.68772  0.70960  0.17228  Biso   1.000  C
  C46      1.0000 0.81228  0.29040  0.67228  Biso   1.000  C
  C47      1.0000 0.18772  0.79040  0.82772  Biso   1.000  C
  C48      1.0000 0.31228  0.20960  0.32772  Biso   1.000  C
  C49      1.0000 0.30592  0.25450  0.87782  Biso   1.000  C
  C50      1.0000 0.19408  0.74550  0.37782  Biso   1.000  C
  C51      1.0000 0.80592  0.24550  0.12218  Biso   1.000  C
  C52      1.0000 0.69408  0.75450  0.62218  Biso   1.000  C
  C53      1.0000 0.69408  0.74550  0.12218  Biso   1.000  C
  C54      1.0000 0.80592  0.25450  0.62218  Biso   1.000  C
  C55      1.0000 0.19408  0.75450  0.87782  Biso   1.000  C
  C56      1.0000 0.30592  0.24550  0.37782  Biso   1.000  C
  H25      1.0000 0.31840  0.18660  0.88420  Biso   1.000  H
  H26      1.0000 0.18160  0.81340  0.38420  Biso   1.000  H
  H27      1.0000 0.81840  0.31340  0.11580  Biso   1.000  H
  H28      1.0000 0.68160  0.68660  0.61580  Biso   1.000  H
  H29      1.0000 0.68160  0.81340  0.11580  Biso   1.000  H
  H30      1.0000 0.81840  0.18660  0.61580  Biso   1.000  H
  H31      1.0000 0.18160  0.68660  0.88420  Biso   1.000  H
  H32      1.0000 0.31840  0.31340  0.38420  Biso   1.000  H
  C57      1.0000 0.33721  0.22040  0.78476  Biso   1.000  C
  C58      1.0000 0.16279  0.77960  0.28476  Biso   1.000  C
  C59      1.0000 0.83721  0.27960  0.21524  Biso   1.000  C
  C60      1.0000 0.66279  0.72040  0.71524  Biso   1.000  C
  C61      1.0000 0.66279  0.77960  0.21524  Biso   1.000  C
  C62      1.0000 0.83721  0.22040  0.71524  Biso   1.000  C
  C63      1.0000 0.16279  0.72040  0.78476  Biso   1.000  C
  C64      1.0000 0.33721  0.27960  0.28476  Biso   1.000  C
  C65      1.0000 0.03016  0.16210  0.55321  Biso   1.000  C
  C66      1.0000 0.46984  0.83790  0.05321  Biso   1.000  C
  C67      1.0000 0.53016  0.33790  0.44679  Biso   1.000  C
  C68      1.0000 0.96984  0.66210  0.94679  Biso   1.000  C
  C69      1.0000 0.96984  0.83790  0.44679  Biso   1.000  C
  C70      1.0000 0.53016  0.16210  0.94679  Biso   1.000  C
  C71      1.0000 0.46984  0.66210  0.55321  Biso   1.000  C
  C72      1.0000 0.03016  0.33790  0.05321  Biso   1.000  C
  H33      1.0000 0.96150  0.18160  0.55710  Biso   1.000  H
  H34      1.0000 0.53850  0.81840  0.05710  Biso   1.000  H
  H35      1.0000 0.46150  0.31840  0.44290  Biso   1.000  H
  H36      1.0000 0.03850  0.68160  0.94290  Biso   1.000  H
  H37      1.0000 0.03850  0.81840  0.44290  Biso   1.000  H
  H38      1.0000 0.46150  0.18160  0.94290  Biso   1.000  H
  H39      1.0000 0.53850  0.68160  0.55710  Biso   1.000  H
  H40      1.0000 0.96150  0.31840  0.05710  Biso   1.000  H
  H41      1.0000 0.04510  0.16030  0.51590  Biso   1.000  H
  H42      1.0000 0.45490  0.83970  0.01590  Biso   1.000  H
  H43      1.0000 0.54510  0.33970  0.48410  Biso   1.000  H
  H44      1.0000 0.95490  0.66030  0.98410  Biso   1.000  H
  H45      1.0000 0.95490  0.83970  0.48410  Biso   1.000  H
  H46      1.0000 0.54510  0.16030  0.98410  Biso   1.000  H
  H47      1.0000 0.45490  0.66030  0.51590  Biso   1.000  H
  H48      1.0000 0.04510  0.33970  0.01590  Biso   1.000  H
  C73      1.0000 0.04410  0.05990  0.57555  Biso   1.000  C
  C74      1.0000 0.45590  0.94010  0.07555  Biso   1.000  C
  C75      1.0000 0.54410  0.44010  0.42445  Biso   1.000  C
  C76      1.0000 0.95590  0.55990  0.92445  Biso   1.000  C
  C77      1.0000 0.95590  0.94010  0.42445  Biso   1.000  C
  C78      1.0000 0.54410  0.05990  0.92445  Biso   1.000  C
  C79      1.0000 0.45590  0.55990  0.57555  Biso   1.000  C
  C80      1.0000 0.04410  0.44010  0.07555  Biso   1.000  C
  H49      1.0000 0.00770  0.01060  0.55510  Biso   1.000  H
  H50      1.0000 0.49230  0.98940  0.05510  Biso   1.000  H
  H51      1.0000 0.50770  0.48940  0.44490  Biso   1.000  H
  H52      1.0000 0.99230  0.51060  0.94490  Biso   1.000  H
  H53      1.0000 0.99230  0.98940  0.44490  Biso   1.000  H
  H54      1.0000 0.50770  0.01060  0.94490  Biso   1.000  H
  H55      1.0000 0.49230  0.51060  0.55510  Biso   1.000  H
  H56      1.0000 0.00770  0.48940  0.05510  Biso   1.000  H
  H57      1.0000 0.02050  0.05780  0.61150  Biso   1.000  H
  H58      1.0000 0.47950  0.94220  0.11150  Biso   1.000  H
  H59      1.0000 0.52050  0.44220  0.38850  Biso   1.000  H
  H60      1.0000 0.97950  0.55780  0.88850  Biso   1.000  H
  H61      1.0000 0.97950  0.94220  0.38850  Biso   1.000  H
  H62      1.0000 0.52050  0.05780  0.88850  Biso   1.000  H
  H63      1.0000 0.47950  0.55780  0.61150  Biso   1.000  H
  H64      1.0000 0.02050  0.44220  0.11150  Biso   1.000  H
  C81      1.0000 0.06340  0.25460  0.63349  Biso   1.000  C
  C82      1.0000 0.43660  0.74540  0.13349  Biso   1.000  C
  C83      1.0000 0.56340  0.24540  0.36651  Biso   1.000  C
  C84      1.0000 0.93660  0.75460  0.86651  Biso   1.000  C
  C85      1.0000 0.93660  0.74540  0.36651  Biso   1.000  C
  C86      1.0000 0.56340  0.25460  0.86651  Biso   1.000  C
  C87      1.0000 0.43660  0.75460  0.63349  Biso   1.000  C
  C88      1.0000 0.06340  0.24540  0.13349  Biso   1.000  C
  H65      1.0000 0.02580  0.19710  0.64600  Biso   1.000  H
  H66      1.0000 0.47420  0.80290  0.14600  Biso   1.000  H
  H67      1.0000 0.52580  0.30290  0.35400  Biso   1.000  H
  H68      1.0000 0.97420  0.69710  0.85400  Biso   1.000  H
  H69      1.0000 0.97420  0.80290  0.35400  Biso   1.000  H
  H70      1.0000 0.52580  0.19710  0.85400  Biso   1.000  H
  H71      1.0000 0.47420  0.69710  0.64600  Biso   1.000  H
  H72      1.0000 0.02580  0.30290  0.14600  Biso   1.000  H
  H73      1.0000 0.02130  0.31360  0.63550  Biso   1.000  H
  H74      1.0000 0.47870  0.68640  0.13550  Biso   1.000  H
  H75      1.0000 0.52130  0.18640  0.36450  Biso   1.000  H
  H76      1.0000 0.97870  0.81360  0.86450  Biso   1.000  H
  H77      1.0000 0.97870  0.68640  0.36450  Biso   1.000  H
  H78      1.0000 0.52130  0.31360  0.86450  Biso   1.000  H
  H79      1.0000 0.47870  0.81360  0.63550  Biso   1.000  H
  H80      1.0000 0.02130  0.18640  0.13550  Biso   1.000  H
  C89      1.0000 0.15196  0.26940  0.66759  Biso   1.000  C
  C90      1.0000 0.34804  0.73060  0.16759  Biso   1.000  C
  C91      1.0000 0.65196  0.23060  0.33241  Biso   1.000  C
  C92      1.0000 0.84804  0.76940  0.83241  Biso   1.000  C
  C93      1.0000 0.84804  0.73060  0.33241  Biso   1.000  C
  C94      1.0000 0.65196  0.26940  0.83241  Biso   1.000  C
  C95      1.0000 0.34804  0.76940  0.66759  Biso   1.000  C
  C96      1.0000 0.15196  0.23060  0.16759  Biso   1.000  C
  H81      1.0000 0.18240  0.33410  0.66030  Biso   1.000  H
  H82      1.0000 0.31760  0.66590  0.16030  Biso   1.000  H
  H83      1.0000 0.68240  0.16590  0.33970  Biso   1.000  H
  H84      1.0000 0.81760  0.83410  0.83970  Biso   1.000  H
  H85      1.0000 0.81760  0.66590  0.33970  Biso   1.000  H
  H86      1.0000 0.68240  0.33410  0.83970  Biso   1.000  H
  H87      1.0000 0.31760  0.83410  0.66030  Biso   1.000  H
  H88      1.0000 0.18240  0.16590  0.16030  Biso   1.000  H
  H89      1.0000 0.13320  0.26760  0.70440  Biso   1.000  H
  H90      1.0000 0.36680  0.73240  0.20440  Biso   1.000  H
  H91      1.0000 0.63320  0.23240  0.29560  Biso   1.000  H
  H92      1.0000 0.86680  0.76760  0.79560  Biso   1.000  H
  H93      1.0000 0.86680  0.73240  0.29560  Biso   1.000  H
  H94      1.0000 0.63320  0.26760  0.79560  Biso   1.000  H
  H95      1.0000 0.36680  0.76760  0.70440  Biso   1.000  H
  H96      1.0000 0.13320  0.23240  0.20440  Biso   1.000  H
  C97      1.0000 0.08620  0.33010  0.54811  Biso   1.000  C
  C98      1.0000 0.41380  0.66990  0.04811  Biso   1.000  C
  C99      1.0000 0.58620  0.16990  0.45189  Biso   1.000  C
  C100     1.0000 0.91380  0.83010  0.95189  Biso   1.000  C
  C101     1.0000 0.91380  0.66990  0.45189  Biso   1.000  C
  C102     1.0000 0.58620  0.33010  0.95189  Biso   1.000  C
  C103     1.0000 0.41380  0.83010  0.54811  Biso   1.000  C
  C104     1.0000 0.08620  0.16990  0.04811  Biso   1.000  C
  H97      1.0000 0.09940  0.31470  0.51150  Biso   1.000  H
  H98      1.0000 0.40060  0.68530  0.01150  Biso   1.000  H
  H99      1.0000 0.59940  0.18530  0.48850  Biso   1.000  H
  H100     1.0000 0.90060  0.81470  0.98850  Biso   1.000  H
  H101     1.0000 0.90060  0.68530  0.48850  Biso   1.000  H
  H102     1.0000 0.59940  0.31470  0.98850  Biso   1.000  H
  H103     1.0000 0.40060  0.81470  0.51150  Biso   1.000  H
  H104     1.0000 0.09940  0.18530  0.01150  Biso   1.000  H
  H105     1.0000 0.01930  0.35600  0.55040  Biso   1.000  H
  H106     1.0000 0.48070  0.64400  0.05040  Biso   1.000  H
  H107     1.0000 0.51930  0.14400  0.44960  Biso   1.000  H
  H108     1.0000 0.98070  0.85600  0.94960  Biso   1.000  H
  H109     1.0000 0.98070  0.64400  0.44960  Biso   1.000  H
  H110     1.0000 0.51930  0.35600  0.94960  Biso   1.000  H
  H111     1.0000 0.48070  0.85600  0.55040  Biso   1.000  H
  H112     1.0000 0.01930  0.14400  0.05040  Biso   1.000  H
  C105     1.0000 0.15553  0.40940  0.56566  Biso   1.000  C
  C106     1.0000 0.34447  0.59060  0.06566  Biso   1.000  C
  C107     1.0000 0.65553  0.09060  0.43434  Biso   1.000  C
  C108     1.0000 0.84447  0.90940  0.93434  Biso   1.000  C
  C109     1.0000 0.84447  0.59060  0.43434  Biso   1.000  C
  C110     1.0000 0.65553  0.40940  0.93434  Biso   1.000  C
  C111     1.0000 0.34447  0.90940  0.56566  Biso   1.000  C
  C112     1.0000 0.15553  0.09060  0.06566  Biso   1.000  C
  H113     1.0000 0.13350  0.43650  0.59910  Biso   1.000  H
  H114     1.0000 0.36650  0.56350  0.09910  Biso   1.000  H
  H115     1.0000 0.63350  0.06350  0.40090  Biso   1.000  H
  H116     1.0000 0.86650  0.93650  0.90090  Biso   1.000  H
  H117     1.0000 0.86650  0.56350  0.40090  Biso   1.000  H
  H118     1.0000 0.63350  0.43650  0.90090  Biso   1.000  H
  H119     1.0000 0.36650  0.93650  0.59910  Biso   1.000  H
  H120     1.0000 0.13350  0.06350  0.09910  Biso   1.000  H
  H121     1.0000 0.15580  0.46400  0.54030  Biso   1.000  H
  H122     1.0000 0.34420  0.53600  0.04030  Biso   1.000  H
  H123     1.0000 0.65580  0.03600  0.45970  Biso   1.000  H
  H124     1.0000 0.84420  0.96400  0.95970  Biso   1.000  H
  H125     1.0000 0.84420  0.53600  0.45970  Biso   1.000  H
  H126     1.0000 0.65580  0.46400  0.95970  Biso   1.000  H
  H127     1.0000 0.34420  0.96400  0.54030  Biso   1.000  H
  H128     1.0000 0.15580  0.03600  0.04030  Biso   1.000  H
  C113     1.0000 0.53169  0.15180  0.61854  Biso   1.000  C
  C114     1.0000 0.96831  0.84820  0.11854  Biso   1.000  C
  C115     1.0000 0.03169  0.34820  0.38146  Biso   1.000  C
  C116     1.0000 0.46831  0.65180  0.88146  Biso   1.000  C
  C117     1.0000 0.46831  0.84820  0.38146  Biso   1.000  C
  C118     1.0000 0.03169  0.15180  0.88146  Biso   1.000  C
  C119     1.0000 0.96831  0.65180  0.61854  Biso   1.000  C
  C120     1.0000 0.53169  0.34820  0.11854  Biso   1.000  C
  H129     1.0000 0.54630  0.08020  0.61780  Biso   1.000  H
  H130     1.0000 0.95370  0.91980  0.11780  Biso   1.000  H
  H131     1.0000 0.04630  0.41980  0.38220  Biso   1.000  H
  H132     1.0000 0.45370  0.58020  0.88220  Biso   1.000  H
  H133     1.0000 0.45370  0.91980  0.38220  Biso   1.000  H
  H134     1.0000 0.04630  0.08020  0.88220  Biso   1.000  H
  H135     1.0000 0.95370  0.58020  0.61780  Biso   1.000  H
  H136     1.0000 0.54630  0.41980  0.11780  Biso   1.000  H
  H137     1.0000 0.59090  0.18780  0.60820  Biso   1.000  H
  H138     1.0000 0.90910  0.81220  0.10820  Biso   1.000  H
  H139     1.0000 0.09090  0.31220  0.39180  Biso   1.000  H
  H140     1.0000 0.40910  0.68780  0.89180  Biso   1.000  H
  H141     1.0000 0.40910  0.81220  0.39180  Biso   1.000  H
  H142     1.0000 0.09090  0.18780  0.89180  Biso   1.000  H
  H143     1.0000 0.90910  0.68780  0.60820  Biso   1.000  H
  H144     1.0000 0.59090  0.31220  0.10820  Biso   1.000  H
  C121     1.0000 0.45078  0.17410  0.58025  Biso   1.000  C
  C122     1.0000 0.04922  0.82590  0.08025  Biso   1.000  C
  C123     1.0000 0.95078  0.32590  0.41975  Biso   1.000  C
  C124     1.0000 0.54922  0.67410  0.91975  Biso   1.000  C
  C125     1.0000 0.54922  0.82590  0.41975  Biso   1.000  C
  C126     1.0000 0.95078  0.17410  0.91975  Biso   1.000  C
  C127     1.0000 0.04922  0.67410  0.58025  Biso   1.000  C
  C128     1.0000 0.45078  0.32590  0.08025  Biso   1.000  C
  H145     1.0000 0.44930  0.24560  0.57220  Biso   1.000  H
  H146     1.0000 0.05070  0.75440  0.07220  Biso   1.000  H
  H147     1.0000 0.94930  0.25440  0.42780  Biso   1.000  H
  H148     1.0000 0.55070  0.74560  0.92780  Biso   1.000  H
  H149     1.0000 0.55070  0.75440  0.42780  Biso   1.000  H
  H150     1.0000 0.94930  0.24560  0.92780  Biso   1.000  H
  H151     1.0000 0.05070  0.74560  0.57220  Biso   1.000  H
  H152     1.0000 0.44930  0.25440  0.07220  Biso   1.000  H
  H153     1.0000 0.46150  0.13720  0.54780  Biso   1.000  H
  H154     1.0000 0.03850  0.86280  0.04780  Biso   1.000  H
  H155     1.0000 0.96150  0.36280  0.45220  Biso   1.000  H
  H156     1.0000 0.53850  0.63720  0.95220  Biso   1.000  H
  H157     1.0000 0.53850  0.86280  0.45220  Biso   1.000  H
  H158     1.0000 0.96150  0.13720  0.95220  Biso   1.000  H
  H159     1.0000 0.03850  0.63720  0.54780  Biso   1.000  H
  H160     1.0000 0.46150  0.36280  0.04780  Biso   1.000  H
  C129     1.0000 0.54645  0.27800  0.68740  Biso   1.000  C
  C130     1.0000 0.95355  0.72200  0.18740  Biso   1.000  C
  C131     1.0000 0.04645  0.22200  0.31260  Biso   1.000  C
  C132     1.0000 0.45355  0.77800  0.81260  Biso   1.000  C
  C133     1.0000 0.45355  0.72200  0.31260  Biso   1.000  C
  C134     1.0000 0.04645  0.27800  0.81260  Biso   1.000  C
  C135     1.0000 0.95355  0.77800  0.68740  Biso   1.000  C
  C136     1.0000 0.54645  0.22200  0.18740  Biso   1.000  C
  H161     1.0000 0.61790  0.27270  0.68690  Biso   1.000  H
  H162     1.0000 0.88210  0.72730  0.18690  Biso   1.000  H
  H163     1.0000 0.11790  0.22730  0.31310  Biso   1.000  H
  H164     1.0000 0.38210  0.77270  0.81310  Biso   1.000  H
  H165     1.0000 0.38210  0.72730  0.31310  Biso   1.000  H
  H166     1.0000 0.11790  0.27270  0.81310  Biso   1.000  H
  H167     1.0000 0.88210  0.77270  0.68690  Biso   1.000  H
  H168     1.0000 0.61790  0.22730  0.18690  Biso   1.000  H
  H169     1.0000 0.52650  0.29340  0.72310  Biso   1.000  H
  H170     1.0000 0.97350  0.70660  0.22310  Biso   1.000  H
  H171     1.0000 0.02650  0.20660  0.27690  Biso   1.000  H
  H172     1.0000 0.47350  0.79340  0.77690  Biso   1.000  H
  H173     1.0000 0.47350  0.70660  0.27690  Biso   1.000  H
  H174     1.0000 0.02650  0.29340  0.77690  Biso   1.000  H
  H175     1.0000 0.97350  0.79340  0.72310  Biso   1.000  H
  H176     1.0000 0.52650  0.20660  0.22310  Biso   1.000  H
  C137     1.0000 0.51610  0.36190  0.65273  Biso   1.000  C
  C138     1.0000 0.98390  0.63810  0.15273  Biso   1.000  C
  C139     1.0000 0.01610  0.13810  0.34727  Biso   1.000  C
  C140     1.0000 0.48390  0.86190  0.84727  Biso   1.000  C
  C141     1.0000 0.48390  0.63810  0.34727  Biso   1.000  C
  C142     1.0000 0.01610  0.36190  0.84727  Biso   1.000  C
  C143     1.0000 0.98390  0.86190  0.65273  Biso   1.000  C
  C144     1.0000 0.51610  0.13810  0.15273  Biso   1.000  C
  H177     1.0000 0.53550  0.42550  0.66850  Biso   1.000  H
  H178     1.0000 0.96450  0.57450  0.16850  Biso   1.000  H
  H179     1.0000 0.03550  0.07450  0.33150  Biso   1.000  H
  H180     1.0000 0.46450  0.92550  0.83150  Biso   1.000  H
  H181     1.0000 0.46450  0.57450  0.33150  Biso   1.000  H
  H182     1.0000 0.03550  0.42550  0.83150  Biso   1.000  H
  H183     1.0000 0.96450  0.92550  0.66850  Biso   1.000  H
  H184     1.0000 0.53550  0.07450  0.16850  Biso   1.000  H
  H185     1.0000 0.54950  0.35580  0.61910  Biso   1.000  H
  H186     1.0000 0.95050  0.64420  0.11910  Biso   1.000  H
  H187     1.0000 0.04950  0.14420  0.38090  Biso   1.000  H
  H188     1.0000 0.45050  0.85580  0.88090  Biso   1.000  H
  H189     1.0000 0.45050  0.64420  0.38090  Biso   1.000  H
  H190     1.0000 0.04950  0.35580  0.88090  Biso   1.000  H
  H191     1.0000 0.95050  0.85580  0.61910  Biso   1.000  H
  H192     1.0000 0.54950  0.14420  0.11910  Biso   1.000  H
  C145     1.0000 0.53681  0.10600  0.71014  Biso   1.000  C
  C146     1.0000 0.96319  0.89400  0.21014  Biso   1.000  C
  C147     1.0000 0.03681  0.39400  0.28986  Biso   1.000  C
  C148     1.0000 0.46319  0.60600  0.78986  Biso   1.000  C
  C149     1.0000 0.46319  0.89400  0.28986  Biso   1.000  C
  C150     1.0000 0.03681  0.10600  0.78986  Biso   1.000  C
  C151     1.0000 0.96319  0.60600  0.71014  Biso   1.000  C
  C152     1.0000 0.53681  0.39400  0.21014  Biso   1.000  C
  H193     1.0000 0.52970  0.13360  0.74530  Biso   1.000  H
  H194     1.0000 0.97030  0.86640  0.24530  Biso   1.000  H
  H195     1.0000 0.02970  0.36640  0.25470  Biso   1.000  H
  H196     1.0000 0.47030  0.63360  0.75470  Biso   1.000  H
  H197     1.0000 0.47030  0.86640  0.25470  Biso   1.000  H
  H198     1.0000 0.02970  0.13360  0.75470  Biso   1.000  H
  H199     1.0000 0.97030  0.63360  0.74530  Biso   1.000  H
  H200     1.0000 0.52970  0.36640  0.24530  Biso   1.000  H
  H201     1.0000 0.60640  0.09260  0.70440  Biso   1.000  H
  H202     1.0000 0.89360  0.90740  0.20440  Biso   1.000  H
  H203     1.0000 0.10640  0.40740  0.29560  Biso   1.000  H
  H204     1.0000 0.39360  0.59260  0.79560  Biso   1.000  H
  H205     1.0000 0.39360  0.90740  0.29560  Biso   1.000  H
  H206     1.0000 0.10640  0.09260  0.79560  Biso   1.000  H
  H207     1.0000 0.89360  0.59260  0.70440  Biso   1.000  H
  H208     1.0000 0.60640  0.40740  0.20440  Biso   1.000  H
  C153     1.0000 0.48190  0.00940  0.70730  Biso   1.000  C
  C154     1.0000 0.01810  0.99060  0.20730  Biso   1.000  C
  C155     1.0000 0.98190  0.49060  0.29270  Biso   1.000  C
  C156     1.0000 0.51810  0.50940  0.79270  Biso   1.000  C
  C157     1.0000 0.51810  0.99060  0.29270  Biso   1.000  C
  C158     1.0000 0.98190  0.00940  0.79270  Biso   1.000  C
  C159     1.0000 0.01810  0.50940  0.70730  Biso   1.000  C
  C160     1.0000 0.48190  0.49060  0.20730  Biso   1.000  C
  H209     1.0000 0.49310  0.97870  0.67320  Biso   1.000  H
  H210     1.0000 0.00690  0.02130  0.17320  Biso   1.000  H
  H211     1.0000 0.99310  0.52130  0.32680  Biso   1.000  H
  H212     1.0000 0.50690  0.47870  0.82680  Biso   1.000  H
  H213     1.0000 0.50690  0.02130  0.32680  Biso   1.000  H
  H214     1.0000 0.99310  0.97870  0.82680  Biso   1.000  H
  H215     1.0000 0.00690  0.47870  0.67320  Biso   1.000  H
  H216     1.0000 0.49310  0.52130  0.17320  Biso   1.000  H
  H217     1.0000 0.50720  0.96380  0.73390  Biso   1.000  H
  H218     1.0000 0.99280  0.03620  0.23390  Biso   1.000  H
  H219     1.0000 0.00720  0.53620  0.26610  Biso   1.000  H
  H220     1.0000 0.49280  0.46380  0.76610  Biso   1.000  H
  H221     1.0000 0.49280  0.03620  0.26610  Biso   1.000  H
  H222     1.0000 0.00720  0.96380  0.76610  Biso   1.000  H
  H223     1.0000 0.99280  0.46380  0.73390  Biso   1.000  H
  H224     1.0000 0.50720  0.53620  0.23390  Biso   1.000  H
  N1       1.0000 0.09261  0.23754  0.57854  Biso   1.000  N
  N2       1.0000 0.40739  0.76246  0.07854  Biso   1.000  N
  N3       1.0000 0.59261  0.26246  0.42146  Biso   1.000  N
  N4       1.0000 0.90739  0.73754  0.92146  Biso   1.000  N
  N5       1.0000 0.90739  0.76246  0.42146  Biso   1.000  N
  N6       1.0000 0.59261  0.23754  0.92146  Biso   1.000  N
  N7       1.0000 0.40739  0.73754  0.57854  Biso   1.000  N
  N8       1.0000 0.09261  0.26246  0.07854  Biso   1.000  N
  N9       1.0000 0.50418  0.18142  0.67220  Biso   1.000  N
  N10      1.0000 0.99582  0.81858  0.17220  Biso   1.000  N
  N11      1.0000 0.00418  0.31858  0.32780  Biso   1.000  N
  N12      1.0000 0.49582  0.68142  0.82780  Biso   1.000  N
  N13      1.0000 0.49582  0.81858  0.32780  Biso   1.000  N
  N14      1.0000 0.00418  0.18142  0.82780  Biso   1.000  N
  N15      1.0000 0.99582  0.68142  0.67220  Biso   1.000  N
  N16      1.0000 0.50418  0.31858  0.17220  Biso   1.000  N
  O1       1.0000 0.25245  0.33406  0.00740  Biso   1.000  O
  O2       1.0000 0.24755  0.66594  0.50740  Biso   1.000  O
  O3       1.0000 0.75245  0.16594  0.99260  Biso   1.000  O
  O4       1.0000 0.74755  0.83406  0.49260  Biso   1.000  O
  O5       1.0000 0.74755  0.66594  0.99260  Biso   1.000  O
  O6       1.0000 0.75245  0.33406  0.49260  Biso   1.000  O
  O7       1.0000 0.24755  0.83406  0.00740  Biso   1.000  O
  O8       1.0000 0.25245  0.16594  0.50740  Biso   1.000  O
  O9       1.0000 0.29466  0.18456  0.97824  Biso   1.000  O
  O10      1.0000 0.20534  0.81544  0.47824  Biso   1.000  O
  O11      1.0000 0.79466  0.31544  0.02176  Biso   1.000  O
  O12      1.0000 0.70534  0.68456  0.52176  Biso   1.000  O
  O13      1.0000 0.70534  0.81544  0.02176  Biso   1.000  O
  O14      1.0000 0.79466  0.18456  0.52176  Biso   1.000  O
  O15      1.0000 0.20534  0.68456  0.97824  Biso   1.000  O
  O16      1.0000 0.29466  0.31544  0.47824  Biso   1.000  O
  O17      1.0000 0.35318  0.13262  0.79611  Biso   1.000  O
  O18      1.0000 0.14682  0.86738  0.29611  Biso   1.000  O
  O19      1.0000 0.85318  0.36738  0.20389  Biso   1.000  O
  O20      1.0000 0.64682  0.63262  0.70389  Biso   1.000  O
  O21      1.0000 0.64682  0.86738  0.20389  Biso   1.000  O
  O22      1.0000 0.85318  0.13262  0.70389  Biso   1.000  O
  O23      1.0000 0.14682  0.63262  0.79611  Biso   1.000  O
  O24      1.0000 0.35318  0.36738  0.29611  Biso   1.000  O
  O25      1.0000 0.34018  0.25736  0.73977  Biso   1.000  O
  O26      1.0000 0.15982  0.74264  0.23977  Biso   1.000  O
  O27      1.0000 0.84018  0.24264  0.26023  Biso   1.000  O
  O28      1.0000 0.65982  0.75736  0.76023  Biso   1.000  O
  O29      1.0000 0.65982  0.74264  0.26023  Biso   1.000  O
  O30      1.0000 0.84018  0.25736  0.76023  Biso   1.000  O
  O31      1.0000 0.15982  0.75736  0.73977  Biso   1.000  O
  O32      1.0000 0.34018  0.24264  0.23977  Biso   1.000  O
  O33      1.0000 0.14384  0.03954  0.57380  Biso   1.000  O
  O34      1.0000 0.35616  0.96046  0.07380  Biso   1.000  O
  O35      1.0000 0.64384  0.46046  0.42620  Biso   1.000  O
  O36      1.0000 0.85616  0.53954  0.92620  Biso   1.000  O
  O37      1.0000 0.85616  0.96046  0.42620  Biso   1.000  O
  O38      1.0000 0.64384  0.03954  0.92620  Biso   1.000  O
  O39      1.0000 0.35616  0.53954  0.57380  Biso   1.000  O
  O40      1.0000 0.14384  0.46046  0.07380  Biso   1.000  O
  O41      1.0000 0.21752  0.19135  0.65624  Biso   1.000  O
  O42      1.0000 0.28248  0.80865  0.15624  Biso   1.000  O
  O43      1.0000 0.71752  0.30865  0.34376  Biso   1.000  O
  O44      1.0000 0.78248  0.69135  0.84376  Biso   1.000  O
  O45      1.0000 0.78248  0.80865  0.34376  Biso   1.000  O
  O46      1.0000 0.71752  0.19135  0.84376  Biso   1.000  O
  O47      1.0000 0.28248  0.69135  0.65624  Biso   1.000  O
  O48      1.0000 0.21752  0.30865  0.15624  Biso   1.000  O
  O49      1.0000 0.25123  0.37119  0.57108  Biso   1.000  O
  O50      1.0000 0.24877  0.62881  0.07108  Biso   1.000  O
  O51      1.0000 0.75123  0.12881  0.42892  Biso   1.000  O
  O52      1.0000 0.74877  0.87119  0.92892  Biso   1.000  O
  O53      1.0000 0.74877  0.62881  0.42892  Biso   1.000  O
  O54      1.0000 0.75123  0.37119  0.92892  Biso   1.000  O
  O55      1.0000 0.24877  0.87119  0.57108  Biso   1.000  O
  O56      1.0000 0.25123  0.12881  0.07108  Biso   1.000  O
  O57      1.0000 0.36260  0.14480  0.60316  Biso   1.000  O
  O58      1.0000 0.13740  0.85520  0.10316  Biso   1.000  O
  O59      1.0000 0.86260  0.35520  0.39684  Biso   1.000  O
  O60      1.0000 0.63740  0.64480  0.89684  Biso   1.000  O
  O61      1.0000 0.63740  0.85520  0.39684  Biso   1.000  O
  O62      1.0000 0.86260  0.14480  0.89684  Biso   1.000  O
  O63      1.0000 0.13740  0.64480  0.60316  Biso   1.000  O
  O64      1.0000 0.36260  0.35520  0.10316  Biso   1.000  O
  O65      1.0000 0.41406  0.36130  0.64474  Biso   1.000  O
  O66      1.0000 0.08594  0.63870  0.14474  Biso   1.000  O
  O67      1.0000 0.91406  0.13870  0.35526  Biso   1.000  O
  O68      1.0000 0.58594  0.86130  0.85526  Biso   1.000  O
  O69      1.0000 0.58594  0.63870  0.35526  Biso   1.000  O
  O70      1.0000 0.91406  0.36130  0.85526  Biso   1.000  O
  O71      1.0000 0.08594  0.86130  0.64474  Biso   1.000  O
  O72      1.0000 0.41406  0.13870  0.14474  Biso   1.000  O
  O73      1.0000 0.38046  0.02243  0.71482  Biso   1.000  O
  O74      1.0000 0.11954  0.97757  0.21482  Biso   1.000  O
  O75      1.0000 0.88046  0.47757  0.28518  Biso   1.000  O
  O76      1.0000 0.61954  0.52243  0.78518  Biso   1.000  O
  O77      1.0000 0.61954  0.97757  0.28518  Biso   1.000  O
  O78      1.0000 0.88046  0.02243  0.78518  Biso   1.000  O
  O79      1.0000 0.11954  0.52243  0.71482  Biso   1.000  O
  O80      1.0000 0.38046  0.47757  0.21482  Biso   1.000  O
  Cu1      1.0000 0.35601  0.19557  0.67232  Biso   1.000  Cu
  Cu2      1.0000 0.14399  0.80443  0.17232  Biso   1.000  Cu
  Cu3      1.0000 0.85601  0.30443  0.32768  Biso   1.000  Cu
  Cu4      1.0000 0.64399  0.69557  0.82768  Biso   1.000  Cu
  Cu5      1.0000 0.64399  0.80443  0.32768  Biso   1.000  Cu
  Cu6      1.0000 0.85601  0.19557  0.82768  Biso   1.000  Cu
  Cu7      1.0000 0.14399  0.69557  0.67232  Biso   1.000  Cu
  Cu8      1.0000 0.35601  0.30443  0.17232  Biso   1.000  Cu
  Cu9      1.0000 0.23367  0.18434  0.58130  Biso   1.000  Cu
  Cu10     1.0000 0.26633  0.81566  0.08130  Biso   1.000  Cu
  Cu11     1.0000 0.73367  0.31566  0.41870  Biso   1.000  Cu
  Cu12     1.0000 0.76633  0.68434  0.91870  Biso   1.000  Cu
  Cu13     1.0000 0.76633  0.81566  0.41870  Biso   1.000  Cu
  Cu14     1.0000 0.73367  0.18434  0.91870  Biso   1.000  Cu
  Cu15     1.0000 0.26633  0.68434  0.58130  Biso   1.000  Cu
  Cu16     1.0000 0.23367  0.31566  0.08130  Biso   1.000  Cu
  H225     1.0000 0.15800  0.98700  0.57930  Biso   1.000  H
  H226     1.0000 0.34200  0.01300  0.07930  Biso   1.000  H
  H227     1.0000 0.65800  0.51300  0.42070  Biso   1.000  H
  H228     1.0000 0.84200  0.48700  0.92070  Biso   1.000  H
  H229     1.0000 0.84200  0.01300  0.42070  Biso   1.000  H
  H230     1.0000 0.65800  0.98700  0.92070  Biso   1.000  H
  H231     1.0000 0.34200  0.48700  0.57930  Biso   1.000  H
  H232     1.0000 0.15800  0.51300  0.07930  Biso   1.000  H
  H233     1.0000 0.37500  0.04900  0.73970  Biso   1.000  H
  H234     1.0000 0.12500  0.95100  0.23970  Biso   1.000  H
  H235     1.0000 0.87500  0.45100  0.26030  Biso   1.000  H
  H236     1.0000 0.62500  0.54900  0.76030  Biso   1.000  H
  H237     1.0000 0.62500  0.95100  0.26030  Biso   1.000  H
  H238     1.0000 0.87500  0.04900  0.76030  Biso   1.000  H
  H239     1.0000 0.12500  0.54900  0.73970  Biso   1.000  H
  H240     1.0000 0.37500  0.45100  0.23970  Biso   1.000  H
  H241     1.0000 0.39100  0.40600  0.66110  Biso   1.000  H
  H242     1.0000 0.10900  0.59400  0.16110  Biso   1.000  H
  H243     1.0000 0.89100  0.09400  0.33890  Biso   1.000  H
  H244     1.0000 0.60900  0.90600  0.83890  Biso   1.000  H
  H245     1.0000 0.60900  0.59400  0.33890  Biso   1.000  H
  H246     1.0000 0.89100  0.40600  0.83890  Biso   1.000  H
  H247     1.0000 0.10900  0.90600  0.66110  Biso   1.000  H
  H248     1.0000 0.39100  0.09400  0.16110  Biso   1.000  H
  H249     1.0000 0.27500  0.35100  0.53660  Biso   1.000  H
  H250     1.0000 0.22500  0.64900  0.03660  Biso   1.000  H
  H251     1.0000 0.77500  0.14900  0.46340  Biso   1.000  H
  H252     1.0000 0.72500  0.85100  0.96340  Biso   1.000  H
  H253     1.0000 0.72500  0.64900  0.46340  Biso   1.000  H
  H254     1.0000 0.77500  0.35100  0.96340  Biso   1.000  H
  H255     1.0000 0.22500  0.85100  0.53660  Biso   1.000  H
  H256     1.0000 0.27500  0.14900  0.03660  Biso   1.000  H
  O81      1.0000 0.17837  0.00547  0.69698  Biso   1.000  O
  O82      1.0000 0.32163  0.99453  0.19698  Biso   1.000  O
  O83      1.0000 0.67837  0.49453  0.30302  Biso   1.000  O
  O84      1.0000 0.82163  0.50547  0.80302  Biso   1.000  O
  O85      1.0000 0.82163  0.99453  0.30302  Biso   1.000  O
  O86      1.0000 0.67837  0.00547  0.80302  Biso   1.000  O
  O87      1.0000 0.32163  0.50547  0.69698  Biso   1.000  O
  O88      1.0000 0.17837  0.49453  0.19698  Biso   1.000  O
  H257     1.0000 0.18200  0.06000  0.68450  Biso   1.000  H
  H258     1.0000 0.31800  0.94000  0.18450  Biso   1.000  H
  H259     1.0000 0.68200  0.44000  0.31550  Biso   1.000  H
  H260     1.0000 0.81800  0.56000  0.81550  Biso   1.000  H
  H261     1.0000 0.81800  0.94000  0.31550  Biso   1.000  H
  H262     1.0000 0.68200  0.06000  0.81550  Biso   1.000  H
  H263     1.0000 0.31800  0.56000  0.68450  Biso   1.000  H
  H264     1.0000 0.18200  0.44000  0.18450  Biso   1.000  H
  H265     1.0000 0.23100  0.98900  0.70090  Biso   1.000  H
  H266     1.0000 0.26900  0.01100  0.20090  Biso   1.000  H
  H267     1.0000 0.73100  0.51100  0.29910  Biso   1.000  H
  H268     1.0000 0.76900  0.48900  0.79910  Biso   1.000  H
  H269     1.0000 0.76900  0.01100  0.29910  Biso   1.000  H
  H270     1.0000 0.73100  0.98900  0.79910  Biso   1.000  H
  H271     1.0000 0.26900  0.48900  0.70090  Biso   1.000  H
  H272     1.0000 0.23100  0.51100  0.20090  Biso   1.000  H
