data_image0
_cell_length_a       14.6973
_cell_length_b       17.7243
_cell_length_c       12.4624
_cell_angle_alpha    90
_cell_angle_beta     90
_cell_angle_gamma    90

_symmetry_space_group_name_H-M    "P 1"
_symmetry_int_tables_number       1

loop_
  _symmetry_equiv_pos_as_xyz
  'x, y, z'

loop_
  _atom_site_label
  _atom_site_occupancy
  _atom_site_fract_x
  _atom_site_fract_y
  _atom_site_fract_z
  _atom_site_thermal_displace_type
  _atom_site_B_iso_or_equiv
  _atom_site_type_symbol
  Cu1      1.0000 0.07085  0.23082  0.32680  Biso   1.000  Cu
  Cu2      1.0000 0.42916  0.26918  0.82680  Biso   1.000  Cu
  Cu3      1.0000 0.57085  0.26918  0.67320  Biso   1.000  Cu
  Cu4      1.0000 0.92915  0.23082  0.17320  Biso   1.000  Cu
  Cu5      1.0000 0.92915  0.76918  0.67320  Biso   1.000  Cu
  Cu6      1.0000 0.57085  0.73082  0.17320  Biso   1.000  Cu
  Cu7      1.0000 0.42916  0.73082  0.32680  Biso   1.000  Cu
  Cu8      1.0000 0.07085  0.76918  0.82680  Biso   1.000  Cu
  Na1      1.0000 0.00000  0.07151  0.25000  Biso   1.000  Na
  Na2      1.0000 0.50000  0.42849  0.75000  Biso   1.000  Na
  Na3      1.0000 0.00000  0.92849  0.75000  Biso   1.000  Na
  Na4      1.0000 0.50000  0.57151  0.25000  Biso   1.000  Na
  O1       1.0000 0.11828  0.10061  0.37029  Biso   1.000  O
  O2       1.0000 0.38172  0.39939  0.87029  Biso   1.000  O
  O3       1.0000 0.61828  0.39939  0.62971  Biso   1.000  O
  O4       1.0000 0.88172  0.10061  0.12971  Biso   1.000  O
  O5       1.0000 0.88172  0.89939  0.62971  Biso   1.000  O
  O6       1.0000 0.61828  0.60061  0.12971  Biso   1.000  O
  O7       1.0000 0.38172  0.60061  0.37029  Biso   1.000  O
  O8       1.0000 0.11828  0.89939  0.87029  Biso   1.000  O
  H1       1.0000 0.10510  0.11120  0.44470  Biso   1.000  H
  H2       1.0000 0.39490  0.38880  0.94470  Biso   1.000  H
  H3       1.0000 0.60510  0.38880  0.55530  Biso   1.000  H
  H4       1.0000 0.89490  0.11120  0.05530  Biso   1.000  H
  H5       1.0000 0.89490  0.88880  0.55530  Biso   1.000  H
  H6       1.0000 0.60510  0.61120  0.05530  Biso   1.000  H
  H7       1.0000 0.39490  0.61120  0.44470  Biso   1.000  H
  H8       1.0000 0.10510  0.88880  0.94470  Biso   1.000  H
  O9       1.0000 0.05703  0.20168  0.17661  Biso   1.000  O
  O10      1.0000 0.44297  0.29832  0.67661  Biso   1.000  O
  O11      1.0000 0.55703  0.29832  0.82339  Biso   1.000  O
  O12      1.0000 0.94297  0.20168  0.32339  Biso   1.000  O
  O13      1.0000 0.94297  0.79832  0.82339  Biso   1.000  O
  O14      1.0000 0.55703  0.70168  0.32339  Biso   1.000  O
  O15      1.0000 0.44297  0.70168  0.17661  Biso   1.000  O
  O16      1.0000 0.05703  0.79832  0.67661  Biso   1.000  O
  O17      1.0000 0.09403  0.36137  0.28276  Biso   1.000  O
  O18      1.0000 0.40597  0.13863  0.78276  Biso   1.000  O
  O19      1.0000 0.59403  0.13863  0.71724  Biso   1.000  O
  O20      1.0000 0.90597  0.36137  0.21724  Biso   1.000  O
  O21      1.0000 0.90597  0.63863  0.71724  Biso   1.000  O
  O22      1.0000 0.59403  0.86137  0.21724  Biso   1.000  O
  O23      1.0000 0.40597  0.86137  0.28276  Biso   1.000  O
  O24      1.0000 0.09403  0.63863  0.78276  Biso   1.000  O
  H9       1.0000 0.06810  0.40890  0.30200  Biso   1.000  H
  H10      1.0000 0.43190  0.09110  0.80200  Biso   1.000  H
  H11      1.0000 0.56810  0.09110  0.69800  Biso   1.000  H
  H12      1.0000 0.93190  0.40890  0.19800  Biso   1.000  H
  H13      1.0000 0.93190  0.59110  0.69800  Biso   1.000  H
  H14      1.0000 0.56810  0.90890  0.19800  Biso   1.000  H
  H15      1.0000 0.43190  0.90890  0.30200  Biso   1.000  H
  H16      1.0000 0.06810  0.59110  0.80200  Biso   1.000  H
  O25      1.0000 0.07461  0.26130  0.47798  Biso   1.000  O
  O26      1.0000 0.42539  0.23870  0.97798  Biso   1.000  O
  O27      1.0000 0.57461  0.23870  0.52202  Biso   1.000  O
  O28      1.0000 0.92539  0.26130  0.02202  Biso   1.000  O
  O29      1.0000 0.92539  0.73870  0.52202  Biso   1.000  O
  O30      1.0000 0.57461  0.76130  0.02202  Biso   1.000  O
  O31      1.0000 0.42539  0.76130  0.47798  Biso   1.000  O
  O32      1.0000 0.07461  0.73870  0.97798  Biso   1.000  O
  O33      1.0000 0.05744  0.15035  0.56112  Biso   1.000  O
  O34      1.0000 0.44256  0.34965  0.06112  Biso   1.000  O
  O35      1.0000 0.55744  0.34965  0.43888  Biso   1.000  O
  O36      1.0000 0.94256  0.15035  0.93888  Biso   1.000  O
  O37      1.0000 0.94256  0.84965  0.43888  Biso   1.000  O
  O38      1.0000 0.55744  0.65035  0.93888  Biso   1.000  O
  O39      1.0000 0.44256  0.65035  0.56112  Biso   1.000  O
  O40      1.0000 0.05744  0.84965  0.06112  Biso   1.000  O
  O41      1.0000 0.02355  0.50014  0.83504  Biso   1.000  O
  O42      1.0000 0.47645  0.99986  0.33504  Biso   1.000  O
  O43      1.0000 0.52355  0.99986  0.16496  Biso   1.000  O
  O44      1.0000 0.97645  0.50014  0.66496  Biso   1.000  O
  O45      1.0000 0.97645  0.49986  0.16496  Biso   1.000  O
  O46      1.0000 0.52355  0.00014  0.66496  Biso   1.000  O
  O47      1.0000 0.47645  0.00014  0.83504  Biso   1.000  O
  O48      1.0000 0.02355  0.49986  0.33504  Biso   1.000  O
  O49      1.0000 0.89936  0.97182  0.29997  Biso   1.000  O
  O50      1.0000 0.60064  0.52818  0.79997  Biso   1.000  O
  O51      1.0000 0.39936  0.52818  0.70003  Biso   1.000  O
  O52      1.0000 0.10064  0.97182  0.20003  Biso   1.000  O
  O53      1.0000 0.10064  0.02818  0.70003  Biso   1.000  O
  O54      1.0000 0.39936  0.47182  0.20003  Biso   1.000  O
  O55      1.0000 0.60064  0.47182  0.29997  Biso   1.000  O
  O56      1.0000 0.89936  0.02818  0.79997  Biso   1.000  O
  H17      1.0000 0.91600  0.93000  0.34700  Biso   1.000  H
  H18      1.0000 0.58400  0.57000  0.84700  Biso   1.000  H
  H19      1.0000 0.41600  0.57000  0.65300  Biso   1.000  H
  H20      1.0000 0.08400  0.93000  0.15300  Biso   1.000  H
  H21      1.0000 0.08400  0.07000  0.65300  Biso   1.000  H
  H22      1.0000 0.41600  0.43000  0.15300  Biso   1.000  H
  H23      1.0000 0.58400  0.43000  0.34700  Biso   1.000  H
  H24      1.0000 0.91600  0.07000  0.84700  Biso   1.000  H
  H25      1.0000 0.84710  0.99560  0.33200  Biso   1.000  H
  H26      1.0000 0.65290  0.50440  0.83200  Biso   1.000  H
  H27      1.0000 0.34710  0.50440  0.66800  Biso   1.000  H
  H28      1.0000 0.15290  0.99560  0.16800  Biso   1.000  H
  H29      1.0000 0.15290  0.00440  0.66800  Biso   1.000  H
  H30      1.0000 0.34710  0.49560  0.16800  Biso   1.000  H
  H31      1.0000 0.65290  0.49560  0.33200  Biso   1.000  H
  H32      1.0000 0.84710  0.00440  0.83200  Biso   1.000  H
  N1       1.0000 0.20677  0.23722  0.29432  Biso   1.000  N
  N2       1.0000 0.29323  0.26278  0.79432  Biso   1.000  N
  N3       1.0000 0.70677  0.26278  0.70568  Biso   1.000  N
  N4       1.0000 0.79323  0.23722  0.20568  Biso   1.000  N
  N5       1.0000 0.79323  0.76278  0.70568  Biso   1.000  N
  N6       1.0000 0.70677  0.73722  0.20568  Biso   1.000  N
  N7       1.0000 0.29323  0.73722  0.29432  Biso   1.000  N
  N8       1.0000 0.20677  0.76278  0.79432  Biso   1.000  N
  C1       1.0000 0.21432  0.10101  0.35219  Biso   1.000  C
  C2       1.0000 0.28568  0.39899  0.85219  Biso   1.000  C
  C3       1.0000 0.71432  0.39899  0.64781  Biso   1.000  C
  C4       1.0000 0.78568  0.10101  0.14781  Biso   1.000  C
  C5       1.0000 0.78568  0.89899  0.64781  Biso   1.000  C
  C6       1.0000 0.71432  0.60101  0.14781  Biso   1.000  C
  C7       1.0000 0.28568  0.60101  0.35219  Biso   1.000  C
  C8       1.0000 0.21432  0.89899  0.85219  Biso   1.000  C
  H33      1.0000 0.22700  0.08070  0.27970  Biso   1.000  H
  H34      1.0000 0.27300  0.41930  0.77970  Biso   1.000  H
  H35      1.0000 0.72700  0.41930  0.72030  Biso   1.000  H
  H36      1.0000 0.77300  0.08070  0.22030  Biso   1.000  H
  H37      1.0000 0.77300  0.91930  0.72030  Biso   1.000  H
  H38      1.0000 0.72700  0.58070  0.22030  Biso   1.000  H
  H39      1.0000 0.27300  0.58070  0.27970  Biso   1.000  H
  H40      1.0000 0.22700  0.91930  0.77970  Biso   1.000  H
  H41      1.0000 0.24410  0.06750  0.40520  Biso   1.000  H
  H42      1.0000 0.25590  0.43250  0.90520  Biso   1.000  H
  H43      1.0000 0.74410  0.43250  0.59480  Biso   1.000  H
  H44      1.0000 0.75590  0.06750  0.09480  Biso   1.000  H
  H45      1.0000 0.75590  0.93250  0.59480  Biso   1.000  H
  H46      1.0000 0.74410  0.56750  0.09480  Biso   1.000  H
  H47      1.0000 0.25590  0.56750  0.40520  Biso   1.000  H
  H48      1.0000 0.24410  0.93250  0.90520  Biso   1.000  H
  C9       1.0000 0.25488  0.17992  0.36132  Biso   1.000  C
  C10      1.0000 0.24512  0.32008  0.86132  Biso   1.000  C
  C11      1.0000 0.75488  0.32008  0.63868  Biso   1.000  C
  C12      1.0000 0.74512  0.17992  0.13868  Biso   1.000  C
  C13      1.0000 0.74512  0.82008  0.63868  Biso   1.000  C
  C14      1.0000 0.75488  0.67992  0.13868  Biso   1.000  C
  C15      1.0000 0.24512  0.67992  0.36132  Biso   1.000  C
  C16      1.0000 0.25488  0.82008  0.86132  Biso   1.000  C
  H49      1.0000 0.25270  0.19600  0.43730  Biso   1.000  H
  H50      1.0000 0.24730  0.30400  0.93730  Biso   1.000  H
  H51      1.0000 0.75270  0.30400  0.56270  Biso   1.000  H
  H52      1.0000 0.74730  0.19600  0.06270  Biso   1.000  H
  H53      1.0000 0.74730  0.80400  0.56270  Biso   1.000  H
  H54      1.0000 0.75270  0.69600  0.06270  Biso   1.000  H
  H55      1.0000 0.24730  0.69600  0.43730  Biso   1.000  H
  H56      1.0000 0.25270  0.80400  0.93730  Biso   1.000  H
  H57      1.0000 0.31960  0.17800  0.33940  Biso   1.000  H
  H58      1.0000 0.18040  0.32200  0.83940  Biso   1.000  H
  H59      1.0000 0.81960  0.32200  0.66060  Biso   1.000  H
  H60      1.0000 0.68040  0.17800  0.16060  Biso   1.000  H
  H61      1.0000 0.68040  0.82200  0.66060  Biso   1.000  H
  H62      1.0000 0.81960  0.67800  0.16060  Biso   1.000  H
  H63      1.0000 0.18040  0.67800  0.33940  Biso   1.000  H
  H64      1.0000 0.31960  0.82200  0.83940  Biso   1.000  H
  C17      1.0000 0.12855  0.23519  0.11585  Biso   1.000  C
  C18      1.0000 0.37145  0.26481  0.61585  Biso   1.000  C
  C19      1.0000 0.62855  0.26481  0.88415  Biso   1.000  C
  C20      1.0000 0.87145  0.23519  0.38415  Biso   1.000  C
  C21      1.0000 0.87145  0.76481  0.88415  Biso   1.000  C
  C22      1.0000 0.62855  0.73519  0.38415  Biso   1.000  C
  C23      1.0000 0.37145  0.73519  0.11585  Biso   1.000  C
  C24      1.0000 0.12855  0.76481  0.61585  Biso   1.000  C
  H65      1.0000 0.11750  0.28990  0.10730  Biso   1.000  H
  H66      1.0000 0.38250  0.21010  0.60730  Biso   1.000  H
  H67      1.0000 0.61750  0.21010  0.89270  Biso   1.000  H
  H68      1.0000 0.88250  0.28990  0.39270  Biso   1.000  H
  H69      1.0000 0.88250  0.71010  0.89270  Biso   1.000  H
  H70      1.0000 0.61750  0.78990  0.39270  Biso   1.000  H
  H71      1.0000 0.38250  0.78990  0.10730  Biso   1.000  H
  H72      1.0000 0.11750  0.71010  0.60730  Biso   1.000  H
  H73      1.0000 0.13170  0.21200  0.04370  Biso   1.000  H
  H74      1.0000 0.36830  0.28800  0.54370  Biso   1.000  H
  H75      1.0000 0.63170  0.28800  0.95630  Biso   1.000  H
  H76      1.0000 0.86830  0.21200  0.45630  Biso   1.000  H
  H77      1.0000 0.86830  0.78800  0.95630  Biso   1.000  H
  H78      1.0000 0.63170  0.71200  0.45630  Biso   1.000  H
  H79      1.0000 0.36830  0.71200  0.04370  Biso   1.000  H
  H80      1.0000 0.13170  0.78800  0.54370  Biso   1.000  H
  C25      1.0000 0.21758  0.22197  0.17647  Biso   1.000  C
  C26      1.0000 0.28242  0.27803  0.67647  Biso   1.000  C
  C27      1.0000 0.71758  0.27803  0.82353  Biso   1.000  C
  C28      1.0000 0.78242  0.22197  0.32353  Biso   1.000  C
  C29      1.0000 0.78242  0.77803  0.82353  Biso   1.000  C
  C30      1.0000 0.71758  0.72197  0.32353  Biso   1.000  C
  C31      1.0000 0.28242  0.72197  0.17647  Biso   1.000  C
  C32      1.0000 0.21758  0.77803  0.67647  Biso   1.000  C
  H81      1.0000 0.23740  0.16910  0.16590  Biso   1.000  H
  H82      1.0000 0.26260  0.33090  0.66590  Biso   1.000  H
  H83      1.0000 0.73740  0.33090  0.83410  Biso   1.000  H
  H84      1.0000 0.76260  0.16910  0.33410  Biso   1.000  H
  H85      1.0000 0.76260  0.83090  0.83410  Biso   1.000  H
  H86      1.0000 0.73740  0.66910  0.33410  Biso   1.000  H
  H87      1.0000 0.26260  0.66910  0.16590  Biso   1.000  H
  H88      1.0000 0.23740  0.83090  0.66590  Biso   1.000  H
  H89      1.0000 0.26530  0.25540  0.14690  Biso   1.000  H
  H90      1.0000 0.23470  0.24460  0.64690  Biso   1.000  H
  H91      1.0000 0.76530  0.24460  0.85310  Biso   1.000  H
  H92      1.0000 0.73470  0.25540  0.35310  Biso   1.000  H
  H93      1.0000 0.73470  0.74460  0.85310  Biso   1.000  H
  H94      1.0000 0.76530  0.75540  0.35310  Biso   1.000  H
  H95      1.0000 0.23470  0.75540  0.14690  Biso   1.000  H
  H96      1.0000 0.26530  0.74460  0.64690  Biso   1.000  H
  C33      1.0000 0.18883  0.37583  0.27050  Biso   1.000  C
  C34      1.0000 0.31117  0.12417  0.77050  Biso   1.000  C
  C35      1.0000 0.68883  0.12417  0.72950  Biso   1.000  C
  C36      1.0000 0.81117  0.37583  0.22950  Biso   1.000  C
  C37      1.0000 0.81117  0.62417  0.72950  Biso   1.000  C
  C38      1.0000 0.68883  0.87583  0.22950  Biso   1.000  C
  C39      1.0000 0.31117  0.87583  0.27050  Biso   1.000  C
  C40      1.0000 0.18883  0.62417  0.77050  Biso   1.000  C
  H97      1.0000 0.20450  0.42500  0.30350  Biso   1.000  H
  H98      1.0000 0.29550  0.07500  0.80350  Biso   1.000  H
  H99      1.0000 0.70450  0.07500  0.69650  Biso   1.000  H
  H100     1.0000 0.79550  0.42500  0.19650  Biso   1.000  H
  H101     1.0000 0.79550  0.57500  0.69650  Biso   1.000  H
  H102     1.0000 0.70450  0.92500  0.19650  Biso   1.000  H
  H103     1.0000 0.29550  0.92500  0.30350  Biso   1.000  H
  H104     1.0000 0.20450  0.57500  0.80350  Biso   1.000  H
  H105     1.0000 0.20470  0.37800  0.19340  Biso   1.000  H
  H106     1.0000 0.29530  0.12200  0.69340  Biso   1.000  H
  H107     1.0000 0.70470  0.12200  0.80660  Biso   1.000  H
  H108     1.0000 0.79530  0.37800  0.30660  Biso   1.000  H
  H109     1.0000 0.79530  0.62200  0.80660  Biso   1.000  H
  H110     1.0000 0.70470  0.87800  0.30660  Biso   1.000  H
  H111     1.0000 0.29530  0.87800  0.19340  Biso   1.000  H
  H112     1.0000 0.20470  0.62200  0.69340  Biso   1.000  H
  C41      1.0000 0.24158  0.31314  0.32473  Biso   1.000  C
  C42      1.0000 0.25842  0.18686  0.82473  Biso   1.000  C
  C43      1.0000 0.74158  0.18686  0.67527  Biso   1.000  C
  C44      1.0000 0.75842  0.31314  0.17527  Biso   1.000  C
  C45      1.0000 0.75842  0.68686  0.67527  Biso   1.000  C
  C46      1.0000 0.74158  0.81314  0.17527  Biso   1.000  C
  C47      1.0000 0.25842  0.81314  0.32473  Biso   1.000  C
  C48      1.0000 0.24158  0.68686  0.82473  Biso   1.000  C
  H113     1.0000 0.30650  0.31700  0.30450  Biso   1.000  H
  H114     1.0000 0.19350  0.18300  0.80450  Biso   1.000  H
  H115     1.0000 0.80650  0.18300  0.69550  Biso   1.000  H
  H116     1.0000 0.69350  0.31700  0.19550  Biso   1.000  H
  H117     1.0000 0.69350  0.68300  0.69550  Biso   1.000  H
  H118     1.0000 0.80650  0.81700  0.19550  Biso   1.000  H
  H119     1.0000 0.19350  0.81700  0.30450  Biso   1.000  H
  H120     1.0000 0.30650  0.68300  0.80450  Biso   1.000  H
  H121     1.0000 0.23720  0.31920  0.40350  Biso   1.000  H
  H122     1.0000 0.26280  0.18080  0.90350  Biso   1.000  H
  H123     1.0000 0.73720  0.18080  0.59650  Biso   1.000  H
  H124     1.0000 0.76280  0.31920  0.09650  Biso   1.000  H
  H125     1.0000 0.76280  0.68080  0.59650  Biso   1.000  H
  H126     1.0000 0.73720  0.81920  0.09650  Biso   1.000  H
  H127     1.0000 0.26280  0.81920  0.40350  Biso   1.000  H
  H128     1.0000 0.23720  0.68080  0.90350  Biso   1.000  H
  C49      1.0000 0.05487  0.22148  0.55844  Biso   1.000  C
  C50      1.0000 0.44513  0.27852  0.05844  Biso   1.000  C
  C51      1.0000 0.55487  0.27852  0.44156  Biso   1.000  C
  C52      1.0000 0.94513  0.22148  0.94156  Biso   1.000  C
  C53      1.0000 0.94513  0.77852  0.44156  Biso   1.000  C
  C54      1.0000 0.55487  0.72148  0.94156  Biso   1.000  C
  C55      1.0000 0.44513  0.72148  0.55844  Biso   1.000  C
  C56      1.0000 0.05487  0.77852  0.05844  Biso   1.000  C
  C57      1.0000 0.02622  0.26337  0.65798  Biso   1.000  C
  C58      1.0000 0.47378  0.23663  0.15798  Biso   1.000  C
  C59      1.0000 0.52622  0.23663  0.34202  Biso   1.000  C
  C60      1.0000 0.97378  0.26337  0.84202  Biso   1.000  C
  C61      1.0000 0.97378  0.73663  0.34202  Biso   1.000  C
  C62      1.0000 0.52622  0.76337  0.84202  Biso   1.000  C
  C63      1.0000 0.47378  0.76337  0.65798  Biso   1.000  C
  C64      1.0000 0.02622  0.73663  0.15798  Biso   1.000  C
  C65      1.0000 0.02465  0.34211  0.65776  Biso   1.000  C
  C66      1.0000 0.47535  0.15789  0.15776  Biso   1.000  C
  C67      1.0000 0.52465  0.15789  0.34224  Biso   1.000  C
  C68      1.0000 0.97535  0.34211  0.84224  Biso   1.000  C
  C69      1.0000 0.97535  0.65789  0.34224  Biso   1.000  C
  C70      1.0000 0.52465  0.84211  0.84224  Biso   1.000  C
  C71      1.0000 0.47535  0.84211  0.65776  Biso   1.000  C
  C72      1.0000 0.02465  0.65789  0.15776  Biso   1.000  C
  H129     1.0000 0.04040  0.36900  0.59450  Biso   1.000  H
  H130     1.0000 0.45960  0.13100  0.09450  Biso   1.000  H
  H131     1.0000 0.54040  0.13100  0.40550  Biso   1.000  H
  H132     1.0000 0.95960  0.36900  0.90550  Biso   1.000  H
  H133     1.0000 0.95960  0.63100  0.40550  Biso   1.000  H
  H134     1.0000 0.54040  0.86900  0.90550  Biso   1.000  H
  H135     1.0000 0.45960  0.86900  0.59450  Biso   1.000  H
  H136     1.0000 0.04040  0.63100  0.09450  Biso   1.000  H
  C73      1.0000 0.00000  0.38122  0.75000  Biso   1.000  C
  C74      1.0000 0.50000  0.11878  0.25000  Biso   1.000  C
  C75      1.0000 0.00000  0.61878  0.25000  Biso   1.000  C
  C76      1.0000 0.50000  0.88122  0.75000  Biso   1.000  C
  C77      1.0000 0.00000  0.46647  0.75000  Biso   1.000  C
  C78      1.0000 0.50000  0.03353  0.25000  Biso   1.000  C
  C79      1.0000 0.00000  0.53353  0.25000  Biso   1.000  C
  C80      1.0000 0.50000  0.96647  0.75000  Biso   1.000  C
  C81      1.0000 0.00000  0.22423  0.75000  Biso   1.000  C
  C82      1.0000 0.50000  0.27577  0.25000  Biso   1.000  C
  C83      1.0000 0.00000  0.77577  0.25000  Biso   1.000  C
  C84      1.0000 0.50000  0.72423  0.75000  Biso   1.000  C
  H137     1.0000 0.00000  0.17060  0.75000  Biso   1.000  H
  H138     1.0000 0.50000  0.32940  0.25000  Biso   1.000  H
  H139     1.0000 0.00000  0.82940  0.25000  Biso   1.000  H
  H140     1.0000 0.50000  0.67060  0.75000  Biso   1.000  H
  O57      1.0000 0.23614  0.03791  0.08457  Biso   1.000  O
  O58      1.0000 0.26386  0.46209  0.58457  Biso   1.000  O
  O59      1.0000 0.73614  0.46209  0.91543  Biso   1.000  O
  O60      1.0000 0.76386  0.03791  0.41543  Biso   1.000  O
  O61      1.0000 0.76386  0.96209  0.91543  Biso   1.000  O
  O62      1.0000 0.73614  0.53791  0.41543  Biso   1.000  O
  O63      1.0000 0.26386  0.53791  0.08457  Biso   1.000  O
  O64      1.0000 0.23614  0.96209  0.58457  Biso   1.000  O
  H141     1.0000 0.20030  0.04730  0.02080  Biso   1.000  H
  H142     1.0000 0.29970  0.45270  0.52080  Biso   1.000  H
  H143     1.0000 0.70030  0.45270  0.97920  Biso   1.000  H
  H144     1.0000 0.79970  0.04730  0.47920  Biso   1.000  H
  H145     1.0000 0.79970  0.95270  0.97920  Biso   1.000  H
  H146     1.0000 0.70030  0.54730  0.47920  Biso   1.000  H
  H147     1.0000 0.29970  0.54730  0.02080  Biso   1.000  H
  H148     1.0000 0.20030  0.95270  0.52080  Biso   1.000  H
  H149     1.0000 0.28880  0.01130  0.05900  Biso   1.000  H
  H150     1.0000 0.21120  0.48870  0.55900  Biso   1.000  H
  H151     1.0000 0.78880  0.48870  0.94100  Biso   1.000  H
  H152     1.0000 0.71120  0.01130  0.44100  Biso   1.000  H
  H153     1.0000 0.71120  0.98870  0.94100  Biso   1.000  H
  H154     1.0000 0.78880  0.51130  0.44100  Biso   1.000  H
  H155     1.0000 0.21120  0.51130  0.05900  Biso   1.000  H
  H156     1.0000 0.28880  0.98870  0.55900  Biso   1.000  H
  O65      1.0000 0.88480  0.07307  0.57625  Biso   1.000  O
  O66      1.0000 0.61520  0.42693  0.07625  Biso   1.000  O
  O67      1.0000 0.38480  0.42693  0.42375  Biso   1.000  O
  O68      1.0000 0.11520  0.07307  0.92375  Biso   1.000  O
  O69      1.0000 0.11520  0.92693  0.42375  Biso   1.000  O
  O70      1.0000 0.38480  0.57307  0.92375  Biso   1.000  O
  O71      1.0000 0.61520  0.57307  0.57625  Biso   1.000  O
  O72      1.0000 0.88480  0.92693  0.07625  Biso   1.000  O
  H157     1.0000 0.94290  0.09660  0.56500  Biso   1.000  H
  H158     1.0000 0.55710  0.40340  0.06500  Biso   1.000  H
  H159     1.0000 0.44290  0.40340  0.43500  Biso   1.000  H
  H160     1.0000 0.05710  0.09660  0.93500  Biso   1.000  H
  H161     1.0000 0.05710  0.90340  0.43500  Biso   1.000  H
  H162     1.0000 0.44290  0.59660  0.93500  Biso   1.000  H
  H163     1.0000 0.55710  0.59660  0.56500  Biso   1.000  H
  H164     1.0000 0.94290  0.90340  0.06500  Biso   1.000  H
  H165     1.0000 0.89000  0.04910  0.64540  Biso   1.000  H
  H166     1.0000 0.61000  0.45090  0.14540  Biso   1.000  H
  H167     1.0000 0.39000  0.45090  0.35460  Biso   1.000  H
  H168     1.0000 0.11000  0.04910  0.85460  Biso   1.000  H
  H169     1.0000 0.11000  0.95090  0.35460  Biso   1.000  H
  H170     1.0000 0.39000  0.54910  0.85460  Biso   1.000  H
  H171     1.0000 0.61000  0.54910  0.64540  Biso   1.000  H
  H172     1.0000 0.89000  0.95090  0.14540  Biso   1.000  H
  O73      1.0000 0.11503  0.45117  0.02058  Biso   1.000  O
  O74      1.0000 0.38497  0.04883  0.52058  Biso   1.000  O
  O75      1.0000 0.61503  0.04883  0.97942  Biso   1.000  O
  O76      1.0000 0.88497  0.45117  0.47942  Biso   1.000  O
  O77      1.0000 0.88497  0.54883  0.97942  Biso   1.000  O
  O78      1.0000 0.61503  0.95117  0.47942  Biso   1.000  O
  O79      1.0000 0.38497  0.95117  0.02058  Biso   1.000  O
  O80      1.0000 0.11503  0.54883  0.52058  Biso   1.000  O
  H173     1.0000 0.06880  0.45590  0.07570  Biso   1.000  H
  H174     1.0000 0.43120  0.04410  0.57570  Biso   1.000  H
  H175     1.0000 0.56880  0.04410  0.92430  Biso   1.000  H
  H176     1.0000 0.93120  0.45590  0.42430  Biso   1.000  H
  H177     1.0000 0.93120  0.54410  0.92430  Biso   1.000  H
  H178     1.0000 0.56880  0.95590  0.42430  Biso   1.000  H
  H179     1.0000 0.43120  0.95590  0.07570  Biso   1.000  H
  H180     1.0000 0.06880  0.54410  0.57570  Biso   1.000  H
  H181     1.0000 0.08780  0.46550  0.95310  Biso   1.000  H
  H182     1.0000 0.41220  0.03450  0.45310  Biso   1.000  H
  H183     1.0000 0.58780  0.03450  0.04690  Biso   1.000  H
  H184     1.0000 0.91220  0.46550  0.54690  Biso   1.000  H
  H185     1.0000 0.91220  0.53450  0.04690  Biso   1.000  H
  H186     1.0000 0.58780  0.96550  0.54690  Biso   1.000  H
  H187     1.0000 0.41220  0.96550  0.95310  Biso   1.000  H
  H188     1.0000 0.08780  0.53450  0.45310  Biso   1.000  H
