data_image0
_cell_length_a       9.898
_cell_length_b       9.9893
_cell_length_c       15.3085
_cell_angle_alpha    107.079
_cell_angle_beta     98.609
_cell_angle_gamma    98.887

_symmetry_space_group_name_H-M    "P 1"
_symmetry_int_tables_number       1

loop_
  _symmetry_equiv_pos_as_xyz
  'x, y, z'

loop_
  _atom_site_label
  _atom_site_occupancy
  _atom_site_fract_x
  _atom_site_fract_y
  _atom_site_fract_z
  _atom_site_thermal_displace_type
  _atom_site_B_iso_or_equiv
  _atom_site_type_symbol
  I1       1.0000 0.87560  0.63157  0.09341  Biso   1.000  I
  I2       1.0000 0.12440  0.36843  0.90659  Biso   1.000  I
  Cu1      1.0000 0.08831  0.61674  0.00470  Biso   1.000  Cu
  Cu2      1.0000 0.91169  0.38326  0.99530  Biso   1.000  Cu
  N1       1.0000 0.26710  0.72790  0.10273  Biso   1.000  N
  N2       1.0000 0.73290  0.27210  0.89727  Biso   1.000  N
  N3       1.0000 0.05040  0.72740  0.91223  Biso   1.000  N
  N4       1.0000 0.94960  0.27260  0.08777  Biso   1.000  N
  N5       1.0000 0.58130  0.79140  0.53370  Biso   1.000  N
  N6       1.0000 0.41870  0.20860  0.46630  Biso   1.000  N
  C1       1.0000 0.25760  0.80470  0.18890  Biso   1.000  C
  C2       1.0000 0.74240  0.19530  0.81110  Biso   1.000  C
  H1       1.0000 0.16910  0.80380  0.20260  Biso   1.000  H
  H2       1.0000 0.83090  0.19620  0.79740  Biso   1.000  H
  C3       1.0000 0.37090  0.88460  0.25780  Biso   1.000  C
  C4       1.0000 0.62910  0.11540  0.74220  Biso   1.000  C
  H3       1.0000 0.35860  0.93670  0.31630  Biso   1.000  H
  H4       1.0000 0.64140  0.06330  0.68370  Biso   1.000  H
  C5       1.0000 0.50400  0.88660  0.23920  Biso   1.000  C
  C6       1.0000 0.49600  0.11340  0.76080  Biso   1.000  C
  C7       1.0000 0.51600  0.80820  0.15100  Biso   1.000  C
  C8       1.0000 0.48400  0.19180  0.84900  Biso   1.000  C
  H5       1.0000 0.60360  0.80710  0.13590  Biso   1.000  H
  H6       1.0000 0.39640  0.19290  0.86410  Biso   1.000  H
  C9       1.0000 0.39560  0.73110  0.08490  Biso   1.000  C
  C10      1.0000 0.60440  0.26890  0.91510  Biso   1.000  C
  H7       1.0000 0.40490  0.67930  0.02560  Biso   1.000  H
  H8       1.0000 0.59510  0.32070  0.97440  Biso   1.000  H
  C11      1.0000 0.62330  0.96780  0.31210  Biso   1.000  C
  C12      1.0000 0.37670  0.03220  0.68790  Biso   1.000  C
  C13      1.0000 0.71530  0.03440  0.37740  Biso   1.000  C
  C14      1.0000 0.28470  0.96560  0.62260  Biso   1.000  C
  C15      1.0000 0.82630  0.10390  0.45860  Biso   1.000  C
  C16      1.0000 0.17370  0.89610  0.54140  Biso   1.000  C
  C17      1.0000 0.83670  0.04420  0.53040  Biso   1.000  C
  C18      1.0000 0.16330  0.95580  0.46960  Biso   1.000  C
  H9       1.0000 0.77060  0.96460  0.52670  Biso   1.000  H
  H10      1.0000 0.22940  0.03540  0.47330  Biso   1.000  H
  C19      1.0000 0.94670  0.10450  0.60790  Biso   1.000  C
  C20      1.0000 0.05330  0.89550  0.39210  Biso   1.000  C
  C21      1.0000 0.04530  0.22470  0.61430  Biso   1.000  C
  C22      1.0000 0.95470  0.77530  0.38570  Biso   1.000  C
  H11      1.0000 0.11750  0.26570  0.66660  Biso   1.000  H
  H12      1.0000 0.88250  0.73430  0.33340  Biso   1.000  H
  C23      1.0000 0.03500  0.28330  0.54170  Biso   1.000  C
  C24      1.0000 0.96500  0.71670  0.45830  Biso   1.000  C
  C25      1.0000 0.92510  0.22300  0.46430  Biso   1.000  C
  C26      1.0000 0.07490  0.77700  0.53570  Biso   1.000  C
  H13      1.0000 0.91780  0.26250  0.41620  Biso   1.000  H
  H14      1.0000 0.08220  0.73750  0.58380  Biso   1.000  H
  C27      1.0000 0.14300  0.39960  0.54320  Biso   1.000  C
  C28      1.0000 0.85700  0.60040  0.45680  Biso   1.000  C
  C29      1.0000 0.23630  0.48830  0.54030  Biso   1.000  C
  C30      1.0000 0.76370  0.51170  0.45970  Biso   1.000  C
  C31      1.0000 0.35280  0.59110  0.53770  Biso   1.000  C
  C32      1.0000 0.64720  0.40890  0.46230  Biso   1.000  C
  C33      1.0000 0.46790  0.64440  0.61080  Biso   1.000  C
  C34      1.0000 0.53210  0.35560  0.38920  Biso   1.000  C
  H15      1.0000 0.47160  0.61390  0.66280  Biso   1.000  H
  H16      1.0000 0.52840  0.38610  0.33720  Biso   1.000  H
  C35      1.0000 0.57730  0.74360  0.60520  Biso   1.000  C
  C36      1.0000 0.42270  0.25640  0.39480  Biso   1.000  C
  H17      1.0000 0.65330  0.77920  0.65530  Biso   1.000  H
  H18      1.0000 0.34670  0.22080  0.34470  Biso   1.000  H
  C37      1.0000 0.47130  0.73960  0.46400  Biso   1.000  C
  C38      1.0000 0.52870  0.26040  0.53600  Biso   1.000  C
  H19      1.0000 0.47160  0.77210  0.41300  Biso   1.000  H
  H20      1.0000 0.52840  0.22790  0.58700  Biso   1.000  H
  C39      1.0000 0.35540  0.63990  0.46190  Biso   1.000  C
  C40      1.0000 0.64460  0.36010  0.53810  Biso   1.000  C
  H21      1.0000 0.28100  0.60650  0.41080  Biso   1.000  H
  H22      1.0000 0.71900  0.39350  0.58920  Biso   1.000  H
  C41      1.0000 0.96220  0.03300  0.67670  Biso   1.000  C
  C42      1.0000 0.03780  0.96700  0.32330  Biso   1.000  C
  C43      1.0000 0.97510  0.96540  0.72890  Biso   1.000  C
  C44      1.0000 0.02490  0.03460  0.27110  Biso   1.000  C
  C45      1.0000 0.99840  0.88490  0.79130  Biso   1.000  C
  C46      1.0000 0.00160  0.11510  0.20870  Biso   1.000  C
  C47      1.0000 0.95150  0.73660  0.76200  Biso   1.000  C
  C48      1.0000 0.04850  0.26340  0.23800  Biso   1.000  C
  H23      1.0000 0.90130  0.68760  0.70150  Biso   1.000  H
  H24      1.0000 0.09870  0.31240  0.29850  Biso   1.000  H
  C49      1.0000 0.98040  0.66380  0.82370  Biso   1.000  C
  C50      1.0000 0.01960  0.33620  0.17630  Biso   1.000  C
  H25      1.0000 0.94960  0.56480  0.80280  Biso   1.000  H
  H26      1.0000 0.05040  0.43520  0.19720  Biso   1.000  H
  C51      1.0000 0.09430  0.86980  0.93970  Biso   1.000  C
  C52      1.0000 0.90570  0.13020  0.06030  Biso   1.000  C
  H27      1.0000 0.14300  0.91630  0.00090  Biso   1.000  H
  H28      1.0000 0.85700  0.08370  0.99910  Biso   1.000  H
  C53      1.0000 0.07160  0.95130  0.88250  Biso   1.000  C
  C54      1.0000 0.92840  0.04870  0.11750  Biso   1.000  C
  H29      1.0000 0.10510  0.04990  0.90490  Biso   1.000  H
  H30      1.0000 0.89490  0.95010  0.09510  Biso   1.000  H
  C55      1.0000 0.59340  0.61720  0.86820  Biso   1.000  C
  C56      1.0000 0.40660  0.38280  0.13180  Biso   1.000  C
  H31      1.0000 0.65300  0.55550  0.87390  Biso   1.000  H
  H32      1.0000 0.34700  0.44450  0.12610  Biso   1.000  H
  C57      1.0000 0.45270  0.56340  0.83440  Biso   1.000  C
  C58      1.0000 0.54730  0.43660  0.16560  Biso   1.000  C
  H33      1.0000 0.41660  0.46560  0.81730  Biso   1.000  H
  H34      1.0000 0.58340  0.53440  0.18270  Biso   1.000  H
  C59      1.0000 0.36560  0.65610  0.82600  Biso   1.000  C
  C60      1.0000 0.63440  0.34390  0.17400  Biso   1.000  C
  H35      1.0000 0.27000  0.62060  0.80380  Biso   1.000  H
  H36      1.0000 0.73000  0.37940  0.19620  Biso   1.000  H
  C61      1.0000 0.41870  0.80000  0.85030  Biso   1.000  C
  C62      1.0000 0.58130  0.20000  0.14970  Biso   1.000  C
  H37      1.0000 0.35960  0.86190  0.84400  Biso   1.000  H
  H38      1.0000 0.64040  0.13810  0.15600  Biso   1.000  H
  C63      1.0000 0.55880  0.85210  0.88390  Biso   1.000  C
  C64      1.0000 0.44120  0.14790  0.11610  Biso   1.000  C
  H39      1.0000 0.59500  0.94990  0.90040  Biso   1.000  H
  H40      1.0000 0.40500  0.05010  0.09960  Biso   1.000  H
  C65      1.0000 0.64640  0.76180  0.89350  Biso   1.000  C
  C66      1.0000 0.35360  0.23820  0.10650  Biso   1.000  C
  H41      1.0000 0.74160  0.79810  0.91700  Biso   1.000  H
  H42      1.0000 0.25840  0.20190  0.08300  Biso   1.000  H
