data_image0
_cell_length_a       17.306
_cell_length_b       7.993
_cell_length_c       17.386
_cell_angle_alpha    90
_cell_angle_beta     97.43
_cell_angle_gamma    90

_symmetry_space_group_name_H-M    "P 1"
_symmetry_int_tables_number       1

loop_
  _symmetry_equiv_pos_as_xyz
  'x, y, z'

loop_
  _atom_site_label
  _atom_site_occupancy
  _atom_site_fract_x
  _atom_site_fract_y
  _atom_site_fract_z
  _atom_site_thermal_displace_type
  _atom_site_B_iso_or_equiv
  _atom_site_type_symbol
  Cu1      1.0000 0.07734  0.08005  0.44974  Biso   1.000  Cu
  Cu2      1.0000 0.42266  0.58005  0.05026  Biso   1.000  Cu
  Cu3      1.0000 0.92266  0.91995  0.55026  Biso   1.000  Cu
  Cu4      1.0000 0.57734  0.41995  0.94974  Biso   1.000  Cu
  Cu5      1.0000 0.92454  0.29162  0.45070  Biso   1.000  Cu
  Cu6      1.0000 0.57546  0.79162  0.04930  Biso   1.000  Cu
  Cu7      1.0000 0.07546  0.70838  0.54930  Biso   1.000  Cu
  Cu8      1.0000 0.42454  0.20838  0.95070  Biso   1.000  Cu
  O1       1.0000 0.98960  0.17840  0.37770  Biso   1.000  O
  O2       1.0000 0.51040  0.67840  0.12230  Biso   1.000  O
  O3       1.0000 0.01040  0.82160  0.62230  Biso   1.000  O
  O4       1.0000 0.48960  0.32160  0.87770  Biso   1.000  O
  N1       1.0000 0.12290  0.98070  0.36340  Biso   1.000  N
  N2       1.0000 0.37710  0.48070  0.13660  Biso   1.000  N
  N3       1.0000 0.87710  0.01930  0.63660  Biso   1.000  N
  N4       1.0000 0.62290  0.51930  0.86340  Biso   1.000  N
  N5       1.0000 0.85160  0.38220  0.36490  Biso   1.000  N
  N6       1.0000 0.64840  0.88220  0.13510  Biso   1.000  N
  N7       1.0000 0.14840  0.61780  0.63510  Biso   1.000  N
  N8       1.0000 0.35160  0.11780  0.86490  Biso   1.000  N
  N9       1.0000 0.09970  0.56980  0.46150  Biso   1.000  N
  N10      1.0000 0.40030  0.06980  0.03850  Biso   1.000  N
  N11      1.0000 0.90030  0.43020  0.53850  Biso   1.000  N
  N12      1.0000 0.59970  0.93020  0.96150  Biso   1.000  N
  N13      1.0000 0.12880  0.44960  0.45670  Biso   1.000  N
  N14      1.0000 0.37120  0.94960  0.04330  Biso   1.000  N
  N15      1.0000 0.87120  0.55040  0.54330  Biso   1.000  N
  N16      1.0000 0.62880  0.05040  0.95670  Biso   1.000  N
  N17      1.0000 0.16110  0.31610  0.44780  Biso   1.000  N
  N18      1.0000 0.33890  0.81610  0.05220  Biso   1.000  N
  N19      1.0000 0.83890  0.68390  0.55220  Biso   1.000  N
  N20      1.0000 0.66110  0.18390  0.94780  Biso   1.000  N
  N21      1.0000 0.01340  0.19080  0.51870  Biso   1.000  N
  N22      1.0000 0.48660  0.69080  0.98130  Biso   1.000  N
  N23      1.0000 0.98660  0.80920  0.48130  Biso   1.000  N
  N24      1.0000 0.51340  0.30920  0.01870  Biso   1.000  N
  N25      1.0000 0.03360  0.23440  0.58660  Biso   1.000  N
  N26      1.0000 0.46640  0.73440  0.91340  Biso   1.000  N
  N27      1.0000 0.96640  0.76560  0.41340  Biso   1.000  N
  N28      1.0000 0.53360  0.26560  0.08660  Biso   1.000  N
  N29      1.0000 0.04830  0.27390  0.64900  Biso   1.000  N
  N30      1.0000 0.45170  0.77390  0.85100  Biso   1.000  N
  N31      1.0000 0.95170  0.72610  0.35100  Biso   1.000  N
  N32      1.0000 0.54830  0.22610  0.14900  Biso   1.000  N
  N33      1.0000 0.14110  0.95270  0.53250  Biso   1.000  N
  N34      1.0000 0.35890  0.45270  0.96750  Biso   1.000  N
  N35      1.0000 0.85890  0.04730  0.46750  Biso   1.000  N
  N36      1.0000 0.64110  0.54730  0.03250  Biso   1.000  N
  N37      1.0000 0.18080  0.01590  0.58570  Biso   1.000  N
  N38      1.0000 0.31920  0.51590  0.91430  Biso   1.000  N
  N39      1.0000 0.81920  0.98410  0.41430  Biso   1.000  N
  N40      1.0000 0.68080  0.48410  0.08570  Biso   1.000  N
  N41      1.0000 0.21920  0.07180  0.63860  Biso   1.000  N
  N42      1.0000 0.28080  0.57180  0.86140  Biso   1.000  N
  N43      1.0000 0.78080  0.92820  0.36140  Biso   1.000  N
  N44      1.0000 0.71920  0.42820  0.13860  Biso   1.000  N
  C1       1.0000 0.30620  0.08080  0.38000  Biso   1.000  C
  C2       1.0000 0.19380  0.58080  0.12000  Biso   1.000  C
  C3       1.0000 0.69380  0.91920  0.62000  Biso   1.000  C
  C4       1.0000 0.80620  0.41920  0.88000  Biso   1.000  C
  C5       1.0000 0.37000  0.14140  0.35020  Biso   1.000  C
  C6       1.0000 0.13000  0.64140  0.14980  Biso   1.000  C
  C7       1.0000 0.63000  0.85860  0.64980  Biso   1.000  C
  C8       1.0000 0.87000  0.35860  0.85020  Biso   1.000  C
  C9       1.0000 0.39250  0.07290  0.28430  Biso   1.000  C
  C10      1.0000 0.10750  0.57290  0.21570  Biso   1.000  C
  C11      1.0000 0.60750  0.92710  0.71570  Biso   1.000  C
  C12      1.0000 0.89250  0.42710  0.78430  Biso   1.000  C
  C13      1.0000 0.35110  0.94370  0.24750  Biso   1.000  C
  C14      1.0000 0.14890  0.44370  0.25250  Biso   1.000  C
  C15      1.0000 0.64890  0.05630  0.75250  Biso   1.000  C
  C16      1.0000 0.85110  0.55630  0.74750  Biso   1.000  C
  C17      1.0000 0.28750  0.87880  0.27770  Biso   1.000  C
  C18      1.0000 0.21250  0.37880  0.22230  Biso   1.000  C
  C19      1.0000 0.71250  0.12120  0.72230  Biso   1.000  C
  C20      1.0000 0.78750  0.62120  0.77770  Biso   1.000  C
  C21      1.0000 0.26460  0.94710  0.34480  Biso   1.000  C
  C22      1.0000 0.23540  0.44710  0.15520  Biso   1.000  C
  C23      1.0000 0.73540  0.05290  0.65520  Biso   1.000  C
  C24      1.0000 0.76460  0.55290  0.84480  Biso   1.000  C
  C25      1.0000 0.19600  0.87430  0.37880  Biso   1.000  C
  C26      1.0000 0.30400  0.37430  0.12120  Biso   1.000  C
  C27      1.0000 0.80400  0.12570  0.62120  Biso   1.000  C
  C28      1.0000 0.69600  0.62570  0.87880  Biso   1.000  C
  C29      1.0000 0.09750  0.00090  0.29120  Biso   1.000  C
  C30      1.0000 0.40250  0.50090  0.20880  Biso   1.000  C
  C31      1.0000 0.90250  0.99910  0.70880  Biso   1.000  C
  C32      1.0000 0.59750  0.49910  0.79120  Biso   1.000  C
  C33      1.0000 0.02970  0.09280  0.25730  Biso   1.000  C
  C34      1.0000 0.47030  0.59280  0.24270  Biso   1.000  C
  C35      1.0000 0.97030  0.90720  0.74270  Biso   1.000  C
  C36      1.0000 0.52970  0.40720  0.75730  Biso   1.000  C
  C37      1.0000 0.01690  0.09630  0.17680  Biso   1.000  C
  C38      1.0000 0.48310  0.59630  0.32320  Biso   1.000  C
  C39      1.0000 0.98310  0.90370  0.82320  Biso   1.000  C
  C40      1.0000 0.51690  0.40370  0.67680  Biso   1.000  C
  C41      1.0000 0.95550  0.18010  0.13590  Biso   1.000  C
  C42      1.0000 0.54450  0.68010  0.36410  Biso   1.000  C
  C43      1.0000 0.04450  0.81990  0.86410  Biso   1.000  C
  C44      1.0000 0.45550  0.31990  0.63590  Biso   1.000  C
  C45      1.0000 0.90540  0.26230  0.17810  Biso   1.000  C
  C46      1.0000 0.59460  0.76230  0.32190  Biso   1.000  C
  C47      1.0000 0.09460  0.73770  0.82190  Biso   1.000  C
  C48      1.0000 0.40540  0.23770  0.67810  Biso   1.000  C
  C49      1.0000 0.91540  0.26180  0.25880  Biso   1.000  C
  C50      1.0000 0.58460  0.76180  0.24120  Biso   1.000  C
  C51      1.0000 0.08460  0.73820  0.74120  Biso   1.000  C
  C52      1.0000 0.41540  0.23820  0.75880  Biso   1.000  C
  C53      1.0000 0.97990  0.17850  0.30110  Biso   1.000  C
  C54      1.0000 0.52010  0.67850  0.19890  Biso   1.000  C
  C55      1.0000 0.02010  0.82150  0.69890  Biso   1.000  C
  C56      1.0000 0.47990  0.32150  0.80110  Biso   1.000  C
  C57      1.0000 0.85860  0.35660  0.29300  Biso   1.000  C
  C58      1.0000 0.64140  0.85660  0.20700  Biso   1.000  C
  C59      1.0000 0.14140  0.64340  0.70700  Biso   1.000  C
  C60      1.0000 0.35860  0.14340  0.79300  Biso   1.000  C
  C61      1.0000 0.78210  0.48440  0.37760  Biso   1.000  C
  C62      1.0000 0.71790  0.98440  0.12240  Biso   1.000  C
  C63      1.0000 0.21790  0.51560  0.62240  Biso   1.000  C
  C64      1.0000 0.28210  0.01560  0.87760  Biso   1.000  C
  C65      1.0000 0.71460  0.37660  0.39210  Biso   1.000  C
  C66      1.0000 0.78540  0.87660  0.10790  Biso   1.000  C
  C67      1.0000 0.28540  0.62340  0.60790  Biso   1.000  C
  C68      1.0000 0.21460  0.12340  0.89210  Biso   1.000  C
  C69      1.0000 0.66680  0.30700  0.33000  Biso   1.000  C
  C70      1.0000 0.83320  0.80700  0.17000  Biso   1.000  C
  C71      1.0000 0.33320  0.69300  0.67000  Biso   1.000  C
  C72      1.0000 0.16680  0.19300  0.83000  Biso   1.000  C
  C73      1.0000 0.60450  0.20430  0.34250  Biso   1.000  C
  C74      1.0000 0.89550  0.70430  0.15750  Biso   1.000  C
  C75      1.0000 0.39550  0.79570  0.65750  Biso   1.000  C
  C76      1.0000 0.10450  0.29570  0.84250  Biso   1.000  C
  C77      1.0000 0.59050  0.17200  0.41790  Biso   1.000  C
  C78      1.0000 0.90950  0.67200  0.08210  Biso   1.000  C
  C79      1.0000 0.40950  0.82800  0.58210  Biso   1.000  C
  C80      1.0000 0.09050  0.32800  0.91790  Biso   1.000  C
  C81      1.0000 0.63730  0.24070  0.47930  Biso   1.000  C
  C82      1.0000 0.86270  0.74070  0.02070  Biso   1.000  C
  C83      1.0000 0.36270  0.75930  0.52070  Biso   1.000  C
  C84      1.0000 0.13730  0.25930  0.97930  Biso   1.000  C
  C85      1.0000 0.69900  0.34420  0.46660  Biso   1.000  C
  C86      1.0000 0.80100  0.84420  0.03340  Biso   1.000  C
  C87      1.0000 0.30100  0.65580  0.53340  Biso   1.000  C
  C88      1.0000 0.19900  0.15580  0.96660  Biso   1.000  C
  C89      1.0000 0.94270  0.18370  0.04800  Biso   1.000  C
  C90      1.0000 0.55730  0.68370  0.45200  Biso   1.000  C
  C91      1.0000 0.05730  0.81630  0.95200  Biso   1.000  C
  C92      1.0000 0.44270  0.31630  0.54800  Biso   1.000  C
  H1       1.0000 0.29000  0.13170  0.42600  Biso   1.000  H
  H2       1.0000 0.21000  0.63170  0.07400  Biso   1.000  H
  H3       1.0000 0.71000  0.86830  0.57400  Biso   1.000  H
  H4       1.0000 0.79000  0.36830  0.92600  Biso   1.000  H
  H5       1.0000 0.39950  0.23340  0.37590  Biso   1.000  H
  H6       1.0000 0.10050  0.73340  0.12410  Biso   1.000  H
  H7       1.0000 0.60050  0.76660  0.62410  Biso   1.000  H
  H8       1.0000 0.89950  0.26660  0.87590  Biso   1.000  H
  H9       1.0000 0.43800  0.11630  0.26370  Biso   1.000  H
  H10      1.0000 0.06200  0.61630  0.23630  Biso   1.000  H
  H11      1.0000 0.56200  0.88370  0.73630  Biso   1.000  H
  H12      1.0000 0.93800  0.38370  0.76370  Biso   1.000  H
  H13      1.0000 0.36650  0.89760  0.20010  Biso   1.000  H
  H14      1.0000 0.13350  0.39760  0.29990  Biso   1.000  H
  H15      1.0000 0.63350  0.10240  0.79990  Biso   1.000  H
  H16      1.0000 0.86650  0.60240  0.70010  Biso   1.000  H
  H17      1.0000 0.25870  0.78570  0.25210  Biso   1.000  H
  H18      1.0000 0.24130  0.28570  0.24790  Biso   1.000  H
  H19      1.0000 0.74130  0.21430  0.74790  Biso   1.000  H
  H20      1.0000 0.75870  0.71430  0.75210  Biso   1.000  H
  H21      1.0000 0.18490  0.76440  0.35640  Biso   1.000  H
  H22      1.0000 0.31510  0.26440  0.14360  Biso   1.000  H
  H23      1.0000 0.81510  0.23560  0.64360  Biso   1.000  H
  H24      1.0000 0.68490  0.73560  0.85640  Biso   1.000  H
  H25      1.0000 0.20990  0.86380  0.43440  Biso   1.000  H
  H26      1.0000 0.29010  0.36380  0.06560  Biso   1.000  H
  H27      1.0000 0.79010  0.13620  0.56560  Biso   1.000  H
  H28      1.0000 0.70990  0.63620  0.93440  Biso   1.000  H
  H29      1.0000 0.12780  0.94770  0.25480  Biso   1.000  H
  H30      1.0000 0.37220  0.44770  0.24520  Biso   1.000  H
  H31      1.0000 0.87220  0.05230  0.74520  Biso   1.000  H
  H32      1.0000 0.62780  0.55230  0.75480  Biso   1.000  H
  H33      1.0000 0.05290  0.03700  0.14810  Biso   1.000  H
  H34      1.0000 0.44710  0.53700  0.35190  Biso   1.000  H
  H35      1.0000 0.94710  0.96300  0.85190  Biso   1.000  H
  H36      1.0000 0.55290  0.46300  0.64810  Biso   1.000  H
  H37      1.0000 0.86160  0.32270  0.15080  Biso   1.000  H
  H38      1.0000 0.63840  0.82270  0.34920  Biso   1.000  H
  H39      1.0000 0.13840  0.67730  0.84920  Biso   1.000  H
  H40      1.0000 0.36160  0.17730  0.65080  Biso   1.000  H
  H41      1.0000 0.81910  0.40990  0.25640  Biso   1.000  H
  H42      1.0000 0.68090  0.90990  0.24360  Biso   1.000  H
  H43      1.0000 0.18090  0.59010  0.74360  Biso   1.000  H
  H44      1.0000 0.31910  0.09010  0.75640  Biso   1.000  H
  H45      1.0000 0.76680  0.55220  0.33190  Biso   1.000  H
  H46      1.0000 0.73320  0.05220  0.16810  Biso   1.000  H
  H47      1.0000 0.23320  0.44780  0.66810  Biso   1.000  H
  H48      1.0000 0.26680  0.94780  0.83190  Biso   1.000  H
  H49      1.0000 0.79580  0.55660  0.42210  Biso   1.000  H
  H50      1.0000 0.70420  0.05660  0.07790  Biso   1.000  H
  H51      1.0000 0.20420  0.44340  0.57790  Biso   1.000  H
  H52      1.0000 0.29580  0.94340  0.92210  Biso   1.000  H
  H53      1.0000 0.67680  0.33010  0.27740  Biso   1.000  H
  H54      1.0000 0.82320  0.83010  0.22260  Biso   1.000  H
  H55      1.0000 0.32320  0.66990  0.72260  Biso   1.000  H
  H56      1.0000 0.17680  0.16990  0.77740  Biso   1.000  H
  H57      1.0000 0.57140  0.15580  0.29900  Biso   1.000  H
  H58      1.0000 0.92860  0.65580  0.20100  Biso   1.000  H
  H59      1.0000 0.42860  0.84420  0.70100  Biso   1.000  H
  H60      1.0000 0.07140  0.34420  0.79900  Biso   1.000  H
  H61      1.0000 0.54730  0.10040  0.42710  Biso   1.000  H
  H62      1.0000 0.95270  0.60040  0.07290  Biso   1.000  H
  H63      1.0000 0.45270  0.89960  0.57290  Biso   1.000  H
  H64      1.0000 0.04730  0.39960  0.92710  Biso   1.000  H
  H65      1.0000 0.62730  0.21720  0.53180  Biso   1.000  H
  H66      1.0000 0.87270  0.71720  0.96820  Biso   1.000  H
  H67      1.0000 0.37270  0.78280  0.46820  Biso   1.000  H
  H68      1.0000 0.12730  0.28280  0.03180  Biso   1.000  H
  H69      1.0000 0.73130  0.39390  0.51040  Biso   1.000  H
  H70      1.0000 0.76870  0.89390  0.98960  Biso   1.000  H
  H71      1.0000 0.26870  0.60610  0.48960  Biso   1.000  H
  H72      1.0000 0.23130  0.10610  0.01040  Biso   1.000  H
  H73      1.0000 0.98330  0.11960  0.02800  Biso   1.000  H
  H74      1.0000 0.51670  0.61960  0.47200  Biso   1.000  H
  H75      1.0000 0.01670  0.88040  0.97200  Biso   1.000  H
  H76      1.0000 0.48330  0.38040  0.52800  Biso   1.000  H
  H77      1.0000 0.89230  0.13530  0.02960  Biso   1.000  H
  H78      1.0000 0.60770  0.63530  0.47040  Biso   1.000  H
  H79      1.0000 0.10770  0.86470  0.97040  Biso   1.000  H
  H80      1.0000 0.39230  0.36470  0.52960  Biso   1.000  H
  H81      1.0000 0.94430  0.29850  0.03020  Biso   1.000  H
  H82      1.0000 0.55570  0.79850  0.46980  Biso   1.000  H
  H83      1.0000 0.05570  0.70150  0.96980  Biso   1.000  H
  H84      1.0000 0.44430  0.20150  0.53020  Biso   1.000  H
