data_image0
_cell_length_a       13.1998
_cell_length_b       16.6399
_cell_length_c       21.5591
_cell_angle_alpha    90
_cell_angle_beta     96.415
_cell_angle_gamma    90

_symmetry_space_group_name_H-M    "P 1"
_symmetry_int_tables_number       1

loop_
  _symmetry_equiv_pos_as_xyz
  'x, y, z'

loop_
  _atom_site_label
  _atom_site_occupancy
  _atom_site_fract_x
  _atom_site_fract_y
  _atom_site_fract_z
  _atom_site_thermal_displace_type
  _atom_site_B_iso_or_equiv
  _atom_site_type_symbol
  Cu1      1.0000 0.25599  0.73919  0.99771  Biso   1.000  Cu
  Cu2      1.0000 0.24401  0.23919  0.50229  Biso   1.000  Cu
  Cu3      1.0000 0.74401  0.26081  0.00229  Biso   1.000  Cu
  Cu4      1.0000 0.75599  0.76081  0.49771  Biso   1.000  Cu
  La1      1.0000 0.86943  0.25782  0.18454  Biso   1.000  La
  La2      1.0000 0.63057  0.75782  0.31546  Biso   1.000  La
  La3      1.0000 0.13057  0.74218  0.81546  Biso   1.000  La
  La4      1.0000 0.36943  0.24218  0.68454  Biso   1.000  La
  La5      1.0000 0.64960  0.25774  0.80530  Biso   1.000  La
  La6      1.0000 0.85040  0.75774  0.69470  Biso   1.000  La
  La7      1.0000 0.35040  0.74226  0.19469  Biso   1.000  La
  La8      1.0000 0.14960  0.24226  0.30530  Biso   1.000  La
  C1       1.0000 0.37130  0.92420  0.90040  Biso   1.000  C
  C2       1.0000 0.12870  0.42420  0.59960  Biso   1.000  C
  C3       1.0000 0.62870  0.07580  0.09960  Biso   1.000  C
  C4       1.0000 0.87130  0.57580  0.40040  Biso   1.000  C
  C5       1.0000 0.46220  0.95040  0.92810  Biso   1.000  C
  C6       1.0000 0.03780  0.45040  0.57190  Biso   1.000  C
  C7       1.0000 0.53780  0.04960  0.07190  Biso   1.000  C
  C8       1.0000 0.96220  0.54960  0.42810  Biso   1.000  C
  H1       1.0000 0.49610  0.92670  0.96350  Biso   1.000  H
  H2       1.0000 0.00390  0.42670  0.53650  Biso   1.000  H
  H3       1.0000 0.50390  0.07330  0.03650  Biso   1.000  H
  H4       1.0000 0.99610  0.57330  0.46350  Biso   1.000  H
  C9       1.0000 0.50060  0.01710  0.89810  Biso   1.000  C
  C10      1.0000 0.99940  0.51710  0.60190  Biso   1.000  C
  C11      1.0000 0.49940  0.98290  0.10190  Biso   1.000  C
  C12      1.0000 0.00060  0.48290  0.39810  Biso   1.000  C
  H5       1.0000 0.56200  0.04230  0.91150  Biso   1.000  H
  H6       1.0000 0.93800  0.54230  0.58850  Biso   1.000  H
  H7       1.0000 0.43800  0.95770  0.08850  Biso   1.000  H
  H8       1.0000 0.06200  0.45770  0.41150  Biso   1.000  H
  C13      1.0000 0.43690  0.04040  0.84690  Biso   1.000  C
  C14      1.0000 0.06310  0.54040  0.65310  Biso   1.000  C
  C15      1.0000 0.56310  0.95960  0.15310  Biso   1.000  C
  C16      1.0000 0.93690  0.45960  0.34690  Biso   1.000  C
  C17      1.0000 0.31080  0.85480  0.91950  Biso   1.000  C
  C18      1.0000 0.18920  0.35480  0.58050  Biso   1.000  C
  C19      1.0000 0.68920  0.14520  0.08050  Biso   1.000  C
  C20      1.0000 0.81080  0.64520  0.41950  Biso   1.000  C
  C21      1.0000 0.45500  0.10970  0.80610  Biso   1.000  C
  C22      1.0000 0.04500  0.60970  0.69390  Biso   1.000  C
  C23      1.0000 0.54500  0.89030  0.19390  Biso   1.000  C
  C24      1.0000 0.95500  0.39030  0.30610  Biso   1.000  C
  C25      1.0000 0.16780  0.54630  0.09910  Biso   1.000  C
  C26      1.0000 0.33220  0.04630  0.40090  Biso   1.000  C
  C27      1.0000 0.83220  0.45370  0.90090  Biso   1.000  C
  C28      1.0000 0.66780  0.95370  0.59910  Biso   1.000  C
  C29      1.0000 0.07410  0.51810  0.07690  Biso   1.000  C
  C30      1.0000 0.42590  0.01810  0.42310  Biso   1.000  C
  C31      1.0000 0.92590  0.48190  0.92310  Biso   1.000  C
  C32      1.0000 0.57410  0.98190  0.57690  Biso   1.000  C
  H9       1.0000 0.03210  0.54320  0.04520  Biso   1.000  H
  H10      1.0000 0.46790  0.04320  0.45480  Biso   1.000  H
  H11      1.0000 0.96790  0.45680  0.95480  Biso   1.000  H
  H12      1.0000 0.53210  0.95680  0.54520  Biso   1.000  H
  C33      1.0000 0.04670  0.44740  0.10630  Biso   1.000  C
  C34      1.0000 0.45330  0.94740  0.39370  Biso   1.000  C
  C35      1.0000 0.95330  0.55260  0.89370  Biso   1.000  C
  C36      1.0000 0.54670  0.05260  0.60630  Biso   1.000  C
  H13      1.0000 0.98500  0.42070  0.09670  Biso   1.000  H
  H14      1.0000 0.51500  0.92070  0.40330  Biso   1.000  H
  H15      1.0000 0.01500  0.57930  0.90330  Biso   1.000  H
  H16      1.0000 0.48500  0.07930  0.59670  Biso   1.000  H
  C37      1.0000 0.12230  0.42280  0.15100  Biso   1.000  C
  C38      1.0000 0.37770  0.92280  0.34900  Biso   1.000  C
  C39      1.0000 0.87770  0.57720  0.84900  Biso   1.000  C
  C40      1.0000 0.62230  0.07720  0.65100  Biso   1.000  C
  C41      1.0000 0.22030  0.62000  0.08020  Biso   1.000  C
  C42      1.0000 0.27970  0.12000  0.41980  Biso   1.000  C
  C43      1.0000 0.77970  0.38000  0.91980  Biso   1.000  C
  C44      1.0000 0.72030  0.88000  0.58020  Biso   1.000  C
  C45      1.0000 0.12680  0.35160  0.19330  Biso   1.000  C
  C46      1.0000 0.37320  0.85160  0.30670  Biso   1.000  C
  C47      1.0000 0.87320  0.64840  0.80670  Biso   1.000  C
  C48      1.0000 0.62680  0.14840  0.69330  Biso   1.000  C
  C49      1.0000 0.34480  0.54500  0.89860  Biso   1.000  C
  C50      1.0000 0.15520  0.04500  0.60140  Biso   1.000  C
  C51      1.0000 0.65520  0.45500  0.10140  Biso   1.000  C
  C52      1.0000 0.84480  0.95500  0.39860  Biso   1.000  C
  C53      1.0000 0.43770  0.51790  0.92320  Biso   1.000  C
  C54      1.0000 0.06230  0.01790  0.57680  Biso   1.000  C
  C55      1.0000 0.56230  0.48210  0.07680  Biso   1.000  C
  C56      1.0000 0.93770  0.98210  0.42320  Biso   1.000  C
  H17      1.0000 0.47700  0.54380  0.95580  Biso   1.000  H
  H18      1.0000 0.02300  0.04380  0.54420  Biso   1.000  H
  H19      1.0000 0.52300  0.45620  0.04420  Biso   1.000  H
  H20      1.0000 0.97700  0.95620  0.45580  Biso   1.000  H
  C57      1.0000 0.46890  0.44750  0.89510  Biso   1.000  C
  C58      1.0000 0.03110  0.94750  0.60490  Biso   1.000  C
  C59      1.0000 0.53110  0.55250  0.10490  Biso   1.000  C
  C60      1.0000 0.96890  0.05250  0.39510  Biso   1.000  C
  H21      1.0000 0.53080  0.42190  0.90650  Biso   1.000  H
  H22      1.0000 0.96920  0.92190  0.59350  Biso   1.000  H
  H23      1.0000 0.46920  0.57810  0.09350  Biso   1.000  H
  H24      1.0000 0.03080  0.07810  0.40650  Biso   1.000  H
  C61      1.0000 0.39680  0.42100  0.84880  Biso   1.000  C
  C62      1.0000 0.10320  0.92100  0.65120  Biso   1.000  C
  C63      1.0000 0.60320  0.57900  0.15120  Biso   1.000  C
  C64      1.0000 0.89680  0.07900  0.34880  Biso   1.000  C
  C65      1.0000 0.28950  0.61720  0.91710  Biso   1.000  C
  C66      1.0000 0.21050  0.11720  0.58290  Biso   1.000  C
  C67      1.0000 0.71050  0.38280  0.08290  Biso   1.000  C
  C68      1.0000 0.78950  0.88280  0.41710  Biso   1.000  C
  C69      1.0000 0.40110  0.34860  0.80960  Biso   1.000  C
  C70      1.0000 0.09890  0.84860  0.69040  Biso   1.000  C
  C71      1.0000 0.59890  0.65140  0.19040  Biso   1.000  C
  C72      1.0000 0.90110  0.15140  0.30960  Biso   1.000  C
  C73      1.0000 0.13600  0.92280  0.09460  Biso   1.000  C
  C74      1.0000 0.36400  0.42280  0.40540  Biso   1.000  C
  C75      1.0000 0.86400  0.07720  0.90540  Biso   1.000  C
  C76      1.0000 0.63600  0.57720  0.59460  Biso   1.000  C
  C77      1.0000 0.04180  0.94760  0.07080  Biso   1.000  C
  C78      1.0000 0.45820  0.44760  0.42920  Biso   1.000  C
  C79      1.0000 0.95820  0.05240  0.92920  Biso   1.000  C
  C80      1.0000 0.54180  0.55240  0.57080  Biso   1.000  C
  H25      1.0000 0.00430  0.92310  0.03690  Biso   1.000  H
  H26      1.0000 0.49570  0.42310  0.46310  Biso   1.000  H
  H27      1.0000 0.99570  0.07690  0.96310  Biso   1.000  H
  H28      1.0000 0.50430  0.57690  0.53690  Biso   1.000  H
  C81      1.0000 0.00640  0.01380  0.10240  Biso   1.000  C
  C82      1.0000 0.49360  0.51380  0.39760  Biso   1.000  C
  C83      1.0000 0.99360  0.98620  0.89760  Biso   1.000  C
  C84      1.0000 0.50640  0.48620  0.60240  Biso   1.000  C
  H29      1.0000 0.94330  0.03800  0.09190  Biso   1.000  H
  H30      1.0000 0.55670  0.53800  0.40810  Biso   1.000  H
  H31      1.0000 0.05670  0.96200  0.90810  Biso   1.000  H
  H32      1.0000 0.44330  0.46200  0.59190  Biso   1.000  H
  C85      1.0000 0.07590  0.03850  0.15060  Biso   1.000  C
  C86      1.0000 0.42410  0.53850  0.34940  Biso   1.000  C
  C87      1.0000 0.92410  0.96150  0.84940  Biso   1.000  C
  C88      1.0000 0.57590  0.46150  0.65060  Biso   1.000  C
  C89      1.0000 0.19530  0.85380  0.07460  Biso   1.000  C
  C90      1.0000 0.30470  0.35380  0.42540  Biso   1.000  C
  C91      1.0000 0.80470  0.14620  0.92540  Biso   1.000  C
  C92      1.0000 0.69530  0.64620  0.57460  Biso   1.000  C
  C93      1.0000 0.06400  0.10820  0.19280  Biso   1.000  C
  C94      1.0000 0.43600  0.60820  0.30720  Biso   1.000  C
  C95      1.0000 0.93600  0.89180  0.80720  Biso   1.000  C
  C96      1.0000 0.56400  0.39180  0.69280  Biso   1.000  C
  C97      1.0000 0.61640  0.31780  0.22030  Biso   1.000  C
  C98      1.0000 0.88360  0.81780  0.27970  Biso   1.000  C
  C99      1.0000 0.38360  0.68220  0.77970  Biso   1.000  C
  C100     1.0000 0.11640  0.18220  0.72030  Biso   1.000  C
  C101     1.0000 0.64590  0.36750  0.28400  Biso   1.000  C
  C102     1.0000 0.85410  0.86750  0.21600  Biso   1.000  C
  C103     1.0000 0.35410  0.63250  0.71600  Biso   1.000  C
  C104     1.0000 0.14590  0.13250  0.78400  Biso   1.000  C
  H33      1.0000 0.58680  0.39520  0.29510  Biso   1.000  H
  H34      1.0000 0.91320  0.89520  0.20490  Biso   1.000  H
  H35      1.0000 0.41320  0.60480  0.70490  Biso   1.000  H
  H36      1.0000 0.08680  0.10480  0.79510  Biso   1.000  H
  H37      1.0000 0.69830  0.40580  0.27790  Biso   1.000  H
  H38      1.0000 0.80170  0.90580  0.22210  Biso   1.000  H
  H39      1.0000 0.30170  0.59420  0.72210  Biso   1.000  H
  H40      1.0000 0.19830  0.09420  0.77790  Biso   1.000  H
  H41      1.0000 0.67030  0.33110  0.31690  Biso   1.000  H
  H42      1.0000 0.82970  0.83110  0.18310  Biso   1.000  H
  H43      1.0000 0.32970  0.66890  0.68310  Biso   1.000  H
  H44      1.0000 0.17030  0.16890  0.81690  Biso   1.000  H
  C105     1.0000 0.49990  0.27830  0.13920  Biso   1.000  C
  C106     1.0000 0.00010  0.77830  0.36080  Biso   1.000  C
  C107     1.0000 0.50010  0.72170  0.86080  Biso   1.000  C
  C108     1.0000 0.99990  0.22170  0.63920  Biso   1.000  C
  H45      1.0000 0.55680  0.24580  0.13050  Biso   1.000  H
  H46      1.0000 0.94320  0.74580  0.36950  Biso   1.000  H
  H47      1.0000 0.44320  0.75420  0.86950  Biso   1.000  H
  H48      1.0000 0.05680  0.25420  0.63050  Biso   1.000  H
  H49      1.0000 0.48330  0.31550  0.10550  Biso   1.000  H
  H50      1.0000 0.01670  0.81550  0.39450  Biso   1.000  H
  H51      1.0000 0.51670  0.68450  0.89450  Biso   1.000  H
  H52      1.0000 0.98330  0.18450  0.60550  Biso   1.000  H
  H53      1.0000 0.44220  0.24440  0.14340  Biso   1.000  H
  H54      1.0000 0.05780  0.74440  0.35660  Biso   1.000  H
  H55      1.0000 0.55780  0.75560  0.85660  Biso   1.000  H
  H56      1.0000 0.94220  0.25560  0.64340  Biso   1.000  H
  C109     1.0000 0.45200  0.37980  0.22470  Biso   1.000  C
  C110     1.0000 0.04800  0.87980  0.27530  Biso   1.000  C
  C111     1.0000 0.54800  0.62020  0.77530  Biso   1.000  C
  C112     1.0000 0.95200  0.12020  0.72470  Biso   1.000  C
  H57      1.0000 0.47770  0.40560  0.26310  Biso   1.000  H
  H58      1.0000 0.02230  0.90560  0.23690  Biso   1.000  H
  H59      1.0000 0.52230  0.59440  0.73690  Biso   1.000  H
  H60      1.0000 0.97770  0.09440  0.76310  Biso   1.000  H
  H61      1.0000 0.39320  0.34820  0.23120  Biso   1.000  H
  H62      1.0000 0.10680  0.84820  0.26880  Biso   1.000  H
  H63      1.0000 0.60680  0.65180  0.76880  Biso   1.000  H
  H64      1.0000 0.89320  0.15180  0.73120  Biso   1.000  H
  H65      1.0000 0.43340  0.41970  0.19340  Biso   1.000  H
  H66      1.0000 0.06660  0.91970  0.30660  Biso   1.000  H
  H67      1.0000 0.56660  0.58030  0.80660  Biso   1.000  H
  H68      1.0000 0.93340  0.08030  0.69340  Biso   1.000  H
  C113     1.0000 0.91040  0.32370  0.79380  Biso   1.000  C
  C114     1.0000 0.58960  0.82370  0.70620  Biso   1.000  C
  C115     1.0000 0.08960  0.67630  0.20620  Biso   1.000  C
  C116     1.0000 0.41040  0.17630  0.29380  Biso   1.000  C
  C117     1.0000 0.89990  0.38510  0.73360  Biso   1.000  C
  C118     1.0000 0.60010  0.88510  0.76640  Biso   1.000  C
  C119     1.0000 0.10010  0.61490  0.26640  Biso   1.000  C
  C120     1.0000 0.39990  0.11490  0.23360  Biso   1.000  C
  H69      1.0000 0.96400  0.41140  0.73090  Biso   1.000  H
  H70      1.0000 0.53600  0.91140  0.76910  Biso   1.000  H
  H71      1.0000 0.03600  0.58860  0.26910  Biso   1.000  H
  H72      1.0000 0.46400  0.08860  0.23090  Biso   1.000  H
  H73      1.0000 0.84850  0.42470  0.73880  Biso   1.000  H
  H74      1.0000 0.65150  0.92470  0.76120  Biso   1.000  H
  H75      1.0000 0.15150  0.57530  0.26120  Biso   1.000  H
  H76      1.0000 0.34850  0.07530  0.23880  Biso   1.000  H
  H77      1.0000 0.88100  0.35520  0.69600  Biso   1.000  H
  H78      1.0000 0.61900  0.85520  0.80400  Biso   1.000  H
  H79      1.0000 0.11900  0.64480  0.30400  Biso   1.000  H
  H80      1.0000 0.38100  0.14480  0.19600  Biso   1.000  H
  C121     1.0000 0.00180  0.27200  0.87940  Biso   1.000  C
  C122     1.0000 0.49820  0.77200  0.62060  Biso   1.000  C
  C123     1.0000 0.99820  0.72800  0.12060  Biso   1.000  C
  C124     1.0000 0.50180  0.22800  0.37940  Biso   1.000  C
  H81      1.0000 0.94090  0.24070  0.88060  Biso   1.000  H
  H82      1.0000 0.55910  0.74070  0.61940  Biso   1.000  H
  H83      1.0000 0.05910  0.75930  0.11940  Biso   1.000  H
  H84      1.0000 0.44090  0.25930  0.38060  Biso   1.000  H
  H85      1.0000 0.01140  0.30610  0.91550  Biso   1.000  H
  H86      1.0000 0.48860  0.80610  0.58450  Biso   1.000  H
  H87      1.0000 0.98860  0.69390  0.08450  Biso   1.000  H
  H88      1.0000 0.51140  0.19390  0.41550  Biso   1.000  H
  H89      1.0000 0.05930  0.23670  0.87920  Biso   1.000  H
  H90      1.0000 0.44070  0.73670  0.62080  Biso   1.000  H
  H91      1.0000 0.94070  0.76330  0.12080  Biso   1.000  H
  H92      1.0000 0.55930  0.26330  0.37920  Biso   1.000  H
  C125     1.0000 0.07920  0.37610  0.80730  Biso   1.000  C
  C126     1.0000 0.42080  0.87610  0.69270  Biso   1.000  C
  C127     1.0000 0.92080  0.62390  0.19270  Biso   1.000  C
  C128     1.0000 0.57920  0.12390  0.30730  Biso   1.000  C
  H93      1.0000 0.06420  0.40450  0.76860  Biso   1.000  H
  H94      1.0000 0.43580  0.90450  0.73140  Biso   1.000  H
  H95      1.0000 0.93580  0.59550  0.23140  Biso   1.000  H
  H96      1.0000 0.56420  0.09550  0.26860  Biso   1.000  H
  H97      1.0000 0.13820  0.34290  0.80520  Biso   1.000  H
  H98      1.0000 0.36180  0.84290  0.69480  Biso   1.000  H
  H99      1.0000 0.86180  0.65710  0.19480  Biso   1.000  H
  H100     1.0000 0.63820  0.15710  0.30520  Biso   1.000  H
  H101     1.0000 0.09230  0.41390  0.84080  Biso   1.000  H
  H102     1.0000 0.40770  0.91390  0.65920  Biso   1.000  H
  H103     1.0000 0.90770  0.58610  0.15920  Biso   1.000  H
  H104     1.0000 0.59230  0.08610  0.34080  Biso   1.000  H
  O1       1.0000 0.34570  0.82164  0.97007  Biso   1.000  O
  O2       1.0000 0.15430  0.32164  0.52993  Biso   1.000  O
  O3       1.0000 0.65430  0.17836  0.02993  Biso   1.000  O
  O4       1.0000 0.84570  0.67836  0.47007  Biso   1.000  O
  H105     1.0000 0.01610  0.24970  0.06970  Biso   1.000  H
  H106     1.0000 0.48390  0.74970  0.43030  Biso   1.000  H
  H107     1.0000 0.98390  0.75030  0.93030  Biso   1.000  H
  H108     1.0000 0.51610  0.25030  0.56970  Biso   1.000  H
  H109     1.0000 0.94110  0.22230  0.04470  Biso   1.000  H
  H110     1.0000 0.55890  0.72230  0.45530  Biso   1.000  H
  H111     1.0000 0.05890  0.77770  0.95530  Biso   1.000  H
  H112     1.0000 0.44110  0.27770  0.54470  Biso   1.000  H
  O5       1.0000 0.95600  0.24530  0.08081  Biso   1.000  O
  O6       1.0000 0.54400  0.74530  0.41919  Biso   1.000  O
  O7       1.0000 0.04400  0.75470  0.91919  Biso   1.000  O
  O8       1.0000 0.45600  0.25470  0.58081  Biso   1.000  O
  O9       1.0000 0.23180  0.83570  0.88639  Biso   1.000  O
  O10      1.0000 0.26820  0.33570  0.61361  Biso   1.000  O
  O11      1.0000 0.76820  0.16430  0.11361  Biso   1.000  O
  O12      1.0000 0.73180  0.66430  0.38639  Biso   1.000  O
  O13      1.0000 0.53930  0.14239  0.81818  Biso   1.000  O
  O14      1.0000 0.96070  0.64239  0.68182  Biso   1.000  O
  O15      1.0000 0.46070  0.85761  0.18182  Biso   1.000  O
  O16      1.0000 0.03930  0.35761  0.31818  Biso   1.000  O
  O17      1.0000 0.38670  0.12929  0.76355  Biso   1.000  O
  O18      1.0000 0.11330  0.62929  0.73645  Biso   1.000  O
  O19      1.0000 0.61330  0.87071  0.23645  Biso   1.000  O
  O20      1.0000 0.88670  0.37071  0.26355  Biso   1.000  O
  O21      1.0000 0.17570  0.65584  0.03276  Biso   1.000  O
  O22      1.0000 0.32430  0.15584  0.46724  Biso   1.000  O
  O23      1.0000 0.82430  0.34416  0.96724  Biso   1.000  O
  O24      1.0000 0.67570  0.84416  0.53276  Biso   1.000  O
  O25      1.0000 0.30260  0.64147  0.11067  Biso   1.000  O
  O26      1.0000 0.19740  0.14147  0.38933  Biso   1.000  O
  O27      1.0000 0.69740  0.35853  0.88933  Biso   1.000  O
  O28      1.0000 0.80260  0.85853  0.61067  Biso   1.000  O
  O29      1.0000 0.20770  0.33896  0.22792  Biso   1.000  O
  O30      1.0000 0.29230  0.83896  0.27208  Biso   1.000  O
  O31      1.0000 0.79230  0.66104  0.77208  Biso   1.000  O
  O32      1.0000 0.70770  0.16104  0.72792  Biso   1.000  O
  O33      1.0000 0.04870  0.30723  0.19293  Biso   1.000  O
  O34      1.0000 0.45130  0.80723  0.30707  Biso   1.000  O
  O35      1.0000 0.95130  0.69277  0.80707  Biso   1.000  O
  O36      1.0000 0.54870  0.19277  0.69293  Biso   1.000  O
  O37      1.0000 0.20520  0.63501  0.88770  Biso   1.000  O
  O38      1.0000 0.29480  0.13501  0.61230  Biso   1.000  O
  O39      1.0000 0.79480  0.36499  0.11230  Biso   1.000  O
  O40      1.0000 0.70520  0.86499  0.38770  Biso   1.000  O
  O41      1.0000 0.33440  0.65552  0.96294  Biso   1.000  O
  O42      1.0000 0.16560  0.15552  0.53706  Biso   1.000  O
  O43      1.0000 0.66560  0.34448  0.03706  Biso   1.000  O
  O44      1.0000 0.83440  0.84448  0.46294  Biso   1.000  O
  O45      1.0000 0.32490  0.33140  0.77224  Biso   1.000  O
  O46      1.0000 0.17510  0.83140  0.72776  Biso   1.000  O
  O47      1.0000 0.67510  0.66860  0.22776  Biso   1.000  O
  O48      1.0000 0.82490  0.16860  0.27224  Biso   1.000  O
  O49      1.0000 0.48110  0.30758  0.81673  Biso   1.000  O
  O50      1.0000 0.01890  0.80758  0.68327  Biso   1.000  O
  O51      1.0000 0.51890  0.69242  0.18327  Biso   1.000  O
  O52      1.0000 0.98110  0.19242  0.31673  Biso   1.000  O
  O53      1.0000 0.16520  0.82324  0.02258  Biso   1.000  O
  O54      1.0000 0.33480  0.32324  0.47742  Biso   1.000  O
  O55      1.0000 0.83480  0.17676  0.97742  Biso   1.000  O
  O56      1.0000 0.66520  0.67676  0.52258  Biso   1.000  O
  O57      1.0000 0.27080  0.82918  0.10994  Biso   1.000  O
  O58      1.0000 0.22920  0.32918  0.39006  Biso   1.000  O
  O59      1.0000 0.72920  0.17082  0.89006  Biso   1.000  O
  O60      1.0000 0.77080  0.67082  0.60994  Biso   1.000  O
  O61      1.0000 0.14010  0.12970  0.22996  Biso   1.000  O
  O62      1.0000 0.35990  0.62970  0.27004  Biso   1.000  O
  O63      1.0000 0.85990  0.87030  0.77004  Biso   1.000  O
  O64      1.0000 0.64010  0.37030  0.72996  Biso   1.000  O
  O65      1.0000 0.97760  0.13878  0.18874  Biso   1.000  O
  O66      1.0000 0.52240  0.63878  0.31126  Biso   1.000  O
  O67      1.0000 0.02240  0.86122  0.81126  Biso   1.000  O
  O68      1.0000 0.47760  0.36122  0.68874  Biso   1.000  O
  O69      1.0000 0.68410  0.27950  0.20079  Biso   1.000  O
  O70      1.0000 0.81590  0.77950  0.29921  Biso   1.000  O
  O71      1.0000 0.31590  0.72050  0.79921  Biso   1.000  O
  O72      1.0000 0.18410  0.22050  0.70079  Biso   1.000  O
  O73      1.0000 0.83400  0.28620  0.80286  Biso   1.000  O
  O74      1.0000 0.66600  0.78620  0.69714  Biso   1.000  O
  O75      1.0000 0.16600  0.71380  0.19714  Biso   1.000  O
  O76      1.0000 0.33400  0.21380  0.30286  Biso   1.000  O
  S1       1.0000 0.33054  0.98078  0.83603  Biso   1.000  S
  S2       1.0000 0.16946  0.48078  0.66397  Biso   1.000  S
  S3       1.0000 0.66946  0.01922  0.16397  Biso   1.000  S
  S4       1.0000 0.83054  0.51922  0.33603  Biso   1.000  S
  S5       1.0000 0.22550  0.48626  0.15724  Biso   1.000  S
  S6       1.0000 0.27450  0.98626  0.34276  Biso   1.000  S
  S7       1.0000 0.77450  0.51374  0.84276  Biso   1.000  S
  S8       1.0000 0.72550  0.01374  0.65724  Biso   1.000  S
  S9       1.0000 0.29299  0.48395  0.83917  Biso   1.000  S
  S10      1.0000 0.20701  0.98395  0.66083  Biso   1.000  S
  S11      1.0000 0.70701  0.51605  0.16083  Biso   1.000  S
  S12      1.0000 0.79299  0.01605  0.33917  Biso   1.000  S
  S13      1.0000 0.18443  0.98137  0.15713  Biso   1.000  S
  S14      1.0000 0.31557  0.48137  0.34287  Biso   1.000  S
  S15      1.0000 0.81557  0.01863  0.84287  Biso   1.000  S
  S16      1.0000 0.68443  0.51863  0.65713  Biso   1.000  S
  N1       1.0000 0.52990  0.32810  0.20440  Biso   1.000  N
  N2       1.0000 0.97010  0.82810  0.29560  Biso   1.000  N
  N3       1.0000 0.47010  0.67190  0.79560  Biso   1.000  N
  N4       1.0000 0.02990  0.17190  0.70440  Biso   1.000  N
  N5       1.0000 0.99170  0.32530  0.81820  Biso   1.000  N
  N6       1.0000 0.50830  0.82530  0.68180  Biso   1.000  N
  N7       1.0000 0.00830  0.67470  0.18180  Biso   1.000  N
  N8       1.0000 0.49170  0.17470  0.31820  Biso   1.000  N
