data_image0
_cell_length_a       8.1906
_cell_length_b       8.2536
_cell_length_c       16.5123
_cell_angle_alpha    101.692
_cell_angle_beta     92.713
_cell_angle_gamma    111.222

_symmetry_space_group_name_H-M    "P 1"
_symmetry_int_tables_number       1

loop_
  _symmetry_equiv_pos_as_xyz
  'x, y, z'

loop_
  _atom_site_label
  _atom_site_occupancy
  _atom_site_fract_x
  _atom_site_fract_y
  _atom_site_fract_z
  _atom_site_thermal_displace_type
  _atom_site_B_iso_or_equiv
  _atom_site_type_symbol
  Cu1      1.0000 0.38015  0.01240  0.70791  Biso   1.000  Cu
  Cu2      1.0000 0.49006  0.70372  0.09183  Biso   1.000  Cu
  S1       1.0000 0.96520  0.99400  0.63396  Biso   1.000  S
  S2       1.0000 0.12320  0.76530  0.17385  Biso   1.000  S
  N1       1.0000 0.23050  0.80490  0.75110  Biso   1.000  N
  N2       1.0000 0.38070  0.81400  0.61500  Biso   1.000  N
  N3       1.0000 0.54730  0.59430  0.18200  Biso   1.000  N
  N4       1.0000 0.31270  0.45200  0.04900  Biso   1.000  N
  O1       1.0000 0.53320  0.19640  0.65700  Biso   1.000  O
  O2       1.0000 0.53430  0.44320  0.74210  Biso   1.000  O
  O3       1.0000 0.95690  0.04180  0.72240  Biso   1.000  O
  O4       1.0000 0.14510  0.05040  0.61580  Biso   1.000  O
  O5       1.0000 0.85700  0.05400  0.58570  Biso   1.000  O
  O6       1.0000 0.67360  0.93850  0.14170  Biso   1.000  O
  O7       1.0000 0.62780  0.10290  0.05880  Biso   1.000  O
  O8       1.0000 0.06470  0.88410  0.22990  Biso   1.000  O
  O9       1.0000 0.05470  0.73010  0.08630  Biso   1.000  O
  O10      1.0000 0.31390  0.82310  0.18580  Biso   1.000  O
  O11      1.0000 0.32720  0.18390  0.79540  Biso   1.000  O
  O12      1.0000 0.64230  0.04280  0.79320  Biso   1.000  O
  O13      1.0000 0.70800  0.65150  0.00610  Biso   1.000  O
  O14      1.0000 0.38610  0.78950  0.00690  Biso   1.000  O
  O15      1.0000 0.51180  0.00760  0.35370  Biso   1.000  O
  O16      1.0000 0.65220  0.30640  0.94140  Biso   1.000  O
  O17      1.0000 0.62920  0.76610  0.85920  Biso   1.000  O
  O18      1.0000 0.85910  0.05080  0.41630  Biso   1.000  O
  O19      1.0000 0.22620  0.05170  0.43300  Biso   1.000  O
  C1       1.0000 0.15400  0.81200  0.81950  Biso   1.000  C
  H1       1.0000 0.17470  0.92390  0.85350  Biso   1.000  H
  C2       1.0000 0.04480  0.66240  0.84360  Biso   1.000  C
  H2       1.0000 0.99330  0.67240  0.89250  Biso   1.000  H
  C3       1.0000 0.01580  0.49850  0.79220  Biso   1.000  C
  H3       1.0000 0.94090  0.39500  0.80560  Biso   1.000  H
  C4       1.0000 0.09450  0.48600  0.72270  Biso   1.000  C
  H4       1.0000 0.07610  0.37460  0.68880  Biso   1.000  H
  C5       1.0000 0.20430  0.64260  0.70200  Biso   1.000  C
  C6       1.0000 0.29280  0.64720  0.62630  Biso   1.000  C
  C7       1.0000 0.28740  0.49980  0.56790  Biso   1.000  C
  H5       1.0000 0.22770  0.38570  0.57580  Biso   1.000  H
  C8       1.0000 0.36960  0.52000  0.49800  Biso   1.000  C
  H6       1.0000 0.36810  0.42080  0.45900  Biso   1.000  H
  C9       1.0000 0.45360  0.68860  0.48700  Biso   1.000  C
  H7       1.0000 0.50740  0.70620  0.43940  Biso   1.000  H
  C10      1.0000 0.45710  0.83300  0.54800  Biso   1.000  C
  H8       1.0000 0.51630  0.94790  0.54090  Biso   1.000  H
  C11      1.0000 0.57890  0.36230  0.67980  Biso   1.000  C
  C12      1.0000 0.69700  0.47270  0.62630  Biso   1.000  C
  C13      1.0000 0.74090  0.38780  0.55360  Biso   1.000  C
  H9       1.0000 0.69700  0.26360  0.53730  Biso   1.000  H
  C14      1.0000 0.84860  0.48790  0.50620  Biso   1.000  C
  H10      1.0000 0.87540  0.43140  0.45700  Biso   1.000  H
  C15      1.0000 0.91770  0.67140  0.53100  Biso   1.000  C
  H11      1.0000 0.99120  0.73890  0.49870  Biso   1.000  H
  C16      1.0000 0.87750  0.75500  0.60390  Biso   1.000  C
  C17      1.0000 0.76620  0.65900  0.65090  Biso   1.000  C
  H12      1.0000 0.73660  0.71710  0.69890  Biso   1.000  H
  C18      1.0000 0.66860  0.67770  0.24770  Biso   1.000  C
  H13      1.0000 0.73960  0.79730  0.25300  Biso   1.000  H
  C19      1.0000 0.69420  0.59450  0.30890  Biso   1.000  C
  H14      1.0000 0.78040  0.65690  0.35470  Biso   1.000  H
  C20      1.0000 0.59010  0.41820  0.30070  Biso   1.000  C
  H15      1.0000 0.60510  0.35900  0.34100  Biso   1.000  H
  C21      1.0000 0.46300  0.32910  0.23230  Biso   1.000  C
  H16      1.0000 0.39100  0.20940  0.22590  Biso   1.000  H
  C22      1.0000 0.44420  0.42060  0.17320  Biso   1.000  C
  C23      1.0000 0.30980  0.34140  0.09830  Biso   1.000  C
  C24      1.0000 0.18850  0.16490  0.07800  Biso   1.000  C
  H17      1.0000 0.18850  0.08810  0.11220  Biso   1.000  H
  C25      1.0000 0.06990  0.10620  0.00740  Biso   1.000  C
  H18      1.0000 0.98600  0.98990  0.99370  Biso   1.000  H
  C26      1.0000 0.07560  0.22110  0.95670  Biso   1.000  C
  H19      1.0000 0.99800  0.18260  0.90760  Biso   1.000  H
  C27      1.0000 0.19910  0.39530  0.98030  Biso   1.000  C
  H20      1.0000 0.20180  0.47410  0.94690  Biso   1.000  H
  C28      1.0000 0.70840  0.08280  0.12110  Biso   1.000  C
  C29      1.0000 0.85090  0.24610  0.17460  Biso   1.000  C
  C30      1.0000 0.92820  0.23400  0.24930  Biso   1.000  C
  H21      1.0000 0.89180  0.12520  0.26460  Biso   1.000  H
  C31      1.0000 0.05760  0.38200  0.30020  Biso   1.000  C
  H22      1.0000 0.10640  0.37370  0.35040  Biso   1.000  H
  C32      1.0000 0.11660  0.54620  0.27650  Biso   1.000  C
  H23      1.0000 0.20430  0.64670  0.31080  Biso   1.000  H
  C33      1.0000 0.04350  0.55620  0.20220  Biso   1.000  C
  C34      1.0000 0.91060  0.40920  0.15140  Biso   1.000  C
  H24      1.0000 0.86080  0.41880  0.10170  Biso   1.000  H
  H25      1.0000 0.38800  0.26200  0.77100  Biso   1.000  H
  H26      1.0000 0.21900  0.16900  0.78600  Biso   1.000  H
  H27      1.0000 0.69800  0.01800  0.75400  Biso   1.000  H
  H28      1.0000 0.64700  0.14800  0.79800  Biso   1.000  H
  H29      1.0000 0.80200  0.68500  0.03900  Biso   1.000  H
  H30      1.0000 0.70700  0.73800  0.98600  Biso   1.000  H
  H31      1.0000 0.28600  0.77600  0.02300  Biso   1.000  H
  H32      1.0000 0.45500  0.89800  0.02700  Biso   1.000  H
  H33      1.0000 0.61500  0.02200  0.37400  Biso   1.000  H
  H34      1.0000 0.47600  0.92200  0.31100  Biso   1.000  H
  H35      1.0000 0.72000  0.28300  0.97400  Biso   1.000  H
  H36      1.0000 0.56000  0.30100  0.96400  Biso   1.000  H
  H37      1.0000 0.61700  0.68400  0.81600  Biso   1.000  H
  H38      1.0000 0.52800  0.75200  0.87400  Biso   1.000  H
  H39      1.0000 0.93800  0.01200  0.40000  Biso   1.000  H
  H40      1.0000 0.85600  0.05300  0.46780  Biso   1.000  H
  H41      1.0000 0.20800  0.94100  0.42400  Biso   1.000  H
  H42      1.0000 0.33700  0.11100  0.44200  Biso   1.000  H
