data_image0
_cell_length_a       9.2316
_cell_length_b       19.1836
_cell_length_c       10.6121
_cell_angle_alpha    90
_cell_angle_beta     91.365
_cell_angle_gamma    90

_symmetry_space_group_name_H-M    "P 1"
_symmetry_int_tables_number       1

loop_
  _symmetry_equiv_pos_as_xyz
  'x, y, z'

loop_
  _atom_site_label
  _atom_site_occupancy
  _atom_site_fract_x
  _atom_site_fract_y
  _atom_site_fract_z
  _atom_site_thermal_displace_type
  _atom_site_B_iso_or_equiv
  _atom_site_type_symbol
  Cu1      1.0000 0.27977  0.83471  0.98887  Biso   1.000  Cu
  Cu2      1.0000 0.22023  0.33471  0.51113  Biso   1.000  Cu
  Cu3      1.0000 0.72023  0.16529  0.01113  Biso   1.000  Cu
  Cu4      1.0000 0.77977  0.66529  0.48887  Biso   1.000  Cu
  S1       1.0000 0.45727  0.87655  0.71115  Biso   1.000  S
  S2       1.0000 0.04273  0.37655  0.78885  Biso   1.000  S
  S3       1.0000 0.54273  0.12345  0.28885  Biso   1.000  S
  S4       1.0000 0.95727  0.62345  0.21115  Biso   1.000  S
  N1       1.0000 0.34820  0.73640  0.00280  Biso   1.000  N
  N2       1.0000 0.15180  0.23640  0.49720  Biso   1.000  N
  N3       1.0000 0.65180  0.26360  0.99720  Biso   1.000  N
  N4       1.0000 0.84820  0.76360  0.50280  Biso   1.000  N
  N5       1.0000 0.47620  0.85206  0.06500  Biso   1.000  N
  N6       1.0000 0.02380  0.35206  0.43500  Biso   1.000  N
  N7       1.0000 0.52380  0.14794  0.93500  Biso   1.000  N
  N8       1.0000 0.97620  0.64794  0.56500  Biso   1.000  N
  O1       1.0000 0.08440  0.80701  0.93290  Biso   1.000  O
  O2       1.0000 0.41560  0.30701  0.56710  Biso   1.000  O
  O3       1.0000 0.91560  0.19299  0.06710  Biso   1.000  O
  O4       1.0000 0.58440  0.69299  0.43290  Biso   1.000  O
  O5       1.0000 0.00320  0.91048  0.86750  Biso   1.000  O
  O6       1.0000 0.49680  0.41048  0.63250  Biso   1.000  O
  O7       1.0000 0.99680  0.08952  0.13250  Biso   1.000  O
  O8       1.0000 0.50320  0.58952  0.36750  Biso   1.000  O
  O9       1.0000 0.33640  0.85093  0.78410  Biso   1.000  O
  O10      1.0000 0.16360  0.35093  0.71590  Biso   1.000  O
  O11      1.0000 0.66360  0.14907  0.21590  Biso   1.000  O
  O12      1.0000 0.83640  0.64907  0.28410  Biso   1.000  O
  O13      1.0000 0.49730  0.94716  0.74050  Biso   1.000  O
  O14      1.0000 0.00270  0.44716  0.75950  Biso   1.000  O
  O15      1.0000 0.50270  0.05284  0.25950  Biso   1.000  O
  O16      1.0000 0.99730  0.55284  0.24050  Biso   1.000  O
  O17      1.0000 0.43170  0.86375  0.57870  Biso   1.000  O
  O18      1.0000 0.06830  0.36375  0.92130  Biso   1.000  O
  O19      1.0000 0.56830  0.13625  0.42130  Biso   1.000  O
  O20      1.0000 0.93170  0.63625  0.07870  Biso   1.000  O
  O21      1.0000 0.22020  0.93199  0.01900  Biso   1.000  O
  O22      1.0000 0.27980  0.43199  0.48100  Biso   1.000  O
  O23      1.0000 0.77980  0.06801  0.98100  Biso   1.000  O
  O24      1.0000 0.72020  0.56801  0.51900  Biso   1.000  O
  O25      1.0000 0.32490  0.96340  0.40310  Biso   1.000  O
  O26      1.0000 0.17510  0.46340  0.09690  Biso   1.000  O
  O27      1.0000 0.67510  0.03660  0.59690  Biso   1.000  O
  O28      1.0000 0.82490  0.53660  0.90310  Biso   1.000  O
  O29      1.0000 0.09510  0.96425  0.23740  Biso   1.000  O
  O30      1.0000 0.40490  0.46425  0.26260  Biso   1.000  O
  O31      1.0000 0.90490  0.03575  0.76260  Biso   1.000  O
  O32      1.0000 0.59510  0.53575  0.73740  Biso   1.000  O
  C1       1.0000 0.53210  0.91430  0.09410  Biso   1.000  C
  C2       1.0000 0.96790  0.41430  0.40590  Biso   1.000  C
  C3       1.0000 0.46790  0.08570  0.90590  Biso   1.000  C
  C4       1.0000 0.03210  0.58570  0.59410  Biso   1.000  C
  H1       1.0000 0.47460  0.95380  0.08340  Biso   1.000  H
  H2       1.0000 0.02540  0.45380  0.41660  Biso   1.000  H
  H3       1.0000 0.52540  0.04620  0.91660  Biso   1.000  H
  H4       1.0000 0.97460  0.54620  0.58340  Biso   1.000  H
  C5       1.0000 0.67110  0.92190  0.13920  Biso   1.000  C
  C6       1.0000 0.82890  0.42190  0.36080  Biso   1.000  C
  C7       1.0000 0.32890  0.07810  0.86080  Biso   1.000  C
  C8       1.0000 0.17110  0.57810  0.63920  Biso   1.000  C
  H5       1.0000 0.70680  0.96590  0.16000  Biso   1.000  H
  H6       1.0000 0.79320  0.46590  0.34000  Biso   1.000  H
  H7       1.0000 0.29320  0.03410  0.84000  Biso   1.000  H
  H8       1.0000 0.20680  0.53410  0.66000  Biso   1.000  H
  C9       1.0000 0.75760  0.86410  0.15360  Biso   1.000  C
  C10      1.0000 0.74240  0.36410  0.34640  Biso   1.000  C
  C11      1.0000 0.24240  0.13590  0.84640  Biso   1.000  C
  C12      1.0000 0.25760  0.63590  0.65360  Biso   1.000  C
  H9       1.0000 0.85320  0.86850  0.18200  Biso   1.000  H
  H10      1.0000 0.64680  0.36850  0.31800  Biso   1.000  H
  H11      1.0000 0.14680  0.13150  0.81800  Biso   1.000  H
  H12      1.0000 0.35320  0.63150  0.68200  Biso   1.000  H
  C13      1.0000 0.69990  0.79930  0.12510  Biso   1.000  C
  C14      1.0000 0.80010  0.29930  0.37490  Biso   1.000  C
  C15      1.0000 0.30010  0.20070  0.87490  Biso   1.000  C
  C16      1.0000 0.19990  0.70070  0.62510  Biso   1.000  C
  H13      1.0000 0.75600  0.75930  0.13560  Biso   1.000  H
  H14      1.0000 0.74400  0.25930  0.36440  Biso   1.000  H
  H15      1.0000 0.24400  0.24070  0.86440  Biso   1.000  H
  H16      1.0000 0.25600  0.74070  0.63560  Biso   1.000  H
  C17      1.0000 0.55810  0.79446  0.08080  Biso   1.000  C
  C18      1.0000 0.94190  0.29446  0.41920  Biso   1.000  C
  C19      1.0000 0.44190  0.20554  0.91920  Biso   1.000  C
  C20      1.0000 0.05810  0.70554  0.58080  Biso   1.000  C
  C21      1.0000 0.48510  0.72870  0.04800  Biso   1.000  C
  C22      1.0000 0.01490  0.22870  0.45200  Biso   1.000  C
  C23      1.0000 0.51490  0.27130  0.95200  Biso   1.000  C
  C24      1.0000 0.98510  0.77130  0.54800  Biso   1.000  C
  C25      1.0000 0.54850  0.66375  0.06120  Biso   1.000  C
  C26      1.0000 0.95150  0.16375  0.43880  Biso   1.000  C
  C27      1.0000 0.45150  0.33625  0.93880  Biso   1.000  C
  C28      1.0000 0.04850  0.83625  0.56120  Biso   1.000  C
  H17      1.0000 0.64320  0.65920  0.09200  Biso   1.000  H
  H18      1.0000 0.85680  0.15920  0.40800  Biso   1.000  H
  H19      1.0000 0.35680  0.34080  0.90800  Biso   1.000  H
  H20      1.0000 0.14320  0.84080  0.59200  Biso   1.000  H
  C29      1.0000 0.46830  0.60610  0.02760  Biso   1.000  C
  C30      1.0000 0.03170  0.10610  0.47240  Biso   1.000  C
  C31      1.0000 0.53170  0.39390  0.97240  Biso   1.000  C
  C32      1.0000 0.96830  0.89390  0.52760  Biso   1.000  C
  H21      1.0000 0.50880  0.56180  0.03550  Biso   1.000  H
  H22      1.0000 0.99120  0.06180  0.46450  Biso   1.000  H
  H23      1.0000 0.49120  0.43820  0.96450  Biso   1.000  H
  H24      1.0000 0.00880  0.93820  0.53550  Biso   1.000  H
  C33      1.0000 0.32890  0.61350  0.98260  Biso   1.000  C
  C34      1.0000 0.17110  0.11350  0.51740  Biso   1.000  C
  C35      1.0000 0.67110  0.38650  0.01740  Biso   1.000  C
  C36      1.0000 0.82890  0.88650  0.48260  Biso   1.000  C
  H25      1.0000 0.27380  0.57470  0.95980  Biso   1.000  H
  H26      1.0000 0.22620  0.07470  0.54020  Biso   1.000  H
  H27      1.0000 0.72620  0.42530  0.04020  Biso   1.000  H
  H28      1.0000 0.77380  0.92530  0.45980  Biso   1.000  H
  C37      1.0000 0.27240  0.67940  0.97190  Biso   1.000  C
  C38      1.0000 0.22760  0.17940  0.52810  Biso   1.000  C
  C39      1.0000 0.72760  0.32060  0.02810  Biso   1.000  C
  C40      1.0000 0.77240  0.82060  0.47190  Biso   1.000  C
  H29      1.0000 0.17750  0.68460  0.94180  Biso   1.000  H
  H30      1.0000 0.32250  0.18460  0.55820  Biso   1.000  H
  H31      1.0000 0.82250  0.31540  0.05820  Biso   1.000  H
  H32      1.0000 0.67750  0.81540  0.44180  Biso   1.000  H
  C41      1.0000 0.98980  0.84629  0.88190  Biso   1.000  C
  C42      1.0000 0.51020  0.34629  0.61810  Biso   1.000  C
  C43      1.0000 0.01020  0.15371  0.11810  Biso   1.000  C
  C44      1.0000 0.48980  0.65371  0.38190  Biso   1.000  C
  C45      1.0000 0.85240  0.81240  0.83670  Biso   1.000  C
  C46      1.0000 0.64760  0.31240  0.66330  Biso   1.000  C
  C47      1.0000 0.14760  0.18760  0.16330  Biso   1.000  C
  C48      1.0000 0.35240  0.68760  0.33670  Biso   1.000  C
  C49      1.0000 0.73540  0.85386  0.79920  Biso   1.000  C
  C50      1.0000 0.76460  0.35386  0.70080  Biso   1.000  C
  C51      1.0000 0.26460  0.14614  0.20080  Biso   1.000  C
  C52      1.0000 0.23540  0.64614  0.29920  Biso   1.000  C
  H33      1.0000 0.74350  0.90220  0.80250  Biso   1.000  H
  H34      1.0000 0.75650  0.40220  0.69750  Biso   1.000  H
  H35      1.0000 0.25650  0.09780  0.19750  Biso   1.000  H
  H36      1.0000 0.24350  0.59780  0.30250  Biso   1.000  H
  C53      1.0000 0.60740  0.82371  0.75710  Biso   1.000  C
  C54      1.0000 0.89260  0.32371  0.74290  Biso   1.000  C
  C55      1.0000 0.39260  0.17629  0.24290  Biso   1.000  C
  C56      1.0000 0.10740  0.67629  0.25710  Biso   1.000  C
  C57      1.0000 0.59590  0.75153  0.75000  Biso   1.000  C
  C58      1.0000 0.90410  0.25153  0.75000  Biso   1.000  C
  C59      1.0000 0.40410  0.24847  0.25000  Biso   1.000  C
  C60      1.0000 0.09590  0.74847  0.25000  Biso   1.000  C
  H37      1.0000 0.51070  0.73120  0.71930  Biso   1.000  H
  H38      1.0000 0.98930  0.23120  0.78070  Biso   1.000  H
  H39      1.0000 0.48930  0.26880  0.28070  Biso   1.000  H
  H40      1.0000 0.01070  0.76880  0.21930  Biso   1.000  H
  C61      1.0000 0.71040  0.71026  0.78840  Biso   1.000  C
  C62      1.0000 0.78960  0.21026  0.71160  Biso   1.000  C
  C63      1.0000 0.28960  0.28974  0.21160  Biso   1.000  C
  C64      1.0000 0.21040  0.78974  0.28840  Biso   1.000  C
  H41      1.0000 0.70230  0.66200  0.78410  Biso   1.000  H
  H42      1.0000 0.79770  0.16200  0.71590  Biso   1.000  H
  H43      1.0000 0.29770  0.33800  0.21590  Biso   1.000  H
  H44      1.0000 0.20230  0.83800  0.28410  Biso   1.000  H
  C65      1.0000 0.83810  0.74046  0.83350  Biso   1.000  C
  C66      1.0000 0.66190  0.24046  0.66650  Biso   1.000  C
  C67      1.0000 0.16190  0.25954  0.16650  Biso   1.000  C
  C68      1.0000 0.33810  0.75954  0.33350  Biso   1.000  C
  H45      1.0000 0.91420  0.71230  0.86180  Biso   1.000  H
  H46      1.0000 0.58580  0.21230  0.63820  Biso   1.000  H
  H47      1.0000 0.08580  0.28770  0.13820  Biso   1.000  H
  H48      1.0000 0.41420  0.78770  0.36180  Biso   1.000  H
  H49      1.0000 0.14700  0.93200  0.96900  Biso   1.000  H
  H50      1.0000 0.35300  0.43200  0.53100  Biso   1.000  H
  H51      1.0000 0.85300  0.06800  0.03100  Biso   1.000  H
  H52      1.0000 0.64700  0.56800  0.46900  Biso   1.000  H
  H53      1.0000 0.39500  0.98500  0.36900  Biso   1.000  H
  H54      1.0000 0.10500  0.48500  0.13100  Biso   1.000  H
  H55      1.0000 0.60500  0.01500  0.63100  Biso   1.000  H
  H56      1.0000 0.89500  0.51500  0.86900  Biso   1.000  H
  H57      1.0000 0.05600  0.00470  0.23400  Biso   1.000  H
  H58      1.0000 0.44400  0.50470  0.26600  Biso   1.000  H
  H59      1.0000 0.94400  0.99530  0.76600  Biso   1.000  H
  H60      1.0000 0.55600  0.49530  0.73400  Biso   1.000  H
  H61      1.0000 0.15400  0.96400  0.30000  Biso   1.000  H
  H62      1.0000 0.34600  0.46400  0.20000  Biso   1.000  H
  H63      1.0000 0.84600  0.03600  0.70000  Biso   1.000  H
  H64      1.0000 0.65400  0.53600  0.80000  Biso   1.000  H
  H65      1.0000 0.35800  0.93300  0.45500  Biso   1.000  H
  H66      1.0000 0.14200  0.43300  0.04500  Biso   1.000  H
  H67      1.0000 0.64200  0.06700  0.54500  Biso   1.000  H
  H68      1.0000 0.85800  0.56700  0.95500  Biso   1.000  H
  H69      1.0000 0.19500  0.93500  0.09410  Biso   1.000  H
  H70      1.0000 0.30500  0.43500  0.40590  Biso   1.000  H
  H71      1.0000 0.80500  0.06500  0.90590  Biso   1.000  H
  H72      1.0000 0.69500  0.56500  0.59410  Biso   1.000  H
