data_image0
_cell_length_a       27.189
_cell_length_b       11.293
_cell_length_c       18.569
_cell_angle_alpha    90
_cell_angle_beta     96.5
_cell_angle_gamma    90

_symmetry_space_group_name_H-M    "P 1"
_symmetry_int_tables_number       1

loop_
  _symmetry_equiv_pos_as_xyz
  'x, y, z'

loop_
  _atom_site_label
  _atom_site_occupancy
  _atom_site_fract_x
  _atom_site_fract_y
  _atom_site_fract_z
  _atom_site_thermal_displace_type
  _atom_site_B_iso_or_equiv
  _atom_site_type_symbol
  C1       1.0000 0.97181  0.97990  0.35170  Biso   1.000  C
  C2       1.0000 0.47181  0.47990  0.35170  Biso   1.000  C
  C3       1.0000 0.02819  0.97990  0.14830  Biso   1.000  C
  C4       1.0000 0.52819  0.47990  0.14830  Biso   1.000  C
  C5       1.0000 0.02819  0.02010  0.64830  Biso   1.000  C
  C6       1.0000 0.52819  0.52010  0.64830  Biso   1.000  C
  C7       1.0000 0.97181  0.02010  0.85170  Biso   1.000  C
  C8       1.0000 0.47181  0.52010  0.85170  Biso   1.000  C
  H1       1.0000 0.94040  0.01010  0.33060  Biso   1.000  H
  H2       1.0000 0.44040  0.51010  0.33060  Biso   1.000  H
  H3       1.0000 0.05960  0.01010  0.16940  Biso   1.000  H
  H4       1.0000 0.55960  0.51010  0.16940  Biso   1.000  H
  H5       1.0000 0.05960  0.98990  0.66940  Biso   1.000  H
  H6       1.0000 0.55960  0.48990  0.66940  Biso   1.000  H
  H7       1.0000 0.94040  0.98990  0.83060  Biso   1.000  H
  H8       1.0000 0.44040  0.48990  0.83060  Biso   1.000  H
  H9       1.0000 0.97340  0.98300  0.40360  Biso   1.000  H
  H10      1.0000 0.47340  0.48300  0.40360  Biso   1.000  H
  H11      1.0000 0.02660  0.98300  0.09640  Biso   1.000  H
  H12      1.0000 0.52660  0.48300  0.09640  Biso   1.000  H
  H13      1.0000 0.02660  0.01700  0.59640  Biso   1.000  H
  H14      1.0000 0.52660  0.51700  0.59640  Biso   1.000  H
  H15      1.0000 0.97340  0.01700  0.90360  Biso   1.000  H
  H16      1.0000 0.47340  0.51700  0.90360  Biso   1.000  H
  H17      1.0000 0.97540  0.89930  0.33660  Biso   1.000  H
  H18      1.0000 0.47540  0.39930  0.33660  Biso   1.000  H
  H19      1.0000 0.02460  0.89930  0.16340  Biso   1.000  H
  H20      1.0000 0.52460  0.39930  0.16340  Biso   1.000  H
  H21      1.0000 0.02460  0.10070  0.66340  Biso   1.000  H
  H22      1.0000 0.52460  0.60070  0.66340  Biso   1.000  H
  H23      1.0000 0.97540  0.10070  0.83660  Biso   1.000  H
  H24      1.0000 0.47540  0.60070  0.83660  Biso   1.000  H
  C9       1.0000 0.10980  0.67470  0.20460  Biso   1.000  C
  C10      1.0000 0.60980  0.17470  0.20460  Biso   1.000  C
  C11      1.0000 0.89020  0.67470  0.29540  Biso   1.000  C
  C12      1.0000 0.39020  0.17470  0.29540  Biso   1.000  C
  C13      1.0000 0.89020  0.32530  0.79540  Biso   1.000  C
  C14      1.0000 0.39020  0.82530  0.79540  Biso   1.000  C
  C15      1.0000 0.10980  0.32530  0.70460  Biso   1.000  C
  C16      1.0000 0.60980  0.82530  0.70460  Biso   1.000  C
  C17      1.0000 0.05882  0.01910  0.35458  Biso   1.000  C
  C18      1.0000 0.55882  0.51910  0.35458  Biso   1.000  C
  C19      1.0000 0.94118  0.01910  0.14542  Biso   1.000  C
  C20      1.0000 0.44118  0.51910  0.14542  Biso   1.000  C
  C21      1.0000 0.94118  0.98090  0.64542  Biso   1.000  C
  C22      1.0000 0.44118  0.48090  0.64542  Biso   1.000  C
  C23      1.0000 0.05882  0.98090  0.85458  Biso   1.000  C
  C24      1.0000 0.55882  0.48090  0.85458  Biso   1.000  C
  C25      1.0000 0.11910  0.73000  0.26610  Biso   1.000  C
  C26      1.0000 0.61910  0.23000  0.26610  Biso   1.000  C
  C27      1.0000 0.88090  0.73000  0.23390  Biso   1.000  C
  C28      1.0000 0.38090  0.23000  0.23390  Biso   1.000  C
  C29      1.0000 0.88090  0.27000  0.73390  Biso   1.000  C
  C30      1.0000 0.38090  0.77000  0.73390  Biso   1.000  C
  C31      1.0000 0.11910  0.27000  0.76610  Biso   1.000  C
  C32      1.0000 0.61910  0.77000  0.76610  Biso   1.000  C
  C33      1.0000 0.07128  0.93200  0.40580  Biso   1.000  C
  C34      1.0000 0.57128  0.43200  0.40580  Biso   1.000  C
  C35      1.0000 0.92872  0.93200  0.09420  Biso   1.000  C
  C36      1.0000 0.42872  0.43200  0.09420  Biso   1.000  C
  C37      1.0000 0.92872  0.06800  0.59420  Biso   1.000  C
  C38      1.0000 0.42872  0.56800  0.59420  Biso   1.000  C
  C39      1.0000 0.07128  0.06800  0.90580  Biso   1.000  C
  C40      1.0000 0.57128  0.56800  0.90580  Biso   1.000  C
  H25      1.0000 0.04680  0.88850  0.42480  Biso   1.000  H
  H26      1.0000 0.54680  0.38850  0.42480  Biso   1.000  H
  H27      1.0000 0.95320  0.88850  0.07520  Biso   1.000  H
  H28      1.0000 0.45320  0.38850  0.07520  Biso   1.000  H
  H29      1.0000 0.95320  0.11150  0.57520  Biso   1.000  H
  H30      1.0000 0.45320  0.61150  0.57520  Biso   1.000  H
  H31      1.0000 0.04680  0.11150  0.92480  Biso   1.000  H
  H32      1.0000 0.54680  0.61150  0.92480  Biso   1.000  H
  C41      1.0000 0.12113  0.91030  0.42840  Biso   1.000  C
  C42      1.0000 0.62113  0.41030  0.42840  Biso   1.000  C
  C43      1.0000 0.87887  0.91030  0.07160  Biso   1.000  C
  C44      1.0000 0.37887  0.41030  0.07160  Biso   1.000  C
  C45      1.0000 0.87887  0.08970  0.57160  Biso   1.000  C
  C46      1.0000 0.37887  0.58970  0.57160  Biso   1.000  C
  C47      1.0000 0.12113  0.08970  0.92840  Biso   1.000  C
  C48      1.0000 0.62113  0.58970  0.92840  Biso   1.000  C
  H33      1.0000 0.12970  0.85100  0.46220  Biso   1.000  H
  H34      1.0000 0.62970  0.35100  0.46220  Biso   1.000  H
  H35      1.0000 0.87030  0.85100  0.03780  Biso   1.000  H
  H36      1.0000 0.37030  0.35100  0.03780  Biso   1.000  H
  H37      1.0000 0.87030  0.14900  0.53780  Biso   1.000  H
  H38      1.0000 0.37030  0.64900  0.53780  Biso   1.000  H
  H39      1.0000 0.12970  0.14900  0.96220  Biso   1.000  H
  H40      1.0000 0.62970  0.64900  0.96220  Biso   1.000  H
  C49      1.0000 0.15737  0.97450  0.40180  Biso   1.000  C
  C50      1.0000 0.65737  0.47450  0.40180  Biso   1.000  C
  C51      1.0000 0.84263  0.97450  0.09820  Biso   1.000  C
  C52      1.0000 0.34263  0.47450  0.09820  Biso   1.000  C
  C53      1.0000 0.84263  0.02550  0.59820  Biso   1.000  C
  C54      1.0000 0.34263  0.52550  0.59820  Biso   1.000  C
  C55      1.0000 0.15737  0.02550  0.90180  Biso   1.000  C
  C56      1.0000 0.65737  0.52550  0.90180  Biso   1.000  C
  H41      1.0000 0.19040  0.95940  0.41830  Biso   1.000  H
  H42      1.0000 0.69040  0.45940  0.41830  Biso   1.000  H
  H43      1.0000 0.80960  0.95940  0.08170  Biso   1.000  H
  H44      1.0000 0.30960  0.45940  0.08170  Biso   1.000  H
  H45      1.0000 0.80960  0.04060  0.58170  Biso   1.000  H
  H46      1.0000 0.30960  0.54060  0.58170  Biso   1.000  H
  H47      1.0000 0.19040  0.04060  0.91830  Biso   1.000  H
  H48      1.0000 0.69040  0.54060  0.91830  Biso   1.000  H
  C57      1.0000 0.14550  0.06360  0.34957  Biso   1.000  C
  C58      1.0000 0.64550  0.56360  0.34957  Biso   1.000  C
  C59      1.0000 0.85450  0.06360  0.15043  Biso   1.000  C
  C60      1.0000 0.35450  0.56360  0.15043  Biso   1.000  C
  C61      1.0000 0.85450  0.93640  0.65043  Biso   1.000  C
  C62      1.0000 0.35450  0.43640  0.65043  Biso   1.000  C
  C63      1.0000 0.14550  0.93640  0.84957  Biso   1.000  C
  C64      1.0000 0.64550  0.43640  0.84957  Biso   1.000  C
  C65      1.0000 0.09530  0.08390  0.32469  Biso   1.000  C
  C66      1.0000 0.59530  0.58390  0.32469  Biso   1.000  C
  C67      1.0000 0.90470  0.08390  0.17531  Biso   1.000  C
  C68      1.0000 0.40470  0.58390  0.17531  Biso   1.000  C
  C69      1.0000 0.90470  0.91610  0.67531  Biso   1.000  C
  C70      1.0000 0.40470  0.41610  0.67531  Biso   1.000  C
  C71      1.0000 0.09530  0.91610  0.82469  Biso   1.000  C
  C72      1.0000 0.59530  0.41610  0.82469  Biso   1.000  C
  C73      1.0000 0.18538  0.13410  0.32830  Biso   1.000  C
  C74      1.0000 0.68538  0.63410  0.32830  Biso   1.000  C
  C75      1.0000 0.81462  0.13410  0.17170  Biso   1.000  C
  C76      1.0000 0.31462  0.63410  0.17170  Biso   1.000  C
  C77      1.0000 0.81462  0.86590  0.67170  Biso   1.000  C
  C78      1.0000 0.31462  0.36590  0.67170  Biso   1.000  C
  C79      1.0000 0.18538  0.86590  0.82830  Biso   1.000  C
  C80      1.0000 0.68538  0.36590  0.82830  Biso   1.000  C
  H49      1.0000 0.21650  0.12010  0.35320  Biso   1.000  H
  H50      1.0000 0.71650  0.62010  0.35320  Biso   1.000  H
  H51      1.0000 0.78350  0.12010  0.14680  Biso   1.000  H
  H52      1.0000 0.28350  0.62010  0.14680  Biso   1.000  H
  H53      1.0000 0.78350  0.87990  0.64680  Biso   1.000  H
  H54      1.0000 0.28350  0.37990  0.64680  Biso   1.000  H
  H55      1.0000 0.21650  0.87990  0.85320  Biso   1.000  H
  H56      1.0000 0.71650  0.37990  0.85320  Biso   1.000  H
  C81      1.0000 0.22965  0.27530  0.26840  Biso   1.000  C
  C82      1.0000 0.72965  0.77530  0.26840  Biso   1.000  C
  C83      1.0000 0.77035  0.27530  0.23160  Biso   1.000  C
  C84      1.0000 0.27035  0.77530  0.23160  Biso   1.000  C
  C85      1.0000 0.77035  0.72470  0.73160  Biso   1.000  C
  C86      1.0000 0.27035  0.22470  0.73160  Biso   1.000  C
  C87      1.0000 0.22965  0.72470  0.76840  Biso   1.000  C
  C88      1.0000 0.72965  0.22470  0.76840  Biso   1.000  C
  H57      1.0000 0.24470  0.23640  0.22980  Biso   1.000  H
  H58      1.0000 0.74470  0.73640  0.22980  Biso   1.000  H
  H59      1.0000 0.75530  0.23640  0.27020  Biso   1.000  H
  H60      1.0000 0.25530  0.73640  0.27020  Biso   1.000  H
  H61      1.0000 0.75530  0.76360  0.77020  Biso   1.000  H
  H62      1.0000 0.25530  0.26360  0.77020  Biso   1.000  H
  H63      1.0000 0.24470  0.76360  0.72980  Biso   1.000  H
  H64      1.0000 0.74470  0.26360  0.72980  Biso   1.000  H
  H65      1.0000 0.25250  0.26930  0.31240  Biso   1.000  H
  H66      1.0000 0.75250  0.76930  0.31240  Biso   1.000  H
  H67      1.0000 0.74750  0.26930  0.18760  Biso   1.000  H
  H68      1.0000 0.24750  0.76930  0.18760  Biso   1.000  H
  H69      1.0000 0.74750  0.73070  0.68760  Biso   1.000  H
  H70      1.0000 0.24750  0.23070  0.68760  Biso   1.000  H
  H71      1.0000 0.25250  0.73070  0.81240  Biso   1.000  H
  H72      1.0000 0.75250  0.23070  0.81240  Biso   1.000  H
  C89      1.0000 0.22158  0.40290  0.24960  Biso   1.000  C
  C90      1.0000 0.72158  0.90290  0.24960  Biso   1.000  C
  C91      1.0000 0.77842  0.40290  0.25040  Biso   1.000  C
  C92      1.0000 0.27842  0.90290  0.25040  Biso   1.000  C
  C93      1.0000 0.77842  0.59710  0.75040  Biso   1.000  C
  C94      1.0000 0.27842  0.09710  0.75040  Biso   1.000  C
  C95      1.0000 0.22158  0.59710  0.74960  Biso   1.000  C
  C96      1.0000 0.72158  0.09710  0.74960  Biso   1.000  C
  H73      1.0000 0.19820  0.43590  0.27990  Biso   1.000  H
  H74      1.0000 0.69820  0.93590  0.27990  Biso   1.000  H
  H75      1.0000 0.80180  0.43590  0.22010  Biso   1.000  H
  H76      1.0000 0.30180  0.93590  0.22010  Biso   1.000  H
  H77      1.0000 0.80180  0.56410  0.72010  Biso   1.000  H
  H78      1.0000 0.30180  0.06410  0.72010  Biso   1.000  H
  H79      1.0000 0.19820  0.56410  0.77990  Biso   1.000  H
  H80      1.0000 0.69820  0.06410  0.77990  Biso   1.000  H
  H81      1.0000 0.25260  0.44510  0.26040  Biso   1.000  H
  H82      1.0000 0.75260  0.94510  0.26040  Biso   1.000  H
  H83      1.0000 0.74740  0.44510  0.23960  Biso   1.000  H
  H84      1.0000 0.24740  0.94510  0.23960  Biso   1.000  H
  H85      1.0000 0.74740  0.55490  0.73960  Biso   1.000  H
  H86      1.0000 0.24740  0.05490  0.73960  Biso   1.000  H
  H87      1.0000 0.25260  0.55490  0.76040  Biso   1.000  H
  H88      1.0000 0.75260  0.05490  0.76040  Biso   1.000  H
  C97      1.0000 0.91463  0.31120  0.08110  Biso   1.000  C
  C98      1.0000 0.41463  0.81120  0.08110  Biso   1.000  C
  C99      1.0000 0.08537  0.31120  0.41890  Biso   1.000  C
  C100     1.0000 0.58537  0.81120  0.41890  Biso   1.000  C
  C101     1.0000 0.08537  0.68880  0.91890  Biso   1.000  C
  C102     1.0000 0.58537  0.18880  0.91890  Biso   1.000  C
  C103     1.0000 0.91463  0.68880  0.58110  Biso   1.000  C
  C104     1.0000 0.41463  0.18880  0.58110  Biso   1.000  C
  H89      1.0000 0.89320  0.28620  0.11580  Biso   1.000  H
  H90      1.0000 0.39320  0.78620  0.11580  Biso   1.000  H
  H91      1.0000 0.10680  0.28620  0.38420  Biso   1.000  H
  H92      1.0000 0.60680  0.78620  0.38420  Biso   1.000  H
  H93      1.0000 0.10680  0.71380  0.88420  Biso   1.000  H
  H94      1.0000 0.60680  0.21380  0.88420  Biso   1.000  H
  H95      1.0000 0.89320  0.71380  0.61580  Biso   1.000  H
  H96      1.0000 0.39320  0.21380  0.61580  Biso   1.000  H
  H97      1.0000 0.90520  0.27220  0.03570  Biso   1.000  H
  H98      1.0000 0.40520  0.77220  0.03570  Biso   1.000  H
  H99      1.0000 0.09480  0.27220  0.46430  Biso   1.000  H
  H100     1.0000 0.59480  0.77220  0.46430  Biso   1.000  H
  H101     1.0000 0.09480  0.72780  0.96430  Biso   1.000  H
  H102     1.0000 0.59480  0.22780  0.96430  Biso   1.000  H
  H103     1.0000 0.90520  0.72780  0.53570  Biso   1.000  H
  H104     1.0000 0.40520  0.22780  0.53570  Biso   1.000  H
  H105     1.0000 0.91190  0.39530  0.07450  Biso   1.000  H
  H106     1.0000 0.41190  0.89530  0.07450  Biso   1.000  H
  H107     1.0000 0.08810  0.39530  0.42550  Biso   1.000  H
  H108     1.0000 0.58810  0.89530  0.42550  Biso   1.000  H
  H109     1.0000 0.08810  0.60470  0.92550  Biso   1.000  H
  H110     1.0000 0.58810  0.10470  0.92550  Biso   1.000  H
  H111     1.0000 0.91190  0.60470  0.57450  Biso   1.000  H
  H112     1.0000 0.41190  0.10470  0.57450  Biso   1.000  H
  C105     1.0000 0.99969  0.30720  0.06089  Biso   1.000  C
  C106     1.0000 0.49969  0.80720  0.06089  Biso   1.000  C
  C107     1.0000 0.00031  0.30720  0.43911  Biso   1.000  C
  C108     1.0000 0.50031  0.80720  0.43911  Biso   1.000  C
  C109     1.0000 0.00031  0.69280  0.93911  Biso   1.000  C
  C110     1.0000 0.50031  0.19280  0.93911  Biso   1.000  C
  C111     1.0000 0.99969  0.69280  0.56089  Biso   1.000  C
  C112     1.0000 0.49969  0.19280  0.56089  Biso   1.000  C
  C113     1.0000 0.98886  0.32860  0.98720  Biso   1.000  C
  C114     1.0000 0.48886  0.82860  0.98720  Biso   1.000  C
  C115     1.0000 0.01114  0.32860  0.51280  Biso   1.000  C
  C116     1.0000 0.51114  0.82860  0.51280  Biso   1.000  C
  C117     1.0000 0.01114  0.67140  0.01280  Biso   1.000  C
  C118     1.0000 0.51114  0.17140  0.01280  Biso   1.000  C
  C119     1.0000 0.98886  0.67140  0.48720  Biso   1.000  C
  C120     1.0000 0.48886  0.17140  0.48720  Biso   1.000  C
  H113     1.0000 0.95650  0.32230  0.96540  Biso   1.000  H
  H114     1.0000 0.45650  0.82230  0.96540  Biso   1.000  H
  H115     1.0000 0.04350  0.32230  0.53460  Biso   1.000  H
  H116     1.0000 0.54350  0.82230  0.53460  Biso   1.000  H
  H117     1.0000 0.04350  0.67770  0.03460  Biso   1.000  H
  H118     1.0000 0.54350  0.17770  0.03460  Biso   1.000  H
  H119     1.0000 0.95650  0.67770  0.46540  Biso   1.000  H
  H120     1.0000 0.45650  0.17770  0.46540  Biso   1.000  H
  C121     1.0000 0.02670  0.35950  0.94610  Biso   1.000  C
  C122     1.0000 0.52670  0.85950  0.94610  Biso   1.000  C
  C123     1.0000 0.97330  0.35950  0.55390  Biso   1.000  C
  C124     1.0000 0.47330  0.85950  0.55390  Biso   1.000  C
  C125     1.0000 0.97330  0.64050  0.05390  Biso   1.000  C
  C126     1.0000 0.47330  0.14050  0.05390  Biso   1.000  C
  C127     1.0000 0.02670  0.64050  0.44610  Biso   1.000  C
  C128     1.0000 0.52670  0.14050  0.44610  Biso   1.000  C
  H121     1.0000 0.01970  0.37110  0.89640  Biso   1.000  H
  H122     1.0000 0.51970  0.87110  0.89640  Biso   1.000  H
  H123     1.0000 0.98030  0.37110  0.60360  Biso   1.000  H
  H124     1.0000 0.48030  0.87110  0.60360  Biso   1.000  H
  H125     1.0000 0.98030  0.62890  0.10360  Biso   1.000  H
  H126     1.0000 0.48030  0.12890  0.10360  Biso   1.000  H
  H127     1.0000 0.01970  0.62890  0.39640  Biso   1.000  H
  H128     1.0000 0.51970  0.12890  0.39640  Biso   1.000  H
  C129     1.0000 0.07419  0.37270  0.97840  Biso   1.000  C
  C130     1.0000 0.57419  0.87270  0.97840  Biso   1.000  C
  C131     1.0000 0.92581  0.37270  0.52160  Biso   1.000  C
  C132     1.0000 0.42581  0.87270  0.52160  Biso   1.000  C
  C133     1.0000 0.92581  0.62730  0.02160  Biso   1.000  C
  C134     1.0000 0.42581  0.12730  0.02160  Biso   1.000  C
  C135     1.0000 0.07419  0.62730  0.47840  Biso   1.000  C
  C136     1.0000 0.57419  0.12730  0.47840  Biso   1.000  C
  H129     1.0000 0.09900  0.39650  0.95090  Biso   1.000  H
  H130     1.0000 0.59900  0.89650  0.95090  Biso   1.000  H
  H131     1.0000 0.90100  0.39650  0.54910  Biso   1.000  H
  H132     1.0000 0.40100  0.89650  0.54910  Biso   1.000  H
  H133     1.0000 0.90100  0.60350  0.04910  Biso   1.000  H
  H134     1.0000 0.40100  0.10350  0.04910  Biso   1.000  H
  H135     1.0000 0.09900  0.60350  0.45090  Biso   1.000  H
  H136     1.0000 0.59900  0.10350  0.45090  Biso   1.000  H
  C137     1.0000 0.08574  0.35050  0.05316  Biso   1.000  C
  C138     1.0000 0.58574  0.85050  0.05316  Biso   1.000  C
  C139     1.0000 0.91426  0.35050  0.44684  Biso   1.000  C
  C140     1.0000 0.41426  0.85050  0.44684  Biso   1.000  C
  C141     1.0000 0.91426  0.64950  0.94684  Biso   1.000  C
  C142     1.0000 0.41426  0.14950  0.94684  Biso   1.000  C
  C143     1.0000 0.08574  0.64950  0.55316  Biso   1.000  C
  C144     1.0000 0.58574  0.14950  0.55316  Biso   1.000  C
  C145     1.0000 0.04860  0.31320  0.09426  Biso   1.000  C
  C146     1.0000 0.54860  0.81320  0.09426  Biso   1.000  C
  C147     1.0000 0.95140  0.31320  0.40574  Biso   1.000  C
  C148     1.0000 0.45140  0.81320  0.40574  Biso   1.000  C
  C149     1.0000 0.95140  0.68680  0.90574  Biso   1.000  C
  C150     1.0000 0.45140  0.18680  0.90574  Biso   1.000  C
  C151     1.0000 0.04860  0.68680  0.59426  Biso   1.000  C
  C152     1.0000 0.54860  0.18680  0.59426  Biso   1.000  C
  C153     1.0000 0.13475  0.38210  0.08580  Biso   1.000  C
  C154     1.0000 0.63475  0.88210  0.08580  Biso   1.000  C
  C155     1.0000 0.86525  0.38210  0.41420  Biso   1.000  C
  C156     1.0000 0.36525  0.88210  0.41420  Biso   1.000  C
  C157     1.0000 0.86525  0.61790  0.91420  Biso   1.000  C
  C158     1.0000 0.36525  0.11790  0.91420  Biso   1.000  C
  C159     1.0000 0.13475  0.61790  0.58580  Biso   1.000  C
  C160     1.0000 0.63475  0.11790  0.58580  Biso   1.000  C
  H137     1.0000 0.15470  0.42120  0.05590  Biso   1.000  H
  H138     1.0000 0.65470  0.92120  0.05590  Biso   1.000  H
  H139     1.0000 0.84530  0.42120  0.44410  Biso   1.000  H
  H140     1.0000 0.34530  0.92120  0.44410  Biso   1.000  H
  H141     1.0000 0.84530  0.57880  0.94410  Biso   1.000  H
  H142     1.0000 0.34530  0.07880  0.94410  Biso   1.000  H
  H143     1.0000 0.15470  0.57880  0.55590  Biso   1.000  H
  H144     1.0000 0.65470  0.07880  0.55590  Biso   1.000  H
  C161     1.0000 0.20257  0.42250  0.17200  Biso   1.000  C
  C162     1.0000 0.70257  0.92250  0.17200  Biso   1.000  C
  C163     1.0000 0.79743  0.42250  0.32800  Biso   1.000  C
  C164     1.0000 0.29743  0.92250  0.32800  Biso   1.000  C
  C165     1.0000 0.79743  0.57750  0.82800  Biso   1.000  C
  C166     1.0000 0.29743  0.07750  0.82800  Biso   1.000  C
  C167     1.0000 0.20257  0.57750  0.67200  Biso   1.000  C
  C168     1.0000 0.70257  0.07750  0.67200  Biso   1.000  C
  H145     1.0000 0.22660  0.39280  0.14170  Biso   1.000  H
  H146     1.0000 0.72660  0.89280  0.14170  Biso   1.000  H
  H147     1.0000 0.77340  0.39280  0.35830  Biso   1.000  H
  H148     1.0000 0.27340  0.89280  0.35830  Biso   1.000  H
  H149     1.0000 0.77340  0.60720  0.85830  Biso   1.000  H
  H150     1.0000 0.27340  0.10720  0.85830  Biso   1.000  H
  H151     1.0000 0.22660  0.60720  0.64170  Biso   1.000  H
  H152     1.0000 0.72660  0.10720  0.64170  Biso   1.000  H
  H153     1.0000 0.19880  0.50690  0.16320  Biso   1.000  H
  H154     1.0000 0.69880  0.00690  0.16320  Biso   1.000  H
  H155     1.0000 0.80120  0.50690  0.33680  Biso   1.000  H
  H156     1.0000 0.30120  0.00690  0.33680  Biso   1.000  H
  H157     1.0000 0.80120  0.49310  0.83680  Biso   1.000  H
  H158     1.0000 0.30120  0.99310  0.83680  Biso   1.000  H
  H159     1.0000 0.19880  0.49310  0.66320  Biso   1.000  H
  H160     1.0000 0.69880  0.99310  0.66320  Biso   1.000  H
  C169     1.0000 0.24899  0.00280  0.06070  Biso   1.000  C
  C170     1.0000 0.74899  0.50280  0.06070  Biso   1.000  C
  C171     1.0000 0.75101  0.00280  0.43930  Biso   1.000  C
  C172     1.0000 0.25101  0.50280  0.43930  Biso   1.000  C
  C173     1.0000 0.75101  0.99720  0.93930  Biso   1.000  C
  C174     1.0000 0.25101  0.49720  0.93930  Biso   1.000  C
  C175     1.0000 0.24899  0.99720  0.56070  Biso   1.000  C
  C176     1.0000 0.74899  0.49720  0.56070  Biso   1.000  C
  C177     1.0000 0.20427  0.95900  0.07511  Biso   1.000  C
  C178     1.0000 0.70427  0.45900  0.07511  Biso   1.000  C
  C179     1.0000 0.79573  0.95900  0.42489  Biso   1.000  C
  C180     1.0000 0.29573  0.45900  0.42489  Biso   1.000  C
  C181     1.0000 0.79573  0.04100  0.92489  Biso   1.000  C
  C182     1.0000 0.29573  0.54100  0.92489  Biso   1.000  C
  C183     1.0000 0.20427  0.04100  0.57511  Biso   1.000  C
  C184     1.0000 0.70427  0.54100  0.57511  Biso   1.000  C
  C185     1.0000 0.26405  0.12090  0.07950  Biso   1.000  C
  C186     1.0000 0.76405  0.62090  0.07950  Biso   1.000  C
  C187     1.0000 0.73595  0.12090  0.42050  Biso   1.000  C
  C188     1.0000 0.23595  0.62090  0.42050  Biso   1.000  C
  C189     1.0000 0.73595  0.87910  0.92050  Biso   1.000  C
  C190     1.0000 0.23595  0.37910  0.92050  Biso   1.000  C
  C191     1.0000 0.26405  0.87910  0.57950  Biso   1.000  C
  C192     1.0000 0.76405  0.37910  0.57950  Biso   1.000  C
  C193     1.0000 0.17067  0.02930  0.10990  Biso   1.000  C
  C194     1.0000 0.67067  0.52930  0.10990  Biso   1.000  C
  C195     1.0000 0.82933  0.02930  0.39010  Biso   1.000  C
  C196     1.0000 0.32933  0.52930  0.39010  Biso   1.000  C
  C197     1.0000 0.82933  0.97070  0.89010  Biso   1.000  C
  C198     1.0000 0.32933  0.47070  0.89010  Biso   1.000  C
  C199     1.0000 0.17067  0.97070  0.60990  Biso   1.000  C
  C200     1.0000 0.67067  0.47070  0.60990  Biso   1.000  C
  Cu1      1.0000 0.12301  0.25182  0.21371  Biso   1.000  Cu
  Cu2      1.0000 0.62301  0.75182  0.21371  Biso   1.000  Cu
  Cu3      1.0000 0.87699  0.25182  0.28629  Biso   1.000  Cu
  Cu4      1.0000 0.37699  0.75182  0.28629  Biso   1.000  Cu
  Cu5      1.0000 0.87699  0.74818  0.78629  Biso   1.000  Cu
  Cu6      1.0000 0.37699  0.24818  0.78629  Biso   1.000  Cu
  Cu7      1.0000 0.12301  0.74818  0.71371  Biso   1.000  Cu
  Cu8      1.0000 0.62301  0.24818  0.71371  Biso   1.000  Cu
  Sm1      1.0000 0.00000  0.24513  0.25000  Biso   1.000  Sm
  Sm2      1.0000 0.50000  0.74513  0.25000  Biso   1.000  Sm
  Sm3      1.0000 0.00000  0.75487  0.75000  Biso   1.000  Sm
  Sm4      1.0000 0.50000  0.25487  0.75000  Biso   1.000  Sm
  N1       1.0000 0.18320  0.21380  0.27930  Biso   1.000  N
  N2       1.0000 0.68320  0.71380  0.27930  Biso   1.000  N
  N3       1.0000 0.81680  0.21380  0.22070  Biso   1.000  N
  N4       1.0000 0.31680  0.71380  0.22070  Biso   1.000  N
  N5       1.0000 0.81680  0.78620  0.72070  Biso   1.000  N
  N6       1.0000 0.31680  0.28620  0.72070  Biso   1.000  N
  N7       1.0000 0.18320  0.78620  0.77930  Biso   1.000  N
  N8       1.0000 0.68320  0.28620  0.77930  Biso   1.000  N
  N9       1.0000 0.10340  0.63200  0.14840  Biso   1.000  N
  N10      1.0000 0.60340  0.13200  0.14840  Biso   1.000  N
  N11      1.0000 0.89660  0.63200  0.35160  Biso   1.000  N
  N12      1.0000 0.39660  0.13200  0.35160  Biso   1.000  N
  N13      1.0000 0.89660  0.36800  0.85160  Biso   1.000  N
  N14      1.0000 0.39660  0.86800  0.85160  Biso   1.000  N
  N15      1.0000 0.10340  0.36800  0.64840  Biso   1.000  N
  N16      1.0000 0.60340  0.86800  0.64840  Biso   1.000  N
  N17      1.0000 0.15407  0.36290  0.15108  Biso   1.000  N
  N18      1.0000 0.65407  0.86290  0.15108  Biso   1.000  N
  N19      1.0000 0.84593  0.36290  0.34892  Biso   1.000  N
  N20      1.0000 0.34593  0.86290  0.34892  Biso   1.000  N
  N21      1.0000 0.84593  0.63710  0.84892  Biso   1.000  N
  N22      1.0000 0.34593  0.13710  0.84892  Biso   1.000  N
  N23      1.0000 0.15407  0.63710  0.65108  Biso   1.000  N
  N24      1.0000 0.65407  0.13710  0.65108  Biso   1.000  N
  N25      1.0000 0.27662  0.21570  0.09390  Biso   1.000  N
  N26      1.0000 0.77662  0.71570  0.09390  Biso   1.000  N
  N27      1.0000 0.72338  0.21570  0.40610  Biso   1.000  N
  N28      1.0000 0.22338  0.71570  0.40610  Biso   1.000  N
  N29      1.0000 0.72338  0.78430  0.90610  Biso   1.000  N
  N30      1.0000 0.22338  0.28430  0.90610  Biso   1.000  N
  N31      1.0000 0.27662  0.78430  0.59390  Biso   1.000  N
  N32      1.0000 0.77662  0.28430  0.59390  Biso   1.000  N
  N33      1.0000 0.14359  0.08570  0.13838  Biso   1.000  N
  N34      1.0000 0.64359  0.58570  0.13838  Biso   1.000  N
  N35      1.0000 0.85641  0.08570  0.36162  Biso   1.000  N
  N36      1.0000 0.35641  0.58570  0.36162  Biso   1.000  N
  N37      1.0000 0.85641  0.91430  0.86162  Biso   1.000  N
  N38      1.0000 0.35641  0.41430  0.86162  Biso   1.000  N
  N39      1.0000 0.14359  0.91430  0.63838  Biso   1.000  N
  N40      1.0000 0.64359  0.41430  0.63838  Biso   1.000  N
  N41      1.0000 0.00000  0.50680  0.25000  Biso   1.000  N
  N42      1.0000 0.50000  0.00680  0.25000  Biso   1.000  N
  N43      1.0000 0.00000  0.49320  0.75000  Biso   1.000  N
  N44      1.0000 0.50000  0.99320  0.75000  Biso   1.000  N
  Ni1      1.0000 0.25000  0.75000  0.00000  Biso   1.000  Ni
  Ni2      1.0000 0.75000  0.25000  0.00000  Biso   1.000  Ni
  Ni3      1.0000 0.75000  0.75000  0.50000  Biso   1.000  Ni
  Ni4      1.0000 0.25000  0.25000  0.50000  Biso   1.000  Ni
  O1       1.0000 0.01076  0.05010  0.32827  Biso   1.000  O
  O2       1.0000 0.51076  0.55010  0.32827  Biso   1.000  O
  O3       1.0000 0.98924  0.05010  0.17173  Biso   1.000  O
  O4       1.0000 0.48924  0.55010  0.17173  Biso   1.000  O
  O5       1.0000 0.98924  0.94990  0.67173  Biso   1.000  O
  O6       1.0000 0.48924  0.44990  0.67173  Biso   1.000  O
  O7       1.0000 0.01076  0.94990  0.82827  Biso   1.000  O
  O8       1.0000 0.51076  0.44990  0.82827  Biso   1.000  O
  O9       1.0000 0.08069  0.16678  0.27523  Biso   1.000  O
  O10      1.0000 0.58069  0.66678  0.27523  Biso   1.000  O
  O11      1.0000 0.91931  0.16678  0.22477  Biso   1.000  O
  O12      1.0000 0.41931  0.66678  0.22477  Biso   1.000  O
  O13      1.0000 0.91931  0.83322  0.72477  Biso   1.000  O
  O14      1.0000 0.41931  0.33322  0.72477  Biso   1.000  O
  O15      1.0000 0.08069  0.83322  0.77523  Biso   1.000  O
  O16      1.0000 0.58069  0.33322  0.77523  Biso   1.000  O
  O17      1.0000 0.05723  0.28600  0.16461  Biso   1.000  O
  O18      1.0000 0.55723  0.78600  0.16461  Biso   1.000  O
  O19      1.0000 0.94277  0.28600  0.33539  Biso   1.000  O
  O20      1.0000 0.44277  0.78600  0.33539  Biso   1.000  O
  O21      1.0000 0.94277  0.71400  0.83539  Biso   1.000  O
  O22      1.0000 0.44277  0.21400  0.83539  Biso   1.000  O
  O23      1.0000 0.05723  0.71400  0.66461  Biso   1.000  O
  O24      1.0000 0.55723  0.21400  0.66461  Biso   1.000  O
  O25      1.0000 0.96491  0.28100  0.10687  Biso   1.000  O
  O26      1.0000 0.46491  0.78100  0.10687  Biso   1.000  O
  O27      1.0000 0.03509  0.28100  0.39313  Biso   1.000  O
  O28      1.0000 0.53509  0.78100  0.39313  Biso   1.000  O
  O29      1.0000 0.03509  0.71900  0.89313  Biso   1.000  O
  O30      1.0000 0.53509  0.21900  0.89313  Biso   1.000  O
  O31      1.0000 0.96491  0.71900  0.60687  Biso   1.000  O
  O32      1.0000 0.46491  0.21900  0.60687  Biso   1.000  O
  O33      1.0000 0.03485  0.44870  0.28335  Biso   1.000  O
  O34      1.0000 0.53485  0.94870  0.28335  Biso   1.000  O
  O35      1.0000 0.96515  0.44870  0.21665  Biso   1.000  O
  O36      1.0000 0.46515  0.94870  0.21665  Biso   1.000  O
  O37      1.0000 0.96515  0.55130  0.71665  Biso   1.000  O
  O38      1.0000 0.46515  0.05130  0.71665  Biso   1.000  O
  O39      1.0000 0.03485  0.55130  0.78335  Biso   1.000  O
  O40      1.0000 0.53485  0.05130  0.78335  Biso   1.000  O
  O41      1.0000 0.00000  0.61500  0.25000  Biso   1.000  O
  O42      1.0000 0.50000  0.11500  0.25000  Biso   1.000  O
  O43      1.0000 0.00000  0.38500  0.75000  Biso   1.000  O
  O44      1.0000 0.50000  0.88500  0.75000  Biso   1.000  O
  S1       1.0000 0.29026  0.91469  0.02015  Biso   1.000  S
  S2       1.0000 0.79026  0.41469  0.02015  Biso   1.000  S
  S3       1.0000 0.70974  0.91469  0.47985  Biso   1.000  S
  S4       1.0000 0.20974  0.41469  0.47985  Biso   1.000  S
  S5       1.0000 0.70974  0.08531  0.97985  Biso   1.000  S
  S6       1.0000 0.20974  0.58531  0.97985  Biso   1.000  S
  S7       1.0000 0.29026  0.08531  0.52015  Biso   1.000  S
  S8       1.0000 0.79026  0.58531  0.52015  Biso   1.000  S
  S9       1.0000 0.18739  0.81439  0.05239  Biso   1.000  S
  S10      1.0000 0.68739  0.31439  0.05239  Biso   1.000  S
  S11      1.0000 0.81261  0.81439  0.44761  Biso   1.000  S
  S12      1.0000 0.31261  0.31439  0.44761  Biso   1.000  S
  S13      1.0000 0.81261  0.18561  0.94761  Biso   1.000  S
  S14      1.0000 0.31261  0.68561  0.94761  Biso   1.000  S
  S15      1.0000 0.18739  0.18561  0.55239  Biso   1.000  S
  S16      1.0000 0.68739  0.68561  0.55239  Biso   1.000  S
