data_image0
_cell_length_a       8.5976
_cell_length_b       12.3389
_cell_length_c       11.7405
_cell_angle_alpha    90
_cell_angle_beta     107.612
_cell_angle_gamma    90

_symmetry_space_group_name_H-M    "P 1"
_symmetry_int_tables_number       1

loop_
  _symmetry_equiv_pos_as_xyz
  'x, y, z'

loop_
  _atom_site_label
  _atom_site_occupancy
  _atom_site_fract_x
  _atom_site_fract_y
  _atom_site_fract_z
  _atom_site_thermal_displace_type
  _atom_site_B_iso_or_equiv
  _atom_site_type_symbol
  Cu1      1.0000 0.73784  0.24711  0.12218  Biso   1.000  Cu
  Cu2      1.0000 0.26216  0.74711  0.37782  Biso   1.000  Cu
  Cu3      1.0000 0.26216  0.75289  0.87782  Biso   1.000  Cu
  Cu4      1.0000 0.73784  0.25289  0.62218  Biso   1.000  Cu
  S1       1.0000 0.84946  0.17735  0.86083  Biso   1.000  S
  S2       1.0000 0.15054  0.67735  0.63917  Biso   1.000  S
  S3       1.0000 0.15054  0.82265  0.13917  Biso   1.000  S
  S4       1.0000 0.84946  0.32265  0.36083  Biso   1.000  S
  S5       1.0000 0.62419  0.17758  0.88131  Biso   1.000  S
  S6       1.0000 0.37581  0.67758  0.61869  Biso   1.000  S
  S7       1.0000 0.37581  0.82242  0.11869  Biso   1.000  S
  S8       1.0000 0.62419  0.32242  0.38131  Biso   1.000  S
  C1       1.0000 0.02880  0.37740  0.13360  Biso   1.000  C
  C2       1.0000 0.97120  0.87740  0.36640  Biso   1.000  C
  C3       1.0000 0.97120  0.62260  0.86640  Biso   1.000  C
  C4       1.0000 0.02880  0.12260  0.63360  Biso   1.000  C
  H1       1.0000 0.00390  0.40610  0.20110  Biso   1.000  H
  H2       1.0000 0.99610  0.90610  0.29890  Biso   1.000  H
  H3       1.0000 0.99610  0.59390  0.79890  Biso   1.000  H
  H4       1.0000 0.00390  0.09390  0.70110  Biso   1.000  H
  C5       1.0000 0.16810  0.41210  0.10960  Biso   1.000  C
  C6       1.0000 0.83190  0.91210  0.39040  Biso   1.000  C
  C7       1.0000 0.83190  0.58790  0.89040  Biso   1.000  C
  C8       1.0000 0.16810  0.08790  0.60960  Biso   1.000  C
  H5       1.0000 0.23890  0.46390  0.15910  Biso   1.000  H
  H6       1.0000 0.76110  0.96390  0.34090  Biso   1.000  H
  H7       1.0000 0.76110  0.53610  0.84090  Biso   1.000  H
  H8       1.0000 0.23890  0.03610  0.65910  Biso   1.000  H
  C9       1.0000 0.20110  0.36810  0.01000  Biso   1.000  C
  C10      1.0000 0.79890  0.86810  0.49000  Biso   1.000  C
  C11      1.0000 0.79890  0.63190  0.99000  Biso   1.000  C
  C12      1.0000 0.20110  0.13190  0.51000  Biso   1.000  C
  H9       1.0000 0.29940  0.38700  0.99380  Biso   1.000  H
  H10      1.0000 0.70060  0.88700  0.50620  Biso   1.000  H
  H11      1.0000 0.70060  0.61300  0.00620  Biso   1.000  H
  H12      1.0000 0.29940  0.11300  0.49380  Biso   1.000  H
  C13      1.0000 0.96570  0.27180  0.96710  Biso   1.000  C
  C14      1.0000 0.03430  0.77180  0.53290  Biso   1.000  C
  C15      1.0000 0.03430  0.72820  0.03290  Biso   1.000  C
  C16      1.0000 0.96570  0.22820  0.46710  Biso   1.000  C
  C17      1.0000 0.50580  0.27040  0.77430  Biso   1.000  C
  C18      1.0000 0.49420  0.77040  0.72570  Biso   1.000  C
  C19      1.0000 0.49420  0.72960  0.22570  Biso   1.000  C
  C20      1.0000 0.50580  0.22960  0.27430  Biso   1.000  C
  C21      1.0000 0.43430  0.37160  0.60500  Biso   1.000  C
  C22      1.0000 0.56570  0.87160  0.89500  Biso   1.000  C
  C23      1.0000 0.56570  0.62840  0.39500  Biso   1.000  C
  C24      1.0000 0.43430  0.12840  0.10500  Biso   1.000  C
  H13      1.0000 0.45720  0.40050  0.53680  Biso   1.000  H
  H14      1.0000 0.54280  0.90050  0.96320  Biso   1.000  H
  H15      1.0000 0.54280  0.59950  0.46320  Biso   1.000  H
  H16      1.0000 0.45720  0.09950  0.03680  Biso   1.000  H
  C25      1.0000 0.28910  0.39840  0.62540  Biso   1.000  C
  C26      1.0000 0.71090  0.89840  0.87460  Biso   1.000  C
  C27      1.0000 0.71090  0.60160  0.37460  Biso   1.000  C
  C28      1.0000 0.28910  0.10160  0.12540  Biso   1.000  C
  H17      1.0000 0.21150  0.44400  0.57200  Biso   1.000  H
  H18      1.0000 0.78850  0.94400  0.92800  Biso   1.000  H
  H19      1.0000 0.78850  0.55600  0.42800  Biso   1.000  H
  H20      1.0000 0.21150  0.05600  0.07200  Biso   1.000  H
  C29      1.0000 0.26100  0.35640  0.72630  Biso   1.000  C
  C30      1.0000 0.73900  0.85640  0.77370  Biso   1.000  C
  C31      1.0000 0.73900  0.64360  0.27370  Biso   1.000  C
  C32      1.0000 0.26100  0.14360  0.22630  Biso   1.000  C
  H21      1.0000 0.16160  0.37290  0.74220  Biso   1.000  H
  H22      1.0000 0.83840  0.87290  0.75780  Biso   1.000  H
  H23      1.0000 0.83840  0.62710  0.25780  Biso   1.000  H
  H24      1.0000 0.16160  0.12710  0.24220  Biso   1.000  H
  N1       1.0000 0.92630  0.30395  0.06412  Biso   1.000  N
  N2       1.0000 0.07370  0.80395  0.43588  Biso   1.000  N
  N3       1.0000 0.07370  0.69605  0.93588  Biso   1.000  N
  N4       1.0000 0.92630  0.19605  0.56412  Biso   1.000  N
  N5       1.0000 0.09680  0.29986  0.93700  Biso   1.000  N
  N6       1.0000 0.90320  0.79986  0.56300  Biso   1.000  N
  N7       1.0000 0.90320  0.70014  0.06300  Biso   1.000  N
  N8       1.0000 0.09680  0.20014  0.43700  Biso   1.000  N
  N9       1.0000 0.54530  0.30538  0.67929  Biso   1.000  N
  N10      1.0000 0.45470  0.80538  0.82071  Biso   1.000  N
  N11      1.0000 0.45470  0.69462  0.32071  Biso   1.000  N
  N12      1.0000 0.54530  0.19462  0.17929  Biso   1.000  N
  N13      1.0000 0.37060  0.29290  0.80239  Biso   1.000  N
  N14      1.0000 0.62940  0.79290  0.69761  Biso   1.000  N
  N15      1.0000 0.62940  0.70710  0.19761  Biso   1.000  N
  N16      1.0000 0.37060  0.20710  0.30239  Biso   1.000  N
  Cl1      1.0000 0.63126  0.41379  0.09880  Biso   1.000  Cl
  Cl2      1.0000 0.36874  0.91379  0.40120  Biso   1.000  Cl
  Cl3      1.0000 0.36874  0.58621  0.90120  Biso   1.000  Cl
  Cl4      1.0000 0.63126  0.08621  0.59880  Biso   1.000  Cl
  Cl5      1.0000 0.83783  0.07654  0.14241  Biso   1.000  Cl
  Cl6      1.0000 0.16217  0.57654  0.35759  Biso   1.000  Cl
  Cl7      1.0000 0.16217  0.92346  0.85759  Biso   1.000  Cl
  Cl8      1.0000 0.83783  0.42346  0.64241  Biso   1.000  Cl
