data_image0
_cell_length_a       27.0698
_cell_length_b       11.6894
_cell_length_c       18.15
_cell_angle_alpha    90
_cell_angle_beta     95.481
_cell_angle_gamma    90

_symmetry_space_group_name_H-M    "P 1"
_symmetry_int_tables_number       1

loop_
  _symmetry_equiv_pos_as_xyz
  'x, y, z'

loop_
  _atom_site_label
  _atom_site_occupancy
  _atom_site_fract_x
  _atom_site_fract_y
  _atom_site_fract_z
  _atom_site_thermal_displace_type
  _atom_site_B_iso_or_equiv
  _atom_site_type_symbol
  C1       1.0000 0.96898  0.98700  0.35690  Biso   1.000  C
  C2       1.0000 0.46898  0.48700  0.35690  Biso   1.000  C
  C3       1.0000 0.03102  0.98700  0.14310  Biso   1.000  C
  C4       1.0000 0.53102  0.48700  0.14310  Biso   1.000  C
  C5       1.0000 0.03102  0.01300  0.64310  Biso   1.000  C
  C6       1.0000 0.53102  0.51300  0.64310  Biso   1.000  C
  C7       1.0000 0.96898  0.01300  0.85690  Biso   1.000  C
  C8       1.0000 0.46898  0.51300  0.85690  Biso   1.000  C
  H1       1.0000 0.93790  0.01620  0.33480  Biso   1.000  H
  H2       1.0000 0.43790  0.51620  0.33480  Biso   1.000  H
  H3       1.0000 0.06210  0.01620  0.16520  Biso   1.000  H
  H4       1.0000 0.56210  0.51620  0.16520  Biso   1.000  H
  H5       1.0000 0.06210  0.98380  0.66520  Biso   1.000  H
  H6       1.0000 0.56210  0.48380  0.66520  Biso   1.000  H
  H7       1.0000 0.93790  0.98380  0.83480  Biso   1.000  H
  H8       1.0000 0.43790  0.48380  0.83480  Biso   1.000  H
  H9       1.0000 0.97040  0.99480  0.40970  Biso   1.000  H
  H10      1.0000 0.47040  0.49480  0.40970  Biso   1.000  H
  H11      1.0000 0.02960  0.99480  0.09030  Biso   1.000  H
  H12      1.0000 0.52960  0.49480  0.09030  Biso   1.000  H
  H13      1.0000 0.02960  0.00520  0.59030  Biso   1.000  H
  H14      1.0000 0.52960  0.50520  0.59030  Biso   1.000  H
  H15      1.0000 0.97040  0.00520  0.90970  Biso   1.000  H
  H16      1.0000 0.47040  0.50520  0.90970  Biso   1.000  H
  H17      1.0000 0.97190  0.90770  0.34430  Biso   1.000  H
  H18      1.0000 0.47190  0.40770  0.34430  Biso   1.000  H
  H19      1.0000 0.02810  0.90770  0.15570  Biso   1.000  H
  H20      1.0000 0.52810  0.40770  0.15570  Biso   1.000  H
  H21      1.0000 0.02810  0.09230  0.65570  Biso   1.000  H
  H22      1.0000 0.52810  0.59230  0.65570  Biso   1.000  H
  H23      1.0000 0.97190  0.09230  0.84430  Biso   1.000  H
  H24      1.0000 0.47190  0.59230  0.84430  Biso   1.000  H
  C9       1.0000 0.11370  0.66600  0.19740  Biso   1.000  C
  C10      1.0000 0.61370  0.16600  0.19740  Biso   1.000  C
  C11      1.0000 0.88630  0.66600  0.30260  Biso   1.000  C
  C12      1.0000 0.38630  0.16600  0.30260  Biso   1.000  C
  C13      1.0000 0.88630  0.33400  0.80260  Biso   1.000  C
  C14      1.0000 0.38630  0.83400  0.80260  Biso   1.000  C
  C15      1.0000 0.11370  0.33400  0.69740  Biso   1.000  C
  C16      1.0000 0.61370  0.83400  0.69740  Biso   1.000  C
  C17      1.0000 0.05702  0.01560  0.35407  Biso   1.000  C
  C18      1.0000 0.55702  0.51560  0.35407  Biso   1.000  C
  C19      1.0000 0.94298  0.01560  0.14593  Biso   1.000  C
  C20      1.0000 0.44298  0.51560  0.14593  Biso   1.000  C
  C21      1.0000 0.94298  0.98440  0.64593  Biso   1.000  C
  C22      1.0000 0.44298  0.48440  0.64593  Biso   1.000  C
  C23      1.0000 0.05702  0.98440  0.85407  Biso   1.000  C
  C24      1.0000 0.55702  0.48440  0.85407  Biso   1.000  C
  C25      1.0000 0.11740  0.72250  0.26690  Biso   1.000  C
  C26      1.0000 0.61740  0.22250  0.26690  Biso   1.000  C
  C27      1.0000 0.88260  0.72250  0.23310  Biso   1.000  C
  C28      1.0000 0.38260  0.22250  0.23310  Biso   1.000  C
  C29      1.0000 0.88260  0.27750  0.73310  Biso   1.000  C
  C30      1.0000 0.38260  0.77750  0.73310  Biso   1.000  C
  C31      1.0000 0.11740  0.27750  0.76690  Biso   1.000  C
  C32      1.0000 0.61740  0.77750  0.76690  Biso   1.000  C
  C33      1.0000 0.06867  0.92900  0.40440  Biso   1.000  C
  C34      1.0000 0.56867  0.42900  0.40440  Biso   1.000  C
  C35      1.0000 0.93133  0.92900  0.09560  Biso   1.000  C
  C36      1.0000 0.43133  0.42900  0.09560  Biso   1.000  C
  C37      1.0000 0.93133  0.07100  0.59560  Biso   1.000  C
  C38      1.0000 0.43133  0.57100  0.59560  Biso   1.000  C
  C39      1.0000 0.06867  0.07100  0.90440  Biso   1.000  C
  C40      1.0000 0.56867  0.57100  0.90440  Biso   1.000  C
  H25      1.0000 0.04380  0.88810  0.42470  Biso   1.000  H
  H26      1.0000 0.54380  0.38810  0.42470  Biso   1.000  H
  H27      1.0000 0.95620  0.88810  0.07530  Biso   1.000  H
  H28      1.0000 0.45620  0.38810  0.07530  Biso   1.000  H
  H29      1.0000 0.95620  0.11190  0.57530  Biso   1.000  H
  H30      1.0000 0.45620  0.61190  0.57530  Biso   1.000  H
  H31      1.0000 0.04380  0.11190  0.92470  Biso   1.000  H
  H32      1.0000 0.54380  0.61190  0.92470  Biso   1.000  H
  C41      1.0000 0.11862  0.90420  0.42420  Biso   1.000  C
  C42      1.0000 0.61862  0.40420  0.42420  Biso   1.000  C
  C43      1.0000 0.88138  0.90420  0.07580  Biso   1.000  C
  C44      1.0000 0.38138  0.40420  0.07580  Biso   1.000  C
  C45      1.0000 0.88138  0.09580  0.57580  Biso   1.000  C
  C46      1.0000 0.38138  0.59580  0.57580  Biso   1.000  C
  C47      1.0000 0.11862  0.09580  0.92420  Biso   1.000  C
  C48      1.0000 0.61862  0.59580  0.92420  Biso   1.000  C
  H33      1.0000 0.12690  0.84300  0.45570  Biso   1.000  H
  H34      1.0000 0.62690  0.34300  0.45570  Biso   1.000  H
  H35      1.0000 0.87310  0.84300  0.04430  Biso   1.000  H
  H36      1.0000 0.37310  0.34300  0.04430  Biso   1.000  H
  H37      1.0000 0.87310  0.15700  0.54430  Biso   1.000  H
  H38      1.0000 0.37310  0.65700  0.54430  Biso   1.000  H
  H39      1.0000 0.12690  0.15700  0.95570  Biso   1.000  H
  H40      1.0000 0.62690  0.65700  0.95570  Biso   1.000  H
  C49      1.0000 0.15503  0.96680  0.39870  Biso   1.000  C
  C50      1.0000 0.65503  0.46680  0.39870  Biso   1.000  C
  C51      1.0000 0.84497  0.96680  0.10130  Biso   1.000  C
  C52      1.0000 0.34497  0.46680  0.10130  Biso   1.000  C
  C53      1.0000 0.84497  0.03320  0.60130  Biso   1.000  C
  C54      1.0000 0.34497  0.53320  0.60130  Biso   1.000  C
  C55      1.0000 0.15503  0.03320  0.89870  Biso   1.000  C
  C56      1.0000 0.65503  0.53320  0.89870  Biso   1.000  C
  H41      1.0000 0.18800  0.95040  0.41440  Biso   1.000  H
  H42      1.0000 0.68800  0.45040  0.41440  Biso   1.000  H
  H43      1.0000 0.81200  0.95040  0.08560  Biso   1.000  H
  H44      1.0000 0.31200  0.45040  0.08560  Biso   1.000  H
  H45      1.0000 0.81200  0.04960  0.58560  Biso   1.000  H
  H46      1.0000 0.31200  0.54960  0.58560  Biso   1.000  H
  H47      1.0000 0.18800  0.04960  0.91440  Biso   1.000  H
  H48      1.0000 0.68800  0.54960  0.91440  Biso   1.000  H
  C57      1.0000 0.14379  0.05670  0.34858  Biso   1.000  C
  C58      1.0000 0.64379  0.55670  0.34858  Biso   1.000  C
  C59      1.0000 0.85621  0.05670  0.15142  Biso   1.000  C
  C60      1.0000 0.35621  0.55670  0.15142  Biso   1.000  C
  C61      1.0000 0.85621  0.94330  0.65142  Biso   1.000  C
  C62      1.0000 0.35621  0.44330  0.65142  Biso   1.000  C
  C63      1.0000 0.14379  0.94330  0.84858  Biso   1.000  C
  C64      1.0000 0.64379  0.44330  0.84858  Biso   1.000  C
  C65      1.0000 0.09401  0.07980  0.32424  Biso   1.000  C
  C66      1.0000 0.59401  0.57980  0.32424  Biso   1.000  C
  C67      1.0000 0.90599  0.07980  0.17576  Biso   1.000  C
  C68      1.0000 0.40599  0.57980  0.17576  Biso   1.000  C
  C69      1.0000 0.90599  0.92020  0.67576  Biso   1.000  C
  C70      1.0000 0.40599  0.42020  0.67576  Biso   1.000  C
  C71      1.0000 0.09401  0.92020  0.82424  Biso   1.000  C
  C72      1.0000 0.59401  0.42020  0.82424  Biso   1.000  C
  C73      1.0000 0.18356  0.12730  0.32810  Biso   1.000  C
  C74      1.0000 0.68356  0.62730  0.32810  Biso   1.000  C
  C75      1.0000 0.81644  0.12730  0.17190  Biso   1.000  C
  C76      1.0000 0.31644  0.62730  0.17190  Biso   1.000  C
  C77      1.0000 0.81644  0.87270  0.67190  Biso   1.000  C
  C78      1.0000 0.31644  0.37270  0.67190  Biso   1.000  C
  C79      1.0000 0.18356  0.87270  0.82810  Biso   1.000  C
  C80      1.0000 0.68356  0.37270  0.82810  Biso   1.000  C
  H49      1.0000 0.21440  0.11350  0.35370  Biso   1.000  H
  H50      1.0000 0.71440  0.61350  0.35370  Biso   1.000  H
  H51      1.0000 0.78560  0.11350  0.14630  Biso   1.000  H
  H52      1.0000 0.28560  0.61350  0.14630  Biso   1.000  H
  H53      1.0000 0.78560  0.88650  0.64630  Biso   1.000  H
  H54      1.0000 0.28560  0.38650  0.64630  Biso   1.000  H
  H55      1.0000 0.21440  0.88650  0.85370  Biso   1.000  H
  H56      1.0000 0.71440  0.38650  0.85370  Biso   1.000  H
  C81      1.0000 0.22938  0.26440  0.27100  Biso   1.000  C
  C82      1.0000 0.72938  0.76440  0.27100  Biso   1.000  C
  C83      1.0000 0.77062  0.26440  0.22900  Biso   1.000  C
  C84      1.0000 0.27062  0.76440  0.22900  Biso   1.000  C
  C85      1.0000 0.77062  0.73560  0.72900  Biso   1.000  C
  C86      1.0000 0.27062  0.23560  0.72900  Biso   1.000  C
  C87      1.0000 0.22938  0.73560  0.77100  Biso   1.000  C
  C88      1.0000 0.72938  0.23560  0.77100  Biso   1.000  C
  H57      1.0000 0.25070  0.25850  0.31700  Biso   1.000  H
  H58      1.0000 0.75070  0.75850  0.31700  Biso   1.000  H
  H59      1.0000 0.74930  0.25850  0.18300  Biso   1.000  H
  H60      1.0000 0.24930  0.75850  0.18300  Biso   1.000  H
  H61      1.0000 0.74930  0.74150  0.68300  Biso   1.000  H
  H62      1.0000 0.24930  0.24150  0.68300  Biso   1.000  H
  H63      1.0000 0.25070  0.74150  0.81700  Biso   1.000  H
  H64      1.0000 0.75070  0.24150  0.81700  Biso   1.000  H
  H65      1.0000 0.24580  0.22530  0.23300  Biso   1.000  H
  H66      1.0000 0.74580  0.72530  0.23300  Biso   1.000  H
  H67      1.0000 0.75420  0.22530  0.26700  Biso   1.000  H
  H68      1.0000 0.25420  0.72530  0.26700  Biso   1.000  H
  H69      1.0000 0.75420  0.77470  0.76700  Biso   1.000  H
  H70      1.0000 0.25420  0.27470  0.76700  Biso   1.000  H
  H71      1.0000 0.24580  0.77470  0.73300  Biso   1.000  H
  H72      1.0000 0.74580  0.27470  0.73300  Biso   1.000  H
  C89      1.0000 0.22386  0.38320  0.25130  Biso   1.000  C
  C90      1.0000 0.72386  0.88320  0.25130  Biso   1.000  C
  C91      1.0000 0.77614  0.38320  0.24870  Biso   1.000  C
  C92      1.0000 0.27614  0.88320  0.24870  Biso   1.000  C
  C93      1.0000 0.77614  0.61680  0.74870  Biso   1.000  C
  C94      1.0000 0.27614  0.11680  0.74870  Biso   1.000  C
  C95      1.0000 0.22386  0.61680  0.75130  Biso   1.000  C
  C96      1.0000 0.72386  0.11680  0.75130  Biso   1.000  C
  H73      1.0000 0.25580  0.42050  0.26130  Biso   1.000  H
  H74      1.0000 0.75580  0.92050  0.26130  Biso   1.000  H
  H75      1.0000 0.74420  0.42050  0.23870  Biso   1.000  H
  H76      1.0000 0.24420  0.92050  0.23870  Biso   1.000  H
  H77      1.0000 0.74420  0.57950  0.73870  Biso   1.000  H
  H78      1.0000 0.24420  0.07950  0.73870  Biso   1.000  H
  H79      1.0000 0.25580  0.57950  0.76130  Biso   1.000  H
  H80      1.0000 0.75580  0.07950  0.76130  Biso   1.000  H
  H81      1.0000 0.20120  0.41830  0.28290  Biso   1.000  H
  H82      1.0000 0.70120  0.91830  0.28290  Biso   1.000  H
  H83      1.0000 0.79880  0.41830  0.21710  Biso   1.000  H
  H84      1.0000 0.29880  0.91830  0.21710  Biso   1.000  H
  H85      1.0000 0.79880  0.58170  0.71710  Biso   1.000  H
  H86      1.0000 0.29880  0.08170  0.71710  Biso   1.000  H
  H87      1.0000 0.20120  0.58170  0.78290  Biso   1.000  H
  H88      1.0000 0.70120  0.08170  0.78290  Biso   1.000  H
  C97      1.0000 0.91533  0.30410  0.07890  Biso   1.000  C
  C98      1.0000 0.41533  0.80410  0.07890  Biso   1.000  C
  C99      1.0000 0.08467  0.30410  0.42110  Biso   1.000  C
  C100     1.0000 0.58467  0.80410  0.42110  Biso   1.000  C
  C101     1.0000 0.08467  0.69590  0.92110  Biso   1.000  C
  C102     1.0000 0.58467  0.19590  0.92110  Biso   1.000  C
  C103     1.0000 0.91533  0.69590  0.57890  Biso   1.000  C
  C104     1.0000 0.41533  0.19590  0.57890  Biso   1.000  C
  H89      1.0000 0.89330  0.27530  0.11290  Biso   1.000  H
  H90      1.0000 0.39330  0.77530  0.11290  Biso   1.000  H
  H91      1.0000 0.10670  0.27530  0.38710  Biso   1.000  H
  H92      1.0000 0.60670  0.77530  0.38710  Biso   1.000  H
  H93      1.0000 0.10670  0.72470  0.88710  Biso   1.000  H
  H94      1.0000 0.60670  0.22470  0.88710  Biso   1.000  H
  H95      1.0000 0.89330  0.72470  0.61290  Biso   1.000  H
  H96      1.0000 0.39330  0.22470  0.61290  Biso   1.000  H
  H97      1.0000 0.90670  0.27140  0.03080  Biso   1.000  H
  H98      1.0000 0.40670  0.77140  0.03080  Biso   1.000  H
  H99      1.0000 0.09330  0.27140  0.46920  Biso   1.000  H
  H100     1.0000 0.59330  0.77140  0.46920  Biso   1.000  H
  H101     1.0000 0.09330  0.72860  0.96920  Biso   1.000  H
  H102     1.0000 0.59330  0.22860  0.96920  Biso   1.000  H
  H103     1.0000 0.90670  0.72860  0.53080  Biso   1.000  H
  H104     1.0000 0.40670  0.22860  0.53080  Biso   1.000  H
  H105     1.0000 0.91240  0.38590  0.07590  Biso   1.000  H
  H106     1.0000 0.41240  0.88590  0.07590  Biso   1.000  H
  H107     1.0000 0.08760  0.38590  0.42410  Biso   1.000  H
  H108     1.0000 0.58760  0.88590  0.42410  Biso   1.000  H
  H109     1.0000 0.08760  0.61410  0.92410  Biso   1.000  H
  H110     1.0000 0.58760  0.11410  0.92410  Biso   1.000  H
  H111     1.0000 0.91240  0.61410  0.57590  Biso   1.000  H
  H112     1.0000 0.41240  0.11410  0.57590  Biso   1.000  H
  C105     1.0000 0.00152  0.30510  0.05856  Biso   1.000  C
  C106     1.0000 0.50152  0.80510  0.05856  Biso   1.000  C
  C107     1.0000 0.99848  0.30510  0.44144  Biso   1.000  C
  C108     1.0000 0.49848  0.80510  0.44144  Biso   1.000  C
  C109     1.0000 0.99848  0.69490  0.94144  Biso   1.000  C
  C110     1.0000 0.49848  0.19490  0.94144  Biso   1.000  C
  C111     1.0000 0.00152  0.69490  0.55856  Biso   1.000  C
  C112     1.0000 0.50152  0.19490  0.55856  Biso   1.000  C
  C113     1.0000 0.99151  0.33150  0.98490  Biso   1.000  C
  C114     1.0000 0.49151  0.83150  0.98490  Biso   1.000  C
  C115     1.0000 0.00849  0.33150  0.51510  Biso   1.000  C
  C116     1.0000 0.50849  0.83150  0.51510  Biso   1.000  C
  C117     1.0000 0.00849  0.66850  0.01510  Biso   1.000  C
  C118     1.0000 0.50849  0.16850  0.01510  Biso   1.000  C
  C119     1.0000 0.99151  0.66850  0.48490  Biso   1.000  C
  C120     1.0000 0.49151  0.16850  0.48490  Biso   1.000  C
  H113     1.0000 0.95930  0.32480  0.96220  Biso   1.000  H
  H114     1.0000 0.45930  0.82480  0.96220  Biso   1.000  H
  H115     1.0000 0.04070  0.32480  0.53780  Biso   1.000  H
  H116     1.0000 0.54070  0.82480  0.53780  Biso   1.000  H
  H117     1.0000 0.04070  0.67520  0.03780  Biso   1.000  H
  H118     1.0000 0.54070  0.17520  0.03780  Biso   1.000  H
  H119     1.0000 0.95930  0.67520  0.46220  Biso   1.000  H
  H120     1.0000 0.45930  0.17520  0.46220  Biso   1.000  H
  C121     1.0000 0.02890  0.36760  0.94500  Biso   1.000  C
  C122     1.0000 0.52890  0.86760  0.94500  Biso   1.000  C
  C123     1.0000 0.97110  0.36760  0.55500  Biso   1.000  C
  C124     1.0000 0.47110  0.86760  0.55500  Biso   1.000  C
  C125     1.0000 0.97110  0.63240  0.05500  Biso   1.000  C
  C126     1.0000 0.47110  0.13240  0.05500  Biso   1.000  C
  C127     1.0000 0.02890  0.63240  0.44500  Biso   1.000  C
  C128     1.0000 0.52890  0.13240  0.44500  Biso   1.000  C
  H121     1.0000 0.02210  0.38400  0.89490  Biso   1.000  H
  H122     1.0000 0.52210  0.88400  0.89490  Biso   1.000  H
  H123     1.0000 0.97790  0.38400  0.60510  Biso   1.000  H
  H124     1.0000 0.47790  0.88400  0.60510  Biso   1.000  H
  H125     1.0000 0.97790  0.61600  0.10510  Biso   1.000  H
  H126     1.0000 0.47790  0.11600  0.10510  Biso   1.000  H
  H127     1.0000 0.02210  0.61600  0.39490  Biso   1.000  H
  H128     1.0000 0.52210  0.11600  0.39490  Biso   1.000  H
  C129     1.0000 0.07594  0.37970  0.97780  Biso   1.000  C
  C130     1.0000 0.57594  0.87970  0.97780  Biso   1.000  C
  C131     1.0000 0.92406  0.37970  0.52220  Biso   1.000  C
  C132     1.0000 0.42406  0.87970  0.52220  Biso   1.000  C
  C133     1.0000 0.92406  0.62030  0.02220  Biso   1.000  C
  C134     1.0000 0.42406  0.12030  0.02220  Biso   1.000  C
  C135     1.0000 0.07594  0.62030  0.47780  Biso   1.000  C
  C136     1.0000 0.57594  0.12030  0.47780  Biso   1.000  C
  H129     1.0000 0.10080  0.40660  0.95040  Biso   1.000  H
  H130     1.0000 0.60080  0.90660  0.95040  Biso   1.000  H
  H131     1.0000 0.89920  0.40660  0.54960  Biso   1.000  H
  H132     1.0000 0.39920  0.90660  0.54960  Biso   1.000  H
  H133     1.0000 0.89920  0.59340  0.04960  Biso   1.000  H
  H134     1.0000 0.39920  0.09340  0.04960  Biso   1.000  H
  H135     1.0000 0.10080  0.59340  0.45040  Biso   1.000  H
  H136     1.0000 0.60080  0.09340  0.45040  Biso   1.000  H
  C137     1.0000 0.08710  0.35180  0.05300  Biso   1.000  C
  C138     1.0000 0.58710  0.85180  0.05300  Biso   1.000  C
  C139     1.0000 0.91290  0.35180  0.44700  Biso   1.000  C
  C140     1.0000 0.41290  0.85180  0.44700  Biso   1.000  C
  C141     1.0000 0.91290  0.64820  0.94700  Biso   1.000  C
  C142     1.0000 0.41290  0.14820  0.94700  Biso   1.000  C
  C143     1.0000 0.08710  0.64820  0.55300  Biso   1.000  C
  C144     1.0000 0.58710  0.14820  0.55300  Biso   1.000  C
  C145     1.0000 0.04992  0.31050  0.09313  Biso   1.000  C
  C146     1.0000 0.54992  0.81050  0.09313  Biso   1.000  C
  C147     1.0000 0.95008  0.31050  0.40687  Biso   1.000  C
  C148     1.0000 0.45008  0.81050  0.40687  Biso   1.000  C
  C149     1.0000 0.95008  0.68950  0.90687  Biso   1.000  C
  C150     1.0000 0.45008  0.18950  0.90687  Biso   1.000  C
  C151     1.0000 0.04992  0.68950  0.59313  Biso   1.000  C
  C152     1.0000 0.54992  0.18950  0.59313  Biso   1.000  C
  C153     1.0000 0.13582  0.37880  0.08580  Biso   1.000  C
  C154     1.0000 0.63582  0.87880  0.08580  Biso   1.000  C
  C155     1.0000 0.86418  0.37880  0.41420  Biso   1.000  C
  C156     1.0000 0.36418  0.87880  0.41420  Biso   1.000  C
  C157     1.0000 0.86418  0.62120  0.91420  Biso   1.000  C
  C158     1.0000 0.36418  0.12120  0.91420  Biso   1.000  C
  C159     1.0000 0.13582  0.62120  0.58580  Biso   1.000  C
  C160     1.0000 0.63582  0.12120  0.58580  Biso   1.000  C
  H137     1.0000 0.15590  0.41920  0.05620  Biso   1.000  H
  H138     1.0000 0.65590  0.91920  0.05620  Biso   1.000  H
  H139     1.0000 0.84410  0.41920  0.44380  Biso   1.000  H
  H140     1.0000 0.34410  0.91920  0.44380  Biso   1.000  H
  H141     1.0000 0.84410  0.58080  0.94380  Biso   1.000  H
  H142     1.0000 0.34410  0.08080  0.94380  Biso   1.000  H
  H143     1.0000 0.15590  0.58080  0.55620  Biso   1.000  H
  H144     1.0000 0.65590  0.08080  0.55620  Biso   1.000  H
  C161     1.0000 0.20497  0.40510  0.17210  Biso   1.000  C
  C162     1.0000 0.70497  0.90510  0.17210  Biso   1.000  C
  C163     1.0000 0.79503  0.40510  0.32790  Biso   1.000  C
  C164     1.0000 0.29503  0.90510  0.32790  Biso   1.000  C
  C165     1.0000 0.79503  0.59490  0.82790  Biso   1.000  C
  C166     1.0000 0.29503  0.09490  0.82790  Biso   1.000  C
  C167     1.0000 0.20497  0.59490  0.67210  Biso   1.000  C
  C168     1.0000 0.70497  0.09490  0.67210  Biso   1.000  C
  H145     1.0000 0.20310  0.48700  0.16370  Biso   1.000  H
  H146     1.0000 0.70310  0.98700  0.16370  Biso   1.000  H
  H147     1.0000 0.79690  0.48700  0.33630  Biso   1.000  H
  H148     1.0000 0.29690  0.98700  0.33630  Biso   1.000  H
  H149     1.0000 0.79690  0.51300  0.83630  Biso   1.000  H
  H150     1.0000 0.29690  0.01300  0.83630  Biso   1.000  H
  H151     1.0000 0.20310  0.51300  0.66370  Biso   1.000  H
  H152     1.0000 0.70310  0.01300  0.66370  Biso   1.000  H
  H153     1.0000 0.22840  0.37390  0.14010  Biso   1.000  H
  H154     1.0000 0.72840  0.87390  0.14010  Biso   1.000  H
  H155     1.0000 0.77160  0.37390  0.35990  Biso   1.000  H
  H156     1.0000 0.27160  0.87390  0.35990  Biso   1.000  H
  H157     1.0000 0.77160  0.62610  0.85990  Biso   1.000  H
  H158     1.0000 0.27160  0.12610  0.85990  Biso   1.000  H
  H159     1.0000 0.22840  0.62610  0.64010  Biso   1.000  H
  H160     1.0000 0.72840  0.12610  0.64010  Biso   1.000  H
  C169     1.0000 0.25159  0.99800  0.05701  Biso   1.000  C
  C170     1.0000 0.75159  0.49800  0.05701  Biso   1.000  C
  C171     1.0000 0.74841  0.99800  0.44299  Biso   1.000  C
  C172     1.0000 0.24841  0.49800  0.44299  Biso   1.000  C
  C173     1.0000 0.74841  0.00200  0.94299  Biso   1.000  C
  C174     1.0000 0.24841  0.50200  0.94299  Biso   1.000  C
  C175     1.0000 0.25159  0.00200  0.55701  Biso   1.000  C
  C176     1.0000 0.75159  0.50200  0.55701  Biso   1.000  C
  C177     1.0000 0.20645  0.95880  0.07211  Biso   1.000  C
  C178     1.0000 0.70645  0.45880  0.07211  Biso   1.000  C
  C179     1.0000 0.79355  0.95880  0.42789  Biso   1.000  C
  C180     1.0000 0.29355  0.45880  0.42789  Biso   1.000  C
  C181     1.0000 0.79355  0.04120  0.92789  Biso   1.000  C
  C182     1.0000 0.29355  0.54120  0.92789  Biso   1.000  C
  C183     1.0000 0.20645  0.04120  0.57211  Biso   1.000  C
  C184     1.0000 0.70645  0.54120  0.57211  Biso   1.000  C
  C185     1.0000 0.26805  0.11260  0.07440  Biso   1.000  C
  C186     1.0000 0.76805  0.61260  0.07440  Biso   1.000  C
  C187     1.0000 0.73195  0.11260  0.42560  Biso   1.000  C
  C188     1.0000 0.23195  0.61260  0.42560  Biso   1.000  C
  C189     1.0000 0.73195  0.88740  0.92560  Biso   1.000  C
  C190     1.0000 0.23195  0.38740  0.92560  Biso   1.000  C
  C191     1.0000 0.26805  0.88740  0.57440  Biso   1.000  C
  C192     1.0000 0.76805  0.38740  0.57440  Biso   1.000  C
  C193     1.0000 0.17272  0.03220  0.10700  Biso   1.000  C
  C194     1.0000 0.67272  0.53220  0.10700  Biso   1.000  C
  C195     1.0000 0.82728  0.03220  0.39300  Biso   1.000  C
  C196     1.0000 0.32728  0.53220  0.39300  Biso   1.000  C
  C197     1.0000 0.82728  0.96780  0.89300  Biso   1.000  C
  C198     1.0000 0.32728  0.46780  0.89300  Biso   1.000  C
  C199     1.0000 0.17272  0.96780  0.60700  Biso   1.000  C
  C200     1.0000 0.67272  0.46780  0.60700  Biso   1.000  C
  Cu1      1.0000 0.12313  0.24484  0.21362  Biso   1.000  Cu
  Cu2      1.0000 0.62313  0.74484  0.21362  Biso   1.000  Cu
  Cu3      1.0000 0.87687  0.24484  0.28638  Biso   1.000  Cu
  Cu4      1.0000 0.37687  0.74484  0.28638  Biso   1.000  Cu
  Cu5      1.0000 0.87687  0.75516  0.78638  Biso   1.000  Cu
  Cu6      1.0000 0.37687  0.25516  0.78638  Biso   1.000  Cu
  Cu7      1.0000 0.12313  0.75516  0.71362  Biso   1.000  Cu
  Cu8      1.0000 0.62313  0.25516  0.71362  Biso   1.000  Cu
  Gd1      1.0000 0.00000  0.23677  0.25000  Biso   1.000  Gd
  Gd2      1.0000 0.50000  0.73677  0.25000  Biso   1.000  Gd
  Gd3      1.0000 0.00000  0.76323  0.75000  Biso   1.000  Gd
  Gd4      1.0000 0.50000  0.26323  0.75000  Biso   1.000  Gd
  N1       1.0000 0.18237  0.20580  0.28007  Biso   1.000  N
  N2       1.0000 0.68237  0.70580  0.28007  Biso   1.000  N
  N3       1.0000 0.81763  0.20580  0.21993  Biso   1.000  N
  N4       1.0000 0.31763  0.70580  0.21993  Biso   1.000  N
  N5       1.0000 0.81763  0.79420  0.71993  Biso   1.000  N
  N6       1.0000 0.31763  0.29420  0.71993  Biso   1.000  N
  N7       1.0000 0.18237  0.79420  0.78007  Biso   1.000  N
  N8       1.0000 0.68237  0.29420  0.78007  Biso   1.000  N
  N9       1.0000 0.10710  0.62600  0.14540  Biso   1.000  N
  N10      1.0000 0.60710  0.12600  0.14540  Biso   1.000  N
  N11      1.0000 0.89290  0.62600  0.35460  Biso   1.000  N
  N12      1.0000 0.39290  0.12600  0.35460  Biso   1.000  N
  N13      1.0000 0.89290  0.37400  0.85460  Biso   1.000  N
  N14      1.0000 0.39290  0.87400  0.85460  Biso   1.000  N
  N15      1.0000 0.10710  0.37400  0.64540  Biso   1.000  N
  N16      1.0000 0.60710  0.87400  0.64540  Biso   1.000  N
  N17      1.0000 0.15530  0.35370  0.15170  Biso   1.000  N
  N18      1.0000 0.65530  0.85370  0.15170  Biso   1.000  N
  N19      1.0000 0.84470  0.35370  0.34830  Biso   1.000  N
  N20      1.0000 0.34470  0.85370  0.34830  Biso   1.000  N
  N21      1.0000 0.84470  0.64630  0.84830  Biso   1.000  N
  N22      1.0000 0.34470  0.14630  0.84830  Biso   1.000  N
  N23      1.0000 0.15530  0.64630  0.65170  Biso   1.000  N
  N24      1.0000 0.65530  0.14630  0.65170  Biso   1.000  N
  N25      1.0000 0.28235  0.20200  0.08790  Biso   1.000  N
  N26      1.0000 0.78235  0.70200  0.08790  Biso   1.000  N
  N27      1.0000 0.71765  0.20200  0.41210  Biso   1.000  N
  N28      1.0000 0.21765  0.70200  0.41210  Biso   1.000  N
  N29      1.0000 0.71765  0.79800  0.91210  Biso   1.000  N
  N30      1.0000 0.21765  0.29800  0.91210  Biso   1.000  N
  N31      1.0000 0.28235  0.79800  0.58790  Biso   1.000  N
  N32      1.0000 0.78235  0.29800  0.58790  Biso   1.000  N
  N33      1.0000 0.14538  0.08840  0.13530  Biso   1.000  N
  N34      1.0000 0.64538  0.58840  0.13530  Biso   1.000  N
  N35      1.0000 0.85462  0.08840  0.36470  Biso   1.000  N
  N36      1.0000 0.35462  0.58840  0.36470  Biso   1.000  N
  N37      1.0000 0.85462  0.91160  0.86470  Biso   1.000  N
  N38      1.0000 0.35462  0.41160  0.86470  Biso   1.000  N
  N39      1.0000 0.14538  0.91160  0.63530  Biso   1.000  N
  N40      1.0000 0.64538  0.41160  0.63530  Biso   1.000  N
  N41      1.0000 0.00000  0.48610  0.25000  Biso   1.000  N
  N42      1.0000 0.50000  0.98610  0.25000  Biso   1.000  N
  N43      1.0000 0.00000  0.51390  0.75000  Biso   1.000  N
  N44      1.0000 0.50000  0.01390  0.75000  Biso   1.000  N
  Ni1      1.0000 0.25000  0.75000  0.00000  Biso   1.000  Ni
  Ni2      1.0000 0.75000  0.25000  0.00000  Biso   1.000  Ni
  Ni3      1.0000 0.75000  0.75000  0.50000  Biso   1.000  Ni
  Ni4      1.0000 0.25000  0.25000  0.50000  Biso   1.000  Ni
  O1       1.0000 0.00887  0.05000  0.32985  Biso   1.000  O
  O2       1.0000 0.50887  0.55000  0.32985  Biso   1.000  O
  O3       1.0000 0.99113  0.05000  0.17015  Biso   1.000  O
  O4       1.0000 0.49113  0.55000  0.17015  Biso   1.000  O
  O5       1.0000 0.99113  0.95000  0.67015  Biso   1.000  O
  O6       1.0000 0.49113  0.45000  0.67015  Biso   1.000  O
  O7       1.0000 0.00887  0.95000  0.82985  Biso   1.000  O
  O8       1.0000 0.50887  0.45000  0.82985  Biso   1.000  O
  O9       1.0000 0.08008  0.16150  0.27558  Biso   1.000  O
  O10      1.0000 0.58008  0.66150  0.27558  Biso   1.000  O
  O11      1.0000 0.91992  0.16150  0.22442  Biso   1.000  O
  O12      1.0000 0.41992  0.66150  0.22442  Biso   1.000  O
  O13      1.0000 0.91992  0.83850  0.72442  Biso   1.000  O
  O14      1.0000 0.41992  0.33850  0.72442  Biso   1.000  O
  O15      1.0000 0.08008  0.83850  0.77558  Biso   1.000  O
  O16      1.0000 0.58008  0.33850  0.77558  Biso   1.000  O
  O17      1.0000 0.11580  0.64000  0.23000  Biso   1.000  O
  O18      1.0000 0.61580  0.14000  0.23000  Biso   1.000  O
  O19      1.0000 0.88420  0.64000  0.27000  Biso   1.000  O
  O20      1.0000 0.38420  0.14000  0.27000  Biso   1.000  O
  O21      1.0000 0.88420  0.36000  0.77000  Biso   1.000  O
  O22      1.0000 0.38420  0.86000  0.77000  Biso   1.000  O
  O23      1.0000 0.11580  0.36000  0.73000  Biso   1.000  O
  O24      1.0000 0.61580  0.86000  0.73000  Biso   1.000  O
  O25      1.0000 0.05780  0.27790  0.16342  Biso   1.000  O
  O26      1.0000 0.55780  0.77790  0.16342  Biso   1.000  O
  O27      1.0000 0.94220  0.27790  0.33658  Biso   1.000  O
  O28      1.0000 0.44220  0.77790  0.33658  Biso   1.000  O
  O29      1.0000 0.94220  0.72210  0.83658  Biso   1.000  O
  O30      1.0000 0.44220  0.22210  0.83658  Biso   1.000  O
  O31      1.0000 0.05780  0.72210  0.66342  Biso   1.000  O
  O32      1.0000 0.55780  0.22210  0.66342  Biso   1.000  O
  O33      1.0000 0.96605  0.27350  0.10453  Biso   1.000  O
  O34      1.0000 0.46605  0.77350  0.10453  Biso   1.000  O
  O35      1.0000 0.03395  0.27350  0.39547  Biso   1.000  O
  O36      1.0000 0.53395  0.77350  0.39547  Biso   1.000  O
  O37      1.0000 0.03395  0.72650  0.89547  Biso   1.000  O
  O38      1.0000 0.53395  0.22650  0.89547  Biso   1.000  O
  O39      1.0000 0.96605  0.72650  0.60453  Biso   1.000  O
  O40      1.0000 0.46605  0.22650  0.60453  Biso   1.000  O
  O41      1.0000 0.03465  0.43080  0.28386  Biso   1.000  O
  O42      1.0000 0.53465  0.93080  0.28386  Biso   1.000  O
  O43      1.0000 0.96535  0.43080  0.21614  Biso   1.000  O
  O44      1.0000 0.46535  0.93080  0.21614  Biso   1.000  O
  O45      1.0000 0.96535  0.56920  0.71614  Biso   1.000  O
  O46      1.0000 0.46535  0.06920  0.71614  Biso   1.000  O
  O47      1.0000 0.03465  0.56920  0.78386  Biso   1.000  O
  O48      1.0000 0.53465  0.06920  0.78386  Biso   1.000  O
  O49      1.0000 0.00000  0.59270  0.25000  Biso   1.000  O
  O50      1.0000 0.50000  0.09270  0.25000  Biso   1.000  O
  O51      1.0000 0.00000  0.40730  0.75000  Biso   1.000  O
  O52      1.0000 0.50000  0.90730  0.75000  Biso   1.000  O
  S1       1.0000 0.29178  0.90774  0.01652  Biso   1.000  S
  S2       1.0000 0.79178  0.40774  0.01652  Biso   1.000  S
  S3       1.0000 0.70822  0.90774  0.48348  Biso   1.000  S
  S4       1.0000 0.20822  0.40774  0.48348  Biso   1.000  S
  S5       1.0000 0.70822  0.09226  0.98348  Biso   1.000  S
  S6       1.0000 0.20822  0.59226  0.98348  Biso   1.000  S
  S7       1.0000 0.29178  0.09226  0.51652  Biso   1.000  S
  S8       1.0000 0.79178  0.59226  0.51652  Biso   1.000  S
  S9       1.0000 0.18723  0.82089  0.05058  Biso   1.000  S
  S10      1.0000 0.68723  0.32089  0.05058  Biso   1.000  S
  S11      1.0000 0.81277  0.82089  0.44942  Biso   1.000  S
  S12      1.0000 0.31277  0.32089  0.44942  Biso   1.000  S
  S13      1.0000 0.81277  0.17911  0.94942  Biso   1.000  S
  S14      1.0000 0.31277  0.67911  0.94942  Biso   1.000  S
  S15      1.0000 0.18723  0.17911  0.55058  Biso   1.000  S
  S16      1.0000 0.68723  0.67911  0.55058  Biso   1.000  S
