data_image0
_cell_length_a       13.113
_cell_length_b       7.1325
_cell_length_c       19.527
_cell_angle_alpha    90
_cell_angle_beta     103.628
_cell_angle_gamma    90

_symmetry_space_group_name_H-M    "P 1"
_symmetry_int_tables_number       1

loop_
  _symmetry_equiv_pos_as_xyz
  'x, y, z'

loop_
  _atom_site_label
  _atom_site_occupancy
  _atom_site_fract_x
  _atom_site_fract_y
  _atom_site_fract_z
  _atom_site_thermal_displace_type
  _atom_site_B_iso_or_equiv
  _atom_site_type_symbol
  Cu1      1.0000 0.55522  0.51829  0.12524  Biso   1.000  Cu
  Cu2      1.0000 0.44478  0.01829  0.37476  Biso   1.000  Cu
  Cu3      1.0000 0.44478  0.48171  0.87476  Biso   1.000  Cu
  Cu4      1.0000 0.55522  0.98171  0.62524  Biso   1.000  Cu
  Cl1      1.0000 0.39501  0.64440  0.08945  Biso   1.000  Cl
  Cl2      1.0000 0.60499  0.14440  0.41055  Biso   1.000  Cl
  Cl3      1.0000 0.60499  0.35560  0.91055  Biso   1.000  Cl
  Cl4      1.0000 0.39501  0.85560  0.58945  Biso   1.000  Cl
  Cl5      1.0000 0.58712  0.22187  0.13810  Biso   1.000  Cl
  Cl6      1.0000 0.41288  0.72187  0.36190  Biso   1.000  Cl
  Cl7      1.0000 0.41288  0.77813  0.86190  Biso   1.000  Cl
  Cl8      1.0000 0.58712  0.27813  0.63810  Biso   1.000  Cl
  N1       1.0000 0.63268  0.62780  0.22136  Biso   1.000  N
  N2       1.0000 0.36732  0.12780  0.27864  Biso   1.000  N
  N3       1.0000 0.36732  0.37220  0.77864  Biso   1.000  N
  N4       1.0000 0.63268  0.87220  0.72136  Biso   1.000  N
  N5       1.0000 0.86801  0.35030  0.37745  Biso   1.000  N
  N6       1.0000 0.13199  0.85030  0.12255  Biso   1.000  N
  N7       1.0000 0.13199  0.64970  0.62255  Biso   1.000  N
  N8       1.0000 0.86801  0.14970  0.87745  Biso   1.000  N
  N9       1.0000 0.91450  0.26720  0.44151  Biso   1.000  N
  N10      1.0000 0.08550  0.76720  0.05849  Biso   1.000  N
  N11      1.0000 0.08550  0.73280  0.55849  Biso   1.000  N
  N12      1.0000 0.91450  0.23280  0.94151  Biso   1.000  N
  N13      1.0000 0.81882  0.49980  0.46337  Biso   1.000  N
  N14      1.0000 0.18118  0.99980  0.03663  Biso   1.000  N
  N15      1.0000 0.18118  0.50020  0.53663  Biso   1.000  N
  N16      1.0000 0.81882  0.00020  0.96337  Biso   1.000  N
  N17      1.0000 0.86010  0.38230  0.60975  Biso   1.000  N
  N18      1.0000 0.13990  0.88230  0.89025  Biso   1.000  N
  N19      1.0000 0.13990  0.61770  0.39025  Biso   1.000  N
  N20      1.0000 0.86010  0.11770  0.10975  Biso   1.000  N
  N21      1.0000 0.64231  0.84590  0.56462  Biso   1.000  N
  N22      1.0000 0.35769  0.34590  0.93538  Biso   1.000  N
  N23      1.0000 0.35769  0.15410  0.43538  Biso   1.000  N
  N24      1.0000 0.64231  0.65410  0.06462  Biso   1.000  N
  C1       1.0000 0.69030  0.52920  0.27488  Biso   1.000  C
  C2       1.0000 0.30970  0.02920  0.22512  Biso   1.000  C
  C3       1.0000 0.30970  0.47080  0.72512  Biso   1.000  C
  C4       1.0000 0.69030  0.97080  0.77488  Biso   1.000  C
  H1       1.0000 0.69300  0.39970  0.26990  Biso   1.000  H
  H2       1.0000 0.30700  0.89970  0.23010  Biso   1.000  H
  H3       1.0000 0.30700  0.60030  0.73010  Biso   1.000  H
  H4       1.0000 0.69300  0.10030  0.76990  Biso   1.000  H
  C5       1.0000 0.62860  0.81100  0.22904  Biso   1.000  C
  C6       1.0000 0.37140  0.31100  0.27096  Biso   1.000  C
  C7       1.0000 0.37140  0.18900  0.77096  Biso   1.000  C
  C8       1.0000 0.62860  0.68900  0.72904  Biso   1.000  C
  H5       1.0000 0.58840  0.88230  0.19270  Biso   1.000  H
  H6       1.0000 0.41160  0.38230  0.30730  Biso   1.000  H
  H7       1.0000 0.41160  0.11770  0.80730  Biso   1.000  H
  H8       1.0000 0.58840  0.61770  0.69270  Biso   1.000  H
  C9       1.0000 0.68200  0.89930  0.28905  Biso   1.000  C
  C10      1.0000 0.31800  0.39930  0.21095  Biso   1.000  C
  C11      1.0000 0.31800  0.10070  0.71095  Biso   1.000  C
  C12      1.0000 0.68200  0.60070  0.78905  Biso   1.000  C
  H9       1.0000 0.67870  0.02910  0.29250  Biso   1.000  H
  H10      1.0000 0.32130  0.52910  0.20750  Biso   1.000  H
  H11      1.0000 0.32130  0.97090  0.70750  Biso   1.000  H
  H12      1.0000 0.67870  0.47090  0.79250  Biso   1.000  H
  C13      1.0000 0.74060  0.79730  0.34443  Biso   1.000  C
  C14      1.0000 0.25940  0.29730  0.15557  Biso   1.000  C
  C15      1.0000 0.25940  0.20270  0.65557  Biso   1.000  C
  C16      1.0000 0.74060  0.70270  0.84443  Biso   1.000  C
  H13      1.0000 0.77560  0.85650  0.38570  Biso   1.000  H
  H14      1.0000 0.22440  0.35650  0.11430  Biso   1.000  H
  H15      1.0000 0.22440  0.14350  0.61430  Biso   1.000  H
  H16      1.0000 0.77560  0.64350  0.88570  Biso   1.000  H
  C17      1.0000 0.74610  0.60790  0.33748  Biso   1.000  C
  C18      1.0000 0.25390  0.10790  0.16252  Biso   1.000  C
  C19      1.0000 0.25390  0.39210  0.66252  Biso   1.000  C
  C20      1.0000 0.74610  0.89210  0.83748  Biso   1.000  C
  C21      1.0000 0.81030  0.48760  0.39146  Biso   1.000  C
  C22      1.0000 0.18970  0.98760  0.10854  Biso   1.000  C
  C23      1.0000 0.18970  0.51240  0.60854  Biso   1.000  C
  C24      1.0000 0.81030  0.01240  0.89146  Biso   1.000  C
  C25      1.0000 0.88390  0.35590  0.49187  Biso   1.000  C
  C26      1.0000 0.11610  0.85590  0.00813  Biso   1.000  C
  C27      1.0000 0.11610  0.64410  0.50813  Biso   1.000  C
  C28      1.0000 0.88390  0.14410  0.99187  Biso   1.000  C
  C29      1.0000 0.91060  0.29840  0.56642  Biso   1.000  C
  C30      1.0000 0.08940  0.79840  0.93358  Biso   1.000  C
  C31      1.0000 0.08940  0.70160  0.43358  Biso   1.000  C
  C32      1.0000 0.91060  0.20160  0.06642  Biso   1.000  C
  C33      1.0000 0.98120  0.15520  0.58798  Biso   1.000  C
  C34      1.0000 0.01880  0.65520  0.91202  Biso   1.000  C
  C35      1.0000 0.01880  0.84480  0.41202  Biso   1.000  C
  C36      1.0000 0.98120  0.34480  0.08798  Biso   1.000  C
  H17      1.0000 0.01570  0.09970  0.55670  Biso   1.000  H
  H18      1.0000 0.98430  0.59970  0.94330  Biso   1.000  H
  H19      1.0000 0.98430  0.90030  0.44330  Biso   1.000  H
  H20      1.0000 0.01570  0.40030  0.05670  Biso   1.000  H
  C37      1.0000 0.99960  0.09650  0.65674  Biso   1.000  C
  C38      1.0000 0.00040  0.59650  0.84326  Biso   1.000  C
  C39      1.0000 0.00040  0.90350  0.34326  Biso   1.000  C
  C40      1.0000 0.99960  0.40350  0.15674  Biso   1.000  C
  H21      1.0000 0.04650  0.99920  0.67250  Biso   1.000  H
  H22      1.0000 0.95350  0.49920  0.82750  Biso   1.000  H
  H23      1.0000 0.95350  0.00080  0.32750  Biso   1.000  H
  H24      1.0000 0.04650  0.50080  0.17250  Biso   1.000  H
  C41      1.0000 0.94870  0.18130  0.70224  Biso   1.000  C
  C42      1.0000 0.05130  0.68130  0.79776  Biso   1.000  C
  C43      1.0000 0.05130  0.81870  0.29776  Biso   1.000  C
  C44      1.0000 0.94870  0.31870  0.20224  Biso   1.000  C
  H25      1.0000 0.96050  0.14390  0.74910  Biso   1.000  H
  H26      1.0000 0.03950  0.64390  0.75090  Biso   1.000  H
  H27      1.0000 0.03950  0.85610  0.25090  Biso   1.000  H
  H28      1.0000 0.96050  0.35610  0.24910  Biso   1.000  H
  C45      1.0000 0.88020  0.32240  0.67657  Biso   1.000  C
  C46      1.0000 0.11980  0.82240  0.82343  Biso   1.000  C
  C47      1.0000 0.11980  0.67760  0.32343  Biso   1.000  C
  C48      1.0000 0.88020  0.17760  0.17657  Biso   1.000  C
  H29      1.0000 0.84540  0.38040  0.70720  Biso   1.000  H
  H30      1.0000 0.15460  0.88040  0.79280  Biso   1.000  H
  H31      1.0000 0.15460  0.61960  0.29280  Biso   1.000  H
  H32      1.0000 0.84540  0.11960  0.20720  Biso   1.000  H
  C49      1.0000 0.75910  0.62260  0.49741  Biso   1.000  C
  C50      1.0000 0.24090  0.12260  0.00259  Biso   1.000  C
  C51      1.0000 0.24090  0.37740  0.50259  Biso   1.000  C
  C52      1.0000 0.75910  0.87740  0.99741  Biso   1.000  C
  C53      1.0000 0.65140  0.60310  0.48428  Biso   1.000  C
  C54      1.0000 0.34860  0.10310  0.01572  Biso   1.000  C
  C55      1.0000 0.34860  0.39690  0.51572  Biso   1.000  C
  C56      1.0000 0.65140  0.89690  0.98428  Biso   1.000  C
  H33      1.0000 0.61690  0.51450  0.45210  Biso   1.000  H
  H34      1.0000 0.38310  0.01450  0.04790  Biso   1.000  H
  H35      1.0000 0.38310  0.48550  0.54790  Biso   1.000  H
  H36      1.0000 0.61690  0.98550  0.95210  Biso   1.000  H
  C57      1.0000 0.59620  0.71620  0.51933  Biso   1.000  C
  C58      1.0000 0.40380  0.21620  0.98067  Biso   1.000  C
  C59      1.0000 0.40380  0.28380  0.48067  Biso   1.000  C
  C60      1.0000 0.59620  0.78380  0.01933  Biso   1.000  C
  H37      1.0000 0.52380  0.70130  0.51100  Biso   1.000  H
  H38      1.0000 0.47620  0.20130  0.98900  Biso   1.000  H
  H39      1.0000 0.47620  0.29870  0.48900  Biso   1.000  H
  H40      1.0000 0.52380  0.79870  0.01100  Biso   1.000  H
  C61      1.0000 0.74720  0.86810  0.57406  Biso   1.000  C
  C62      1.0000 0.25280  0.36810  0.92594  Biso   1.000  C
  C63      1.0000 0.25280  0.13190  0.42594  Biso   1.000  C
  C64      1.0000 0.74720  0.63190  0.07406  Biso   1.000  C
  H41      1.0000 0.77960  0.96230  0.60440  Biso   1.000  H
  H42      1.0000 0.22040  0.46230  0.89560  Biso   1.000  H
  H43      1.0000 0.22040  0.03770  0.39560  Biso   1.000  H
  H44      1.0000 0.77960  0.53770  0.10440  Biso   1.000  H
  C65      1.0000 0.80860  0.76050  0.54167  Biso   1.000  C
  C66      1.0000 0.19140  0.26050  0.95833  Biso   1.000  C
  C67      1.0000 0.19140  0.23950  0.45833  Biso   1.000  C
  C68      1.0000 0.80860  0.73950  0.04167  Biso   1.000  C
  H45      1.0000 0.88060  0.78020  0.54940  Biso   1.000  H
  H46      1.0000 0.11940  0.28020  0.95060  Biso   1.000  H
  H47      1.0000 0.11940  0.21980  0.45060  Biso   1.000  H
  H48      1.0000 0.88060  0.71980  0.04940  Biso   1.000  H
