data_image0
_cell_length_a       29.638
_cell_length_b       10.275
_cell_length_c       13.229
_cell_angle_alpha    90
_cell_angle_beta     98.539
_cell_angle_gamma    90

_symmetry_space_group_name_H-M    "P 1"
_symmetry_int_tables_number       1

loop_
  _symmetry_equiv_pos_as_xyz
  'x, y, z'

loop_
  _atom_site_label
  _atom_site_occupancy
  _atom_site_fract_x
  _atom_site_fract_y
  _atom_site_fract_z
  _atom_site_thermal_displace_type
  _atom_site_B_iso_or_equiv
  _atom_site_type_symbol
  Cu1      1.0000 0.63087  0.20943  0.69817  Biso   1.000  Cu
  Cu2      1.0000 0.36913  0.20943  0.80183  Biso   1.000  Cu
  Cu3      1.0000 0.13087  0.70943  0.69817  Biso   1.000  Cu
  Cu4      1.0000 0.86913  0.70943  0.80183  Biso   1.000  Cu
  Cu5      1.0000 0.36913  0.79057  0.30183  Biso   1.000  Cu
  Cu6      1.0000 0.63087  0.79057  0.19817  Biso   1.000  Cu
  Cu7      1.0000 0.86913  0.29057  0.30183  Biso   1.000  Cu
  Cu8      1.0000 0.13087  0.29057  0.19817  Biso   1.000  Cu
  Cu9      1.0000 0.67682  0.30004  0.36145  Biso   1.000  Cu
  Cu10     1.0000 0.32318  0.30004  0.13855  Biso   1.000  Cu
  Cu11     1.0000 0.17682  0.80004  0.36145  Biso   1.000  Cu
  Cu12     1.0000 0.82318  0.80004  0.13855  Biso   1.000  Cu
  Cu13     1.0000 0.32318  0.69996  0.63855  Biso   1.000  Cu
  Cu14     1.0000 0.67682  0.69996  0.86145  Biso   1.000  Cu
  Cu15     1.0000 0.82318  0.19996  0.63855  Biso   1.000  Cu
  Cu16     1.0000 0.17682  0.19996  0.86145  Biso   1.000  Cu
  S1       1.0000 0.58183  0.03291  0.69717  Biso   1.000  S
  S2       1.0000 0.41817  0.03291  0.80283  Biso   1.000  S
  S3       1.0000 0.08183  0.53291  0.69717  Biso   1.000  S
  S4       1.0000 0.91817  0.53291  0.80283  Biso   1.000  S
  S5       1.0000 0.41817  0.96709  0.30283  Biso   1.000  S
  S6       1.0000 0.58183  0.96709  0.19717  Biso   1.000  S
  S7       1.0000 0.91817  0.46709  0.30283  Biso   1.000  S
  S8       1.0000 0.08183  0.46709  0.19717  Biso   1.000  S
  S9       1.0000 0.57957  0.38319  0.68902  Biso   1.000  S
  S10      1.0000 0.42043  0.38319  0.81098  Biso   1.000  S
  S11      1.0000 0.07957  0.88319  0.68902  Biso   1.000  S
  S12      1.0000 0.92043  0.88319  0.81098  Biso   1.000  S
  S13      1.0000 0.42043  0.61681  0.31098  Biso   1.000  S
  S14      1.0000 0.57957  0.61681  0.18902  Biso   1.000  S
  S15      1.0000 0.92043  0.11681  0.31098  Biso   1.000  S
  S16      1.0000 0.07957  0.11681  0.18902  Biso   1.000  S
  S17      1.0000 0.66466  0.22131  0.53886  Biso   1.000  S
  S18      1.0000 0.33534  0.22131  0.96114  Biso   1.000  S
  S19      1.0000 0.16466  0.72131  0.53886  Biso   1.000  S
  S20      1.0000 0.83534  0.72131  0.96114  Biso   1.000  S
  S21      1.0000 0.33534  0.77869  0.46114  Biso   1.000  S
  S22      1.0000 0.66466  0.77869  0.03886  Biso   1.000  S
  S23      1.0000 0.83534  0.27869  0.46114  Biso   1.000  S
  S24      1.0000 0.16466  0.27869  0.03886  Biso   1.000  S
  N1       1.0000 0.69129  0.21640  0.79570  Biso   1.000  N
  N2       1.0000 0.30871  0.21640  0.70430  Biso   1.000  N
  N3       1.0000 0.19129  0.71640  0.79570  Biso   1.000  N
  N4       1.0000 0.80871  0.71640  0.70430  Biso   1.000  N
  N5       1.0000 0.30871  0.78360  0.20430  Biso   1.000  N
  N6       1.0000 0.69129  0.78360  0.29570  Biso   1.000  N
  N7       1.0000 0.80871  0.28360  0.20430  Biso   1.000  N
  N8       1.0000 0.19129  0.28360  0.29570  Biso   1.000  N
  N9       1.0000 0.64485  0.84310  0.78100  Biso   1.000  N
  N10      1.0000 0.35515  0.84310  0.71900  Biso   1.000  N
  N11      1.0000 0.14485  0.34310  0.78100  Biso   1.000  N
  N12      1.0000 0.85515  0.34310  0.71900  Biso   1.000  N
  N13      1.0000 0.35515  0.15690  0.21900  Biso   1.000  N
  N14      1.0000 0.64485  0.15690  0.28100  Biso   1.000  N
  N15      1.0000 0.85515  0.65690  0.21900  Biso   1.000  N
  N16      1.0000 0.14485  0.65690  0.28100  Biso   1.000  N
  N17      1.0000 0.63592  0.55560  0.81520  Biso   1.000  N
  N18      1.0000 0.36408  0.55560  0.68480  Biso   1.000  N
  N19      1.0000 0.13592  0.05560  0.81520  Biso   1.000  N
  N20      1.0000 0.86408  0.05560  0.68480  Biso   1.000  N
  N21      1.0000 0.36408  0.44440  0.18480  Biso   1.000  N
  N22      1.0000 0.63592  0.44440  0.31520  Biso   1.000  N
  N23      1.0000 0.86408  0.94440  0.18480  Biso   1.000  N
  N24      1.0000 0.13592  0.94440  0.31520  Biso   1.000  N
  N25      1.0000 0.91903  0.24950  0.04390  Biso   1.000  N
  N26      1.0000 0.08097  0.24950  0.45610  Biso   1.000  N
  N27      1.0000 0.41903  0.74950  0.04390  Biso   1.000  N
  N28      1.0000 0.58097  0.74950  0.45610  Biso   1.000  N
  N29      1.0000 0.08097  0.75050  0.95610  Biso   1.000  N
  N30      1.0000 0.91903  0.75050  0.54390  Biso   1.000  N
  N31      1.0000 0.58097  0.25050  0.95610  Biso   1.000  N
  N32      1.0000 0.41903  0.25050  0.54390  Biso   1.000  N
  N33      1.0000 0.75765  0.18300  0.61270  Biso   1.000  N
  N34      1.0000 0.24235  0.18300  0.88730  Biso   1.000  N
  N35      1.0000 0.25765  0.68300  0.61270  Biso   1.000  N
  N36      1.0000 0.74235  0.68300  0.88730  Biso   1.000  N
  N37      1.0000 0.24235  0.81700  0.38730  Biso   1.000  N
  N38      1.0000 0.75765  0.81700  0.11270  Biso   1.000  N
  N39      1.0000 0.74235  0.31700  0.38730  Biso   1.000  N
  N40      1.0000 0.25765  0.31700  0.11270  Biso   1.000  N
  C1       1.0000 0.78255  0.22700  0.89450  Biso   1.000  C
  C2       1.0000 0.21745  0.22700  0.60550  Biso   1.000  C
  C3       1.0000 0.28255  0.72700  0.89450  Biso   1.000  C
  C4       1.0000 0.71745  0.72700  0.60550  Biso   1.000  C
  C5       1.0000 0.21745  0.77300  0.10550  Biso   1.000  C
  C6       1.0000 0.78255  0.77300  0.39450  Biso   1.000  C
  C7       1.0000 0.71745  0.27300  0.10550  Biso   1.000  C
  C8       1.0000 0.28255  0.27300  0.39450  Biso   1.000  C
  C9       1.0000 0.75977  0.33560  0.85030  Biso   1.000  C
  C10      1.0000 0.24023  0.33560  0.64970  Biso   1.000  C
  C11      1.0000 0.25977  0.83560  0.85030  Biso   1.000  C
  C12      1.0000 0.74023  0.83560  0.64970  Biso   1.000  C
  C13      1.0000 0.24023  0.66440  0.14970  Biso   1.000  C
  C14      1.0000 0.75977  0.66440  0.35030  Biso   1.000  C
  C15      1.0000 0.74023  0.16440  0.14970  Biso   1.000  C
  C16      1.0000 0.25977  0.16440  0.35030  Biso   1.000  C
  H1       1.0000 0.77510  0.41700  0.85280  Biso   1.000  H
  H2       1.0000 0.22490  0.41700  0.64720  Biso   1.000  H
  H3       1.0000 0.27510  0.91700  0.85280  Biso   1.000  H
  H4       1.0000 0.72490  0.91700  0.64720  Biso   1.000  H
  H5       1.0000 0.22490  0.58300  0.14720  Biso   1.000  H
  H6       1.0000 0.77510  0.58300  0.35280  Biso   1.000  H
  H7       1.0000 0.72490  0.08300  0.14720  Biso   1.000  H
  H8       1.0000 0.27510  0.08300  0.35280  Biso   1.000  H
  C17      1.0000 0.00140  0.19880  0.93230  Biso   1.000  C
  C18      1.0000 0.99860  0.19880  0.56770  Biso   1.000  C
  C19      1.0000 0.50140  0.69880  0.93230  Biso   1.000  C
  C20      1.0000 0.49860  0.69880  0.56770  Biso   1.000  C
  C21      1.0000 0.99860  0.80120  0.06770  Biso   1.000  C
  C22      1.0000 0.00140  0.80120  0.43230  Biso   1.000  C
  C23      1.0000 0.49860  0.30120  0.06770  Biso   1.000  C
  C24      1.0000 0.50140  0.30120  0.43230  Biso   1.000  C
  H9       1.0000 0.97170  0.19240  0.88730  Biso   1.000  H
  H10      1.0000 0.02830  0.19240  0.61270  Biso   1.000  H
  H11      1.0000 0.47170  0.69240  0.88730  Biso   1.000  H
  H12      1.0000 0.52830  0.69240  0.61270  Biso   1.000  H
  H13      1.0000 0.02830  0.80760  0.11270  Biso   1.000  H
  H14      1.0000 0.97170  0.80760  0.38730  Biso   1.000  H
  H15      1.0000 0.52830  0.30760  0.11270  Biso   1.000  H
  H16      1.0000 0.47170  0.30760  0.38730  Biso   1.000  H
  H17      1.0000 0.00820  0.11260  0.96440  Biso   1.000  H
  H18      1.0000 0.99180  0.11260  0.53560  Biso   1.000  H
  H19      1.0000 0.50820  0.61260  0.96440  Biso   1.000  H
  H20      1.0000 0.49180  0.61260  0.53560  Biso   1.000  H
  H21      1.0000 0.99180  0.88740  0.03560  Biso   1.000  H
  H22      1.0000 0.00820  0.88740  0.46440  Biso   1.000  H
  H23      1.0000 0.49180  0.38740  0.03560  Biso   1.000  H
  H24      1.0000 0.50820  0.38740  0.46440  Biso   1.000  H
  C25      1.0000 0.83039  0.23300  0.94620  Biso   1.000  C
  C26      1.0000 0.16961  0.23300  0.55380  Biso   1.000  C
  C27      1.0000 0.33039  0.73300  0.94620  Biso   1.000  C
  C28      1.0000 0.66961  0.73300  0.55380  Biso   1.000  C
  C29      1.0000 0.16961  0.76700  0.05380  Biso   1.000  C
  C30      1.0000 0.83039  0.76700  0.44620  Biso   1.000  C
  C31      1.0000 0.66961  0.26700  0.05380  Biso   1.000  C
  C32      1.0000 0.33039  0.26700  0.44620  Biso   1.000  C
  C33      1.0000 0.85700  0.12350  0.96480  Biso   1.000  C
  C34      1.0000 0.14300  0.12350  0.53520  Biso   1.000  C
  C35      1.0000 0.35700  0.62350  0.96480  Biso   1.000  C
  C36      1.0000 0.64300  0.62350  0.53520  Biso   1.000  C
  C37      1.0000 0.14300  0.87650  0.03520  Biso   1.000  C
  C38      1.0000 0.85700  0.87650  0.46480  Biso   1.000  C
  C39      1.0000 0.64300  0.37650  0.03520  Biso   1.000  C
  C40      1.0000 0.35700  0.37650  0.46480  Biso   1.000  C
  H25      1.0000 0.84480  0.04060  0.94400  Biso   1.000  H
  H26      1.0000 0.15520  0.04060  0.55600  Biso   1.000  H
  H27      1.0000 0.34480  0.54060  0.94400  Biso   1.000  H
  H28      1.0000 0.65520  0.54060  0.55600  Biso   1.000  H
  H29      1.0000 0.15520  0.95940  0.05600  Biso   1.000  H
  H30      1.0000 0.84480  0.95940  0.44400  Biso   1.000  H
  H31      1.0000 0.65520  0.45940  0.05600  Biso   1.000  H
  H32      1.0000 0.34480  0.45940  0.44400  Biso   1.000  H
  C41      1.0000 0.61278  0.48620  0.76320  Biso   1.000  C
  C42      1.0000 0.38722  0.48620  0.73680  Biso   1.000  C
  C43      1.0000 0.11278  0.98620  0.76320  Biso   1.000  C
  C44      1.0000 0.88722  0.98620  0.73680  Biso   1.000  C
  C45      1.0000 0.38722  0.51380  0.23680  Biso   1.000  C
  C46      1.0000 0.61278  0.51380  0.26320  Biso   1.000  C
  C47      1.0000 0.88722  0.01380  0.23680  Biso   1.000  C
  C48      1.0000 0.11278  0.01380  0.26320  Biso   1.000  C
  C49      1.0000 0.71296  0.11080  0.83890  Biso   1.000  C
  C50      1.0000 0.28704  0.11080  0.66110  Biso   1.000  C
  C51      1.0000 0.21296  0.61080  0.83890  Biso   1.000  C
  C52      1.0000 0.78704  0.61080  0.66110  Biso   1.000  C
  C53      1.0000 0.28704  0.88920  0.16110  Biso   1.000  C
  C54      1.0000 0.71296  0.88920  0.33890  Biso   1.000  C
  C55      1.0000 0.78704  0.38920  0.16110  Biso   1.000  C
  C56      1.0000 0.21296  0.38920  0.33890  Biso   1.000  C
  H33      1.0000 0.69670  0.03080  0.83520  Biso   1.000  H
  H34      1.0000 0.30330  0.03080  0.66480  Biso   1.000  H
  H35      1.0000 0.19670  0.53080  0.83520  Biso   1.000  H
  H36      1.0000 0.80330  0.53080  0.66480  Biso   1.000  H
  H37      1.0000 0.30330  0.96920  0.16480  Biso   1.000  H
  H38      1.0000 0.69670  0.96920  0.33520  Biso   1.000  H
  H39      1.0000 0.80330  0.46920  0.16480  Biso   1.000  H
  H40      1.0000 0.19670  0.46920  0.33520  Biso   1.000  H
  C57      1.0000 0.99781  0.29730  0.01400  Biso   1.000  C
  C58      1.0000 0.00219  0.29730  0.48600  Biso   1.000  C
  C59      1.0000 0.49781  0.79730  0.01400  Biso   1.000  C
  C60      1.0000 0.50219  0.79730  0.48600  Biso   1.000  C
  C61      1.0000 0.00219  0.70270  0.98600  Biso   1.000  C
  C62      1.0000 0.99781  0.70270  0.51400  Biso   1.000  C
  C63      1.0000 0.50219  0.20270  0.98600  Biso   1.000  C
  C64      1.0000 0.49781  0.20270  0.51400  Biso   1.000  C
  H41      1.0000 0.98590  0.37930  0.98090  Biso   1.000  H
  H42      1.0000 0.01410  0.37930  0.51910  Biso   1.000  H
  H43      1.0000 0.48590  0.87930  0.98090  Biso   1.000  H
  H44      1.0000 0.51410  0.87930  0.51910  Biso   1.000  H
  H45      1.0000 0.01410  0.62070  0.01910  Biso   1.000  H
  H46      1.0000 0.98590  0.62070  0.48090  Biso   1.000  H
  H47      1.0000 0.51410  0.12070  0.01910  Biso   1.000  H
  H48      1.0000 0.48590  0.12070  0.48090  Biso   1.000  H
  H49      1.0000 0.02890  0.31540  0.05020  Biso   1.000  H
  H50      1.0000 0.97110  0.31540  0.44980  Biso   1.000  H
  H51      1.0000 0.52890  0.81540  0.05020  Biso   1.000  H
  H52      1.0000 0.47110  0.81540  0.44980  Biso   1.000  H
  H53      1.0000 0.97110  0.68460  0.94980  Biso   1.000  H
  H54      1.0000 0.02890  0.68460  0.55020  Biso   1.000  H
  H55      1.0000 0.47110  0.18460  0.94980  Biso   1.000  H
  H56      1.0000 0.52890  0.18460  0.55020  Biso   1.000  H
  C65      1.0000 0.71556  0.32700  0.80300  Biso   1.000  C
  C66      1.0000 0.28444  0.32700  0.69700  Biso   1.000  C
  C67      1.0000 0.21556  0.82700  0.80300  Biso   1.000  C
  C68      1.0000 0.78444  0.82700  0.69700  Biso   1.000  C
  C69      1.0000 0.28444  0.67300  0.19700  Biso   1.000  C
  C70      1.0000 0.71556  0.67300  0.30300  Biso   1.000  C
  C71      1.0000 0.78444  0.17300  0.19700  Biso   1.000  C
  C72      1.0000 0.21556  0.17300  0.30300  Biso   1.000  C
  H57      1.0000 0.70130  0.40370  0.77370  Biso   1.000  H
  H58      1.0000 0.29870  0.40370  0.72630  Biso   1.000  H
  H59      1.0000 0.20130  0.90370  0.77370  Biso   1.000  H
  H60      1.0000 0.79870  0.90370  0.72630  Biso   1.000  H
  H61      1.0000 0.29870  0.59630  0.22630  Biso   1.000  H
  H62      1.0000 0.70130  0.59630  0.27370  Biso   1.000  H
  H63      1.0000 0.79870  0.09630  0.22630  Biso   1.000  H
  H64      1.0000 0.20130  0.09630  0.27370  Biso   1.000  H
  C73      1.0000 0.71943  0.19800  0.58280  Biso   1.000  C
  C74      1.0000 0.28057  0.19800  0.91720  Biso   1.000  C
  C75      1.0000 0.21943  0.69800  0.58280  Biso   1.000  C
  C76      1.0000 0.78057  0.69800  0.91720  Biso   1.000  C
  C77      1.0000 0.28057  0.80200  0.41720  Biso   1.000  C
  C78      1.0000 0.71943  0.80200  0.08280  Biso   1.000  C
  C79      1.0000 0.78057  0.30200  0.41720  Biso   1.000  C
  C80      1.0000 0.21943  0.30200  0.08280  Biso   1.000  C
  C81      1.0000 0.85003  0.35190  0.97810  Biso   1.000  C
  C82      1.0000 0.14997  0.35190  0.52190  Biso   1.000  C
  C83      1.0000 0.35003  0.85190  0.97810  Biso   1.000  C
  C84      1.0000 0.64997  0.85190  0.52190  Biso   1.000  C
  C85      1.0000 0.14997  0.64810  0.02190  Biso   1.000  C
  C86      1.0000 0.85003  0.64810  0.47810  Biso   1.000  C
  C87      1.0000 0.64997  0.14810  0.02190  Biso   1.000  C
  C88      1.0000 0.35003  0.14810  0.47810  Biso   1.000  C
  H65      1.0000 0.83270  0.42950  0.96550  Biso   1.000  H
  H66      1.0000 0.16730  0.42950  0.53450  Biso   1.000  H
  H67      1.0000 0.33270  0.92950  0.96550  Biso   1.000  H
  H68      1.0000 0.66730  0.92950  0.53450  Biso   1.000  H
  H69      1.0000 0.16730  0.57050  0.03450  Biso   1.000  H
  H70      1.0000 0.83270  0.57050  0.46550  Biso   1.000  H
  H71      1.0000 0.66730  0.07050  0.03450  Biso   1.000  H
  H72      1.0000 0.33270  0.07050  0.46550  Biso   1.000  H
  C89      1.0000 0.90124  0.13380  0.01340  Biso   1.000  C
  C90      1.0000 0.09876  0.13380  0.48660  Biso   1.000  C
  C91      1.0000 0.40124  0.63380  0.01340  Biso   1.000  C
  C92      1.0000 0.59876  0.63380  0.48660  Biso   1.000  C
  C93      1.0000 0.09876  0.86620  0.98660  Biso   1.000  C
  C94      1.0000 0.90124  0.86620  0.51340  Biso   1.000  C
  C95      1.0000 0.59876  0.36620  0.98660  Biso   1.000  C
  C96      1.0000 0.40124  0.36620  0.51340  Biso   1.000  C
  H73      1.0000 0.91940  0.05760  0.02540  Biso   1.000  H
  H74      1.0000 0.08060  0.05760  0.47460  Biso   1.000  H
  H75      1.0000 0.41940  0.55760  0.02540  Biso   1.000  H
  H76      1.0000 0.58060  0.55760  0.47460  Biso   1.000  H
  H77      1.0000 0.08060  0.94240  0.97460  Biso   1.000  H
  H78      1.0000 0.91940  0.94240  0.52540  Biso   1.000  H
  H79      1.0000 0.58060  0.44240  0.97460  Biso   1.000  H
  H80      1.0000 0.41940  0.44240  0.52540  Biso   1.000  H
  C97      1.0000 0.75727  0.11130  0.88810  Biso   1.000  C
  C98      1.0000 0.24273  0.11130  0.61190  Biso   1.000  C
  C99      1.0000 0.25727  0.61130  0.88810  Biso   1.000  C
  C100     1.0000 0.74273  0.61130  0.61190  Biso   1.000  C
  C101     1.0000 0.24273  0.88870  0.11190  Biso   1.000  C
  C102     1.0000 0.75727  0.88870  0.38810  Biso   1.000  C
  C103     1.0000 0.74273  0.38870  0.11190  Biso   1.000  C
  C104     1.0000 0.25727  0.38870  0.38810  Biso   1.000  C
  H81      1.0000 0.77070  0.03350  0.91750  Biso   1.000  H
  H82      1.0000 0.22930  0.03350  0.58250  Biso   1.000  H
  H83      1.0000 0.27070  0.53350  0.91750  Biso   1.000  H
  H84      1.0000 0.72930  0.53350  0.58250  Biso   1.000  H
  H85      1.0000 0.22930  0.96650  0.08250  Biso   1.000  H
  H86      1.0000 0.77070  0.96650  0.41750  Biso   1.000  H
  H87      1.0000 0.72930  0.46650  0.08250  Biso   1.000  H
  H88      1.0000 0.27070  0.46650  0.41750  Biso   1.000  H
  C105     1.0000 0.96807  0.25970  0.09190  Biso   1.000  C
  C106     1.0000 0.03193  0.25970  0.40810  Biso   1.000  C
  C107     1.0000 0.46807  0.75970  0.09190  Biso   1.000  C
  C108     1.0000 0.53193  0.75970  0.40810  Biso   1.000  C
  C109     1.0000 0.03193  0.74030  0.90810  Biso   1.000  C
  C110     1.0000 0.96807  0.74030  0.59190  Biso   1.000  C
  C111     1.0000 0.53193  0.24030  0.90810  Biso   1.000  C
  C112     1.0000 0.46807  0.24030  0.59190  Biso   1.000  C
  H89      1.0000 0.97840  0.17510  0.12280  Biso   1.000  H
  H90      1.0000 0.02160  0.17510  0.37720  Biso   1.000  H
  H91      1.0000 0.47840  0.67510  0.12280  Biso   1.000  H
  H92      1.0000 0.52160  0.67510  0.37720  Biso   1.000  H
  H93      1.0000 0.02160  0.82490  0.87720  Biso   1.000  H
  H94      1.0000 0.97840  0.82490  0.62280  Biso   1.000  H
  H95      1.0000 0.52160  0.32490  0.87720  Biso   1.000  H
  H96      1.0000 0.47840  0.32490  0.62280  Biso   1.000  H
  H97      1.0000 0.97100  0.32570  0.14700  Biso   1.000  H
  H98      1.0000 0.02900  0.32570  0.35300  Biso   1.000  H
  H99      1.0000 0.47100  0.82570  0.14700  Biso   1.000  H
  H100     1.0000 0.52900  0.82570  0.35300  Biso   1.000  H
  H101     1.0000 0.02900  0.67430  0.85300  Biso   1.000  H
  H102     1.0000 0.97100  0.67430  0.64700  Biso   1.000  H
  H103     1.0000 0.52900  0.17430  0.85300  Biso   1.000  H
  H104     1.0000 0.47100  0.17430  0.64700  Biso   1.000  H
  C113     1.0000 0.61874  0.91910  0.74600  Biso   1.000  C
  C114     1.0000 0.38126  0.91910  0.75400  Biso   1.000  C
  C115     1.0000 0.11874  0.41910  0.74600  Biso   1.000  C
  C116     1.0000 0.88126  0.41910  0.75400  Biso   1.000  C
  C117     1.0000 0.38126  0.08090  0.25400  Biso   1.000  C
  C118     1.0000 0.61874  0.08090  0.24600  Biso   1.000  C
  C119     1.0000 0.88126  0.58090  0.25400  Biso   1.000  C
  C120     1.0000 0.11874  0.58090  0.24600  Biso   1.000  C
  C121     1.0000 0.03800  0.23230  0.86820  Biso   1.000  C
  C122     1.0000 0.96200  0.23230  0.63180  Biso   1.000  C
  C123     1.0000 0.53800  0.73230  0.86820  Biso   1.000  C
  C124     1.0000 0.46200  0.73230  0.63180  Biso   1.000  C
  C125     1.0000 0.96200  0.76770  0.13180  Biso   1.000  C
  C126     1.0000 0.03800  0.76770  0.36820  Biso   1.000  C
  C127     1.0000 0.46200  0.26770  0.13180  Biso   1.000  C
  C128     1.0000 0.53800  0.26770  0.36820  Biso   1.000  C
  H105     1.0000 0.03010  0.31410  0.83170  Biso   1.000  H
  H106     1.0000 0.96990  0.31410  0.66830  Biso   1.000  H
  H107     1.0000 0.53010  0.81410  0.83170  Biso   1.000  H
  H108     1.0000 0.46990  0.81410  0.66830  Biso   1.000  H
  H109     1.0000 0.96990  0.68590  0.16830  Biso   1.000  H
  H110     1.0000 0.03010  0.68590  0.33170  Biso   1.000  H
  H111     1.0000 0.46990  0.18590  0.16830  Biso   1.000  H
  H112     1.0000 0.53010  0.18590  0.33170  Biso   1.000  H
  H113     1.0000 0.04020  0.16250  0.81870  Biso   1.000  H
  H114     1.0000 0.95980  0.16250  0.68130  Biso   1.000  H
  H115     1.0000 0.54020  0.66250  0.81870  Biso   1.000  H
  H116     1.0000 0.45980  0.66250  0.68130  Biso   1.000  H
  H117     1.0000 0.95980  0.83750  0.18130  Biso   1.000  H
  H118     1.0000 0.04020  0.83750  0.31870  Biso   1.000  H
  H119     1.0000 0.45980  0.33750  0.18130  Biso   1.000  H
  H120     1.0000 0.54020  0.33750  0.31870  Biso   1.000  H
  H121     1.0000 0.06730  0.24200  0.91260  Biso   1.000  H
  H122     1.0000 0.93270  0.24200  0.58740  Biso   1.000  H
  H123     1.0000 0.56730  0.74200  0.91260  Biso   1.000  H
  H124     1.0000 0.43270  0.74200  0.58740  Biso   1.000  H
  H125     1.0000 0.93270  0.75800  0.08740  Biso   1.000  H
  H126     1.0000 0.06730  0.75800  0.41260  Biso   1.000  H
  H127     1.0000 0.43270  0.25800  0.08740  Biso   1.000  H
  H128     1.0000 0.56730  0.25800  0.41260  Biso   1.000  H
  C129     1.0000 0.89434  0.35870  0.02790  Biso   1.000  C
  C130     1.0000 0.10566  0.35870  0.47210  Biso   1.000  C
  C131     1.0000 0.39434  0.85870  0.02790  Biso   1.000  C
  C132     1.0000 0.60566  0.85870  0.47210  Biso   1.000  C
  C133     1.0000 0.10566  0.64130  0.97210  Biso   1.000  C
  C134     1.0000 0.89434  0.64130  0.52790  Biso   1.000  C
  C135     1.0000 0.60566  0.14130  0.97210  Biso   1.000  C
  C136     1.0000 0.39434  0.14130  0.52790  Biso   1.000  C
  H129     1.0000 0.90720  0.44020  0.05050  Biso   1.000  H
  H130     1.0000 0.09280  0.44020  0.44950  Biso   1.000  H
  H131     1.0000 0.40720  0.94020  0.05050  Biso   1.000  H
  H132     1.0000 0.59280  0.94020  0.44950  Biso   1.000  H
  H133     1.0000 0.09280  0.55980  0.94950  Biso   1.000  H
  H134     1.0000 0.90720  0.55980  0.55050  Biso   1.000  H
  H135     1.0000 0.59280  0.05980  0.94950  Biso   1.000  H
  H136     1.0000 0.40720  0.05980  0.55050  Biso   1.000  H
