data_image0
_cell_length_a       17.93
_cell_length_b       14.618
_cell_length_c       6.513
_cell_angle_alpha    90
_cell_angle_beta     90
_cell_angle_gamma    90

_symmetry_space_group_name_H-M    "P 1"
_symmetry_int_tables_number       1

loop_
  _symmetry_equiv_pos_as_xyz
  'x, y, z'

loop_
  _atom_site_label
  _atom_site_occupancy
  _atom_site_fract_x
  _atom_site_fract_y
  _atom_site_fract_z
  _atom_site_thermal_displace_type
  _atom_site_B_iso_or_equiv
  _atom_site_type_symbol
  Cu1      1.0000 0.50000  0.86476  0.68020  Biso   1.000  Cu
  Cu2      1.0000 0.50000  0.13524  0.18020  Biso   1.000  Cu
  Cu3      1.0000 0.00000  0.36476  0.68020  Biso   1.000  Cu
  Cu4      1.0000 0.00000  0.63524  0.18020  Biso   1.000  Cu
  S1       1.0000 0.50000  0.17975  0.57870  Biso   1.000  S
  S2       1.0000 0.50000  0.82025  0.07870  Biso   1.000  S
  S3       1.0000 0.00000  0.67975  0.57870  Biso   1.000  S
  S4       1.0000 0.00000  0.32025  0.07870  Biso   1.000  S
  S5       1.0000 0.50000  0.57095  0.37390  Biso   1.000  S
  S6       1.0000 0.50000  0.42905  0.87390  Biso   1.000  S
  S7       1.0000 0.00000  0.07095  0.37390  Biso   1.000  S
  S8       1.0000 0.00000  0.92905  0.87390  Biso   1.000  S
  N1       1.0000 0.50000  0.99870  0.71680  Biso   1.000  N
  N2       1.0000 0.50000  0.00130  0.21680  Biso   1.000  N
  N3       1.0000 0.00000  0.49870  0.71680  Biso   1.000  N
  N4       1.0000 0.00000  0.50130  0.21680  Biso   1.000  N
  N5       1.0000 0.50000  0.73830  0.58210  Biso   1.000  N
  N6       1.0000 0.50000  0.26170  0.08210  Biso   1.000  N
  N7       1.0000 0.00000  0.23830  0.58210  Biso   1.000  N
  N8       1.0000 0.00000  0.76170  0.08210  Biso   1.000  N
  N9       1.0000 0.38778  0.86919  0.65120  Biso   1.000  N
  N10      1.0000 0.61222  0.13081  0.15120  Biso   1.000  N
  N11      1.0000 0.38778  0.13081  0.15120  Biso   1.000  N
  N12      1.0000 0.61222  0.86919  0.65120  Biso   1.000  N
  N13      1.0000 0.88778  0.36919  0.65120  Biso   1.000  N
  N14      1.0000 0.11222  0.63081  0.15120  Biso   1.000  N
  N15      1.0000 0.88778  0.63081  0.15120  Biso   1.000  N
  N16      1.0000 0.11222  0.36919  0.65120  Biso   1.000  N
  N17      1.0000 0.15813  0.89310  0.57350  Biso   1.000  N
  N18      1.0000 0.84187  0.10690  0.07350  Biso   1.000  N
  N19      1.0000 0.15813  0.10690  0.07350  Biso   1.000  N
  N20      1.0000 0.84187  0.89310  0.57350  Biso   1.000  N
  N21      1.0000 0.65813  0.39310  0.57350  Biso   1.000  N
  N22      1.0000 0.34187  0.60690  0.07350  Biso   1.000  N
  N23      1.0000 0.65813  0.60690  0.07350  Biso   1.000  N
  N24      1.0000 0.34187  0.39310  0.57350  Biso   1.000  N
  H1       1.0000 0.13000  0.91100  0.67100  Biso   1.000  H
  H2       1.0000 0.87000  0.08900  0.17100  Biso   1.000  H
  H3       1.0000 0.13000  0.08900  0.17100  Biso   1.000  H
  H4       1.0000 0.87000  0.91100  0.67100  Biso   1.000  H
  H5       1.0000 0.63000  0.41100  0.67100  Biso   1.000  H
  H6       1.0000 0.37000  0.58900  0.17100  Biso   1.000  H
  H7       1.0000 0.63000  0.58900  0.17100  Biso   1.000  H
  H8       1.0000 0.37000  0.41100  0.67100  Biso   1.000  H
  C1       1.0000 0.50000  0.07360  0.66010  Biso   1.000  C
  C2       1.0000 0.50000  0.92640  0.16010  Biso   1.000  C
  C3       1.0000 0.00000  0.57360  0.66010  Biso   1.000  C
  C4       1.0000 0.00000  0.42640  0.16010  Biso   1.000  C
  C5       1.0000 0.50000  0.66870  0.49550  Biso   1.000  C
  C6       1.0000 0.50000  0.33130  0.99550  Biso   1.000  C
  C7       1.0000 0.00000  0.16870  0.49550  Biso   1.000  C
  C8       1.0000 0.00000  0.83130  0.99550  Biso   1.000  C
  C9       1.0000 0.34440  0.91070  0.79480  Biso   1.000  C
  C10      1.0000 0.65560  0.08930  0.29480  Biso   1.000  C
  C11      1.0000 0.34440  0.08930  0.29480  Biso   1.000  C
  C12      1.0000 0.65560  0.91070  0.79480  Biso   1.000  C
  C13      1.0000 0.84440  0.41070  0.79480  Biso   1.000  C
  C14      1.0000 0.15560  0.58930  0.29480  Biso   1.000  C
  C15      1.0000 0.84440  0.58930  0.29480  Biso   1.000  C
  C16      1.0000 0.15560  0.41070  0.79480  Biso   1.000  C
  H9       1.0000 0.36770  0.93600  0.91280  Biso   1.000  H
  H10      1.0000 0.63230  0.06400  0.41280  Biso   1.000  H
  H11      1.0000 0.36770  0.06400  0.41280  Biso   1.000  H
  H12      1.0000 0.63230  0.93600  0.91280  Biso   1.000  H
  H13      1.0000 0.86770  0.43600  0.91280  Biso   1.000  H
  H14      1.0000 0.13230  0.56400  0.41280  Biso   1.000  H
  H15      1.0000 0.86770  0.56400  0.41280  Biso   1.000  H
  H16      1.0000 0.13230  0.43600  0.91280  Biso   1.000  H
  C17      1.0000 0.26850  0.91760  0.77640  Biso   1.000  C
  C18      1.0000 0.73150  0.08240  0.27640  Biso   1.000  C
  C19      1.0000 0.26850  0.08240  0.27640  Biso   1.000  C
  C20      1.0000 0.73150  0.91760  0.77640  Biso   1.000  C
  C21      1.0000 0.76850  0.41760  0.77640  Biso   1.000  C
  C22      1.0000 0.23150  0.58240  0.27640  Biso   1.000  C
  C23      1.0000 0.76850  0.58240  0.27640  Biso   1.000  C
  C24      1.0000 0.23150  0.41760  0.77640  Biso   1.000  C
  H17      1.0000 0.24020  0.94570  0.88240  Biso   1.000  H
  H18      1.0000 0.75980  0.05430  0.38240  Biso   1.000  H
  H19      1.0000 0.24020  0.05430  0.38240  Biso   1.000  H
  H20      1.0000 0.75980  0.94570  0.88240  Biso   1.000  H
  H21      1.0000 0.74020  0.44570  0.88240  Biso   1.000  H
  H22      1.0000 0.25980  0.55430  0.38240  Biso   1.000  H
  H23      1.0000 0.74020  0.55430  0.38240  Biso   1.000  H
  H24      1.0000 0.25980  0.44570  0.88240  Biso   1.000  H
  C25      1.0000 0.23200  0.88310  0.60000  Biso   1.000  C
  C26      1.0000 0.76800  0.11690  0.10000  Biso   1.000  C
  C27      1.0000 0.23200  0.11690  0.10000  Biso   1.000  C
  C28      1.0000 0.76800  0.88310  0.60000  Biso   1.000  C
  C29      1.0000 0.73200  0.38310  0.60000  Biso   1.000  C
  C30      1.0000 0.26800  0.61690  0.10000  Biso   1.000  C
  C31      1.0000 0.73200  0.61690  0.10000  Biso   1.000  C
  C32      1.0000 0.26800  0.38310  0.60000  Biso   1.000  C
  C33      1.0000 0.27787  0.83930  0.45390  Biso   1.000  C
  C34      1.0000 0.72213  0.16070  0.95390  Biso   1.000  C
  C35      1.0000 0.27787  0.16070  0.95390  Biso   1.000  C
  C36      1.0000 0.72213  0.83930  0.45390  Biso   1.000  C
  C37      1.0000 0.77787  0.33930  0.45390  Biso   1.000  C
  C38      1.0000 0.22213  0.66070  0.95390  Biso   1.000  C
  C39      1.0000 0.77787  0.66070  0.95390  Biso   1.000  C
  C40      1.0000 0.22213  0.33930  0.45390  Biso   1.000  C
  H25      1.0000 0.25670  0.81370  0.33320  Biso   1.000  H
  H26      1.0000 0.74330  0.18630  0.83320  Biso   1.000  H
  H27      1.0000 0.25670  0.18630  0.83320  Biso   1.000  H
  H28      1.0000 0.74330  0.81370  0.33320  Biso   1.000  H
  H29      1.0000 0.75670  0.31370  0.33320  Biso   1.000  H
  H30      1.0000 0.24330  0.68630  0.83320  Biso   1.000  H
  H31      1.0000 0.75670  0.68630  0.83320  Biso   1.000  H
  H32      1.0000 0.24330  0.31370  0.33320  Biso   1.000  H
  C41      1.0000 0.35320  0.83390  0.48730  Biso   1.000  C
  C42      1.0000 0.64680  0.16610  0.98730  Biso   1.000  C
  C43      1.0000 0.35320  0.16610  0.98730  Biso   1.000  C
  C44      1.0000 0.64680  0.83390  0.48730  Biso   1.000  C
  C45      1.0000 0.85320  0.33390  0.48730  Biso   1.000  C
  C46      1.0000 0.14680  0.66610  0.98730  Biso   1.000  C
  C47      1.0000 0.85320  0.66610  0.98730  Biso   1.000  C
  C48      1.0000 0.14680  0.33390  0.48730  Biso   1.000  C
  H33      1.0000 0.38270  0.80320  0.38770  Biso   1.000  H
  H34      1.0000 0.61730  0.19680  0.88770  Biso   1.000  H
  H35      1.0000 0.38270  0.19680  0.88770  Biso   1.000  H
  H36      1.0000 0.61730  0.80320  0.38770  Biso   1.000  H
  H37      1.0000 0.88270  0.30320  0.38770  Biso   1.000  H
  H38      1.0000 0.11730  0.69680  0.88770  Biso   1.000  H
  H39      1.0000 0.88270  0.69680  0.88770  Biso   1.000  H
  H40      1.0000 0.11730  0.30320  0.38770  Biso   1.000  H
  C49      1.0000 0.11900  0.86030  0.39330  Biso   1.000  C
  C50      1.0000 0.88100  0.13970  0.89330  Biso   1.000  C
  C51      1.0000 0.11900  0.13970  0.89330  Biso   1.000  C
  C52      1.0000 0.88100  0.86030  0.39330  Biso   1.000  C
  C53      1.0000 0.61900  0.36030  0.39330  Biso   1.000  C
  C54      1.0000 0.38100  0.63970  0.89330  Biso   1.000  C
  C55      1.0000 0.61900  0.63970  0.89330  Biso   1.000  C
  C56      1.0000 0.38100  0.36030  0.39330  Biso   1.000  C
  H41      1.0000 0.14180  0.88660  0.26990  Biso   1.000  H
  H42      1.0000 0.85820  0.11340  0.76990  Biso   1.000  H
  H43      1.0000 0.14180  0.11340  0.76990  Biso   1.000  H
  H44      1.0000 0.85820  0.88660  0.26990  Biso   1.000  H
  H45      1.0000 0.64180  0.38660  0.26990  Biso   1.000  H
  H46      1.0000 0.35820  0.61340  0.76990  Biso   1.000  H
  H47      1.0000 0.64180  0.61340  0.76990  Biso   1.000  H
  H48      1.0000 0.35820  0.38660  0.26990  Biso   1.000  H
  H49      1.0000 0.06650  0.87870  0.40080  Biso   1.000  H
  H50      1.0000 0.93350  0.12130  0.90080  Biso   1.000  H
  H51      1.0000 0.06650  0.12130  0.90080  Biso   1.000  H
  H52      1.0000 0.93350  0.87870  0.40080  Biso   1.000  H
  H53      1.0000 0.56650  0.37870  0.40080  Biso   1.000  H
  H54      1.0000 0.43350  0.62130  0.90080  Biso   1.000  H
  H55      1.0000 0.56650  0.62130  0.90080  Biso   1.000  H
  H56      1.0000 0.43350  0.37870  0.40080  Biso   1.000  H
  H57      1.0000 0.12230  0.79350  0.38720  Biso   1.000  H
  H58      1.0000 0.87770  0.20650  0.88720  Biso   1.000  H
  H59      1.0000 0.12230  0.20650  0.88720  Biso   1.000  H
  H60      1.0000 0.87770  0.79350  0.38720  Biso   1.000  H
  H61      1.0000 0.62230  0.29350  0.38720  Biso   1.000  H
  H62      1.0000 0.37770  0.70650  0.88720  Biso   1.000  H
  H63      1.0000 0.62230  0.70650  0.88720  Biso   1.000  H
  H64      1.0000 0.37770  0.29350  0.38720  Biso   1.000  H
