data_image0
_cell_length_a       18.0714
_cell_length_b       15.1311
_cell_length_c       6.5878
_cell_angle_alpha    90
_cell_angle_beta     90
_cell_angle_gamma    90

_symmetry_space_group_name_H-M    "P 1"
_symmetry_int_tables_number       1

loop_
  _symmetry_equiv_pos_as_xyz
  'x, y, z'

loop_
  _atom_site_label
  _atom_site_occupancy
  _atom_site_fract_x
  _atom_site_fract_y
  _atom_site_fract_z
  _atom_site_thermal_displace_type
  _atom_site_B_iso_or_equiv
  _atom_site_type_symbol
  Cu1      1.0000 0.50000  0.86197  0.45440  Biso   1.000  Cu
  Cu2      1.0000 0.50000  0.13803  0.95440  Biso   1.000  Cu
  Cu3      1.0000 0.00000  0.36197  0.45440  Biso   1.000  Cu
  Cu4      1.0000 0.00000  0.63803  0.95440  Biso   1.000  Cu
  S1       1.0000 0.50000  0.16933  0.53950  Biso   1.000  S
  S2       1.0000 0.50000  0.83067  0.03950  Biso   1.000  S
  S3       1.0000 0.00000  0.66933  0.53950  Biso   1.000  S
  S4       1.0000 0.00000  0.33067  0.03950  Biso   1.000  S
  S5       1.0000 0.50000  0.57386  0.72770  Biso   1.000  S
  S6       1.0000 0.50000  0.42614  0.22770  Biso   1.000  S
  S7       1.0000 0.00000  0.07386  0.72770  Biso   1.000  S
  S8       1.0000 0.00000  0.92614  0.22770  Biso   1.000  S
  N1       1.0000 0.50000  0.99090  0.43390  Biso   1.000  N
  N2       1.0000 0.50000  0.00910  0.93390  Biso   1.000  N
  N3       1.0000 0.00000  0.49090  0.43390  Biso   1.000  N
  N4       1.0000 0.00000  0.50910  0.93390  Biso   1.000  N
  N5       1.0000 0.50000  0.73860  0.53630  Biso   1.000  N
  N6       1.0000 0.50000  0.26140  0.03630  Biso   1.000  N
  N7       1.0000 0.00000  0.23860  0.53630  Biso   1.000  N
  N8       1.0000 0.00000  0.76140  0.03630  Biso   1.000  N
  N9       1.0000 0.38795  0.86615  0.47640  Biso   1.000  N
  N10      1.0000 0.61205  0.13385  0.97640  Biso   1.000  N
  N11      1.0000 0.38795  0.13385  0.97640  Biso   1.000  N
  N12      1.0000 0.61205  0.86615  0.47640  Biso   1.000  N
  N13      1.0000 0.88795  0.36615  0.47640  Biso   1.000  N
  N14      1.0000 0.11205  0.63385  0.97640  Biso   1.000  N
  N15      1.0000 0.88795  0.63385  0.97640  Biso   1.000  N
  N16      1.0000 0.11205  0.36615  0.47640  Biso   1.000  N
  N17      1.0000 0.15952  0.89110  0.54420  Biso   1.000  N
  N18      1.0000 0.84048  0.10890  0.04420  Biso   1.000  N
  N19      1.0000 0.15952  0.10890  0.04420  Biso   1.000  N
  N20      1.0000 0.84048  0.89110  0.54420  Biso   1.000  N
  N21      1.0000 0.65952  0.39110  0.54420  Biso   1.000  N
  N22      1.0000 0.34048  0.60890  0.04420  Biso   1.000  N
  N23      1.0000 0.65952  0.60890  0.04420  Biso   1.000  N
  N24      1.0000 0.34048  0.39110  0.54420  Biso   1.000  N
  H1       1.0000 0.13800  0.90900  0.44600  Biso   1.000  H
  H2       1.0000 0.86200  0.09100  0.94600  Biso   1.000  H
  H3       1.0000 0.13800  0.09100  0.94600  Biso   1.000  H
  H4       1.0000 0.86200  0.90900  0.44600  Biso   1.000  H
  H5       1.0000 0.63800  0.40900  0.44600  Biso   1.000  H
  H6       1.0000 0.36200  0.59100  0.94600  Biso   1.000  H
  H7       1.0000 0.63800  0.59100  0.94600  Biso   1.000  H
  H8       1.0000 0.36200  0.40900  0.44600  Biso   1.000  H
  C1       1.0000 0.50000  0.06530  0.47720  Biso   1.000  C
  C2       1.0000 0.50000  0.93470  0.97720  Biso   1.000  C
  C3       1.0000 0.00000  0.56530  0.47720  Biso   1.000  C
  C4       1.0000 0.00000  0.43470  0.97720  Biso   1.000  C
  C5       1.0000 0.50000  0.67080  0.61470  Biso   1.000  C
  C6       1.0000 0.50000  0.32920  0.11470  Biso   1.000  C
  C7       1.0000 0.00000  0.17080  0.61470  Biso   1.000  C
  C8       1.0000 0.00000  0.82920  0.11470  Biso   1.000  C
  C9       1.0000 0.34550  0.90960  0.33990  Biso   1.000  C
  C10      1.0000 0.65450  0.09040  0.83990  Biso   1.000  C
  C11      1.0000 0.34550  0.09040  0.83990  Biso   1.000  C
  C12      1.0000 0.65450  0.90960  0.33990  Biso   1.000  C
  C13      1.0000 0.84550  0.40960  0.33990  Biso   1.000  C
  C14      1.0000 0.15450  0.59040  0.83990  Biso   1.000  C
  C15      1.0000 0.84550  0.59040  0.83990  Biso   1.000  C
  C16      1.0000 0.15450  0.40960  0.33990  Biso   1.000  C
  H9       1.0000 0.36880  0.93580  0.22930  Biso   1.000  H
  H10      1.0000 0.63120  0.06420  0.72930  Biso   1.000  H
  H11      1.0000 0.36880  0.06420  0.72930  Biso   1.000  H
  H12      1.0000 0.63120  0.93580  0.22930  Biso   1.000  H
  H13      1.0000 0.86880  0.43580  0.22930  Biso   1.000  H
  H14      1.0000 0.13120  0.56420  0.72930  Biso   1.000  H
  H15      1.0000 0.86880  0.56420  0.72930  Biso   1.000  H
  H16      1.0000 0.13120  0.43580  0.22930  Biso   1.000  H
  C17      1.0000 0.27070  0.91700  0.35510  Biso   1.000  C
  C18      1.0000 0.72930  0.08300  0.85510  Biso   1.000  C
  C19      1.0000 0.27070  0.08300  0.85510  Biso   1.000  C
  C20      1.0000 0.72930  0.91700  0.35510  Biso   1.000  C
  C21      1.0000 0.77070  0.41700  0.35510  Biso   1.000  C
  C22      1.0000 0.22930  0.58300  0.85510  Biso   1.000  C
  C23      1.0000 0.77070  0.58300  0.85510  Biso   1.000  C
  C24      1.0000 0.22930  0.41700  0.35510  Biso   1.000  C
  H17      1.0000 0.24440  0.94650  0.25440  Biso   1.000  H
  H18      1.0000 0.75560  0.05350  0.75440  Biso   1.000  H
  H19      1.0000 0.24440  0.05350  0.75440  Biso   1.000  H
  H20      1.0000 0.75560  0.94650  0.25440  Biso   1.000  H
  H21      1.0000 0.74440  0.44650  0.25440  Biso   1.000  H
  H22      1.0000 0.25560  0.55350  0.75440  Biso   1.000  H
  H23      1.0000 0.74440  0.55350  0.75440  Biso   1.000  H
  H24      1.0000 0.25560  0.44650  0.25440  Biso   1.000  H
  C25      1.0000 0.23330  0.88090  0.52040  Biso   1.000  C
  C26      1.0000 0.76670  0.11910  0.02040  Biso   1.000  C
  C27      1.0000 0.23330  0.11910  0.02040  Biso   1.000  C
  C28      1.0000 0.76670  0.88090  0.52040  Biso   1.000  C
  C29      1.0000 0.73330  0.38090  0.52040  Biso   1.000  C
  C30      1.0000 0.26670  0.61910  0.02040  Biso   1.000  C
  C31      1.0000 0.73330  0.61910  0.02040  Biso   1.000  C
  C32      1.0000 0.26670  0.38090  0.52040  Biso   1.000  C
  C33      1.0000 0.27710  0.83610  0.66180  Biso   1.000  C
  C34      1.0000 0.72290  0.16390  0.16180  Biso   1.000  C
  C35      1.0000 0.27710  0.16390  0.16180  Biso   1.000  C
  C36      1.0000 0.72290  0.83610  0.66180  Biso   1.000  C
  C37      1.0000 0.77710  0.33610  0.66180  Biso   1.000  C
  C38      1.0000 0.22290  0.66390  0.16180  Biso   1.000  C
  C39      1.0000 0.77710  0.66390  0.16180  Biso   1.000  C
  C40      1.0000 0.22290  0.33610  0.66180  Biso   1.000  C
  H25      1.0000 0.25540  0.81060  0.77560  Biso   1.000  H
  H26      1.0000 0.74460  0.18940  0.27560  Biso   1.000  H
  H27      1.0000 0.25540  0.18940  0.27560  Biso   1.000  H
  H28      1.0000 0.74460  0.81060  0.77560  Biso   1.000  H
  H29      1.0000 0.75540  0.31060  0.77560  Biso   1.000  H
  H30      1.0000 0.24460  0.68940  0.27560  Biso   1.000  H
  H31      1.0000 0.75540  0.68940  0.27560  Biso   1.000  H
  H32      1.0000 0.24460  0.31060  0.77560  Biso   1.000  H
  C41      1.0000 0.35170  0.82970  0.63290  Biso   1.000  C
  C42      1.0000 0.64830  0.17030  0.13290  Biso   1.000  C
  C43      1.0000 0.35170  0.17030  0.13290  Biso   1.000  C
  C44      1.0000 0.64830  0.82970  0.63290  Biso   1.000  C
  C45      1.0000 0.85170  0.32970  0.63290  Biso   1.000  C
  C46      1.0000 0.14830  0.67030  0.13290  Biso   1.000  C
  C47      1.0000 0.85170  0.67030  0.13290  Biso   1.000  C
  C48      1.0000 0.14830  0.32970  0.63290  Biso   1.000  C
  H33      1.0000 0.37910  0.79820  0.72790  Biso   1.000  H
  H34      1.0000 0.62090  0.20180  0.22790  Biso   1.000  H
  H35      1.0000 0.37910  0.20180  0.22790  Biso   1.000  H
  H36      1.0000 0.62090  0.79820  0.72790  Biso   1.000  H
  H37      1.0000 0.87910  0.29820  0.72790  Biso   1.000  H
  H38      1.0000 0.12090  0.70180  0.22790  Biso   1.000  H
  H39      1.0000 0.87910  0.70180  0.22790  Biso   1.000  H
  H40      1.0000 0.12090  0.29820  0.72790  Biso   1.000  H
  C49      1.0000 0.11790  0.85840  0.71540  Biso   1.000  C
  C50      1.0000 0.88210  0.14160  0.21540  Biso   1.000  C
  C51      1.0000 0.11790  0.14160  0.21540  Biso   1.000  C
  C52      1.0000 0.88210  0.85840  0.71540  Biso   1.000  C
  C53      1.0000 0.61790  0.35840  0.71540  Biso   1.000  C
  C54      1.0000 0.38210  0.64160  0.21540  Biso   1.000  C
  C55      1.0000 0.61790  0.64160  0.21540  Biso   1.000  C
  C56      1.0000 0.38210  0.35840  0.71540  Biso   1.000  C
  H41      1.0000 0.06760  0.87830  0.70540  Biso   1.000  H
  H42      1.0000 0.93240  0.12170  0.20540  Biso   1.000  H
  H43      1.0000 0.06760  0.12170  0.20540  Biso   1.000  H
  H44      1.0000 0.93240  0.87830  0.70540  Biso   1.000  H
  H45      1.0000 0.56760  0.37830  0.70540  Biso   1.000  H
  H46      1.0000 0.43240  0.62170  0.20540  Biso   1.000  H
  H47      1.0000 0.56760  0.62170  0.20540  Biso   1.000  H
  H48      1.0000 0.43240  0.37830  0.70540  Biso   1.000  H
  H49      1.0000 0.13940  0.88030  0.83880  Biso   1.000  H
  H50      1.0000 0.86060  0.11970  0.33880  Biso   1.000  H
  H51      1.0000 0.13940  0.11970  0.33880  Biso   1.000  H
  H52      1.0000 0.86060  0.88030  0.83880  Biso   1.000  H
  H53      1.0000 0.63940  0.38030  0.83880  Biso   1.000  H
  H54      1.0000 0.36060  0.61970  0.33880  Biso   1.000  H
  H55      1.0000 0.63940  0.61970  0.33880  Biso   1.000  H
  H56      1.0000 0.36060  0.38030  0.83880  Biso   1.000  H
  H57      1.0000 0.11900  0.79500  0.71570  Biso   1.000  H
  H58      1.0000 0.88100  0.20500  0.21570  Biso   1.000  H
  H59      1.0000 0.11900  0.20500  0.21570  Biso   1.000  H
  H60      1.0000 0.88100  0.79500  0.71570  Biso   1.000  H
  H61      1.0000 0.61900  0.29500  0.71570  Biso   1.000  H
  H62      1.0000 0.38100  0.70500  0.21570  Biso   1.000  H
  H63      1.0000 0.61900  0.70500  0.21570  Biso   1.000  H
  H64      1.0000 0.38100  0.29500  0.71570  Biso   1.000  H
