data_image0
_cell_length_a       13.9
_cell_length_b       14.416
_cell_length_c       4.097
_cell_angle_alpha    90
_cell_angle_beta     93.49
_cell_angle_gamma    90

_symmetry_space_group_name_H-M    "P 1"
_symmetry_int_tables_number       1

loop_
  _symmetry_equiv_pos_as_xyz
  'x, y, z'

loop_
  _atom_site_label
  _atom_site_occupancy
  _atom_site_fract_x
  _atom_site_fract_y
  _atom_site_fract_z
  _atom_site_thermal_displace_type
  _atom_site_B_iso_or_equiv
  _atom_site_type_symbol
  Cu1      1.0000 0.00000  0.00000  0.00000  Biso   1.000  Cu
  Cu2      1.0000 0.50000  0.50000  0.00000  Biso   1.000  Cu
  Br1      1.0000 0.89840  0.09490  0.62200  Biso   1.000  Br
  Br2      1.0000 0.60160  0.59490  0.37800  Biso   1.000  Br
  Br3      1.0000 0.10160  0.90510  0.37800  Biso   1.000  Br
  Br4      1.0000 0.39840  0.40510  0.62200  Biso   1.000  Br
  N1       1.0000 0.10170  0.10000  0.02680  Biso   1.000  N
  N2       1.0000 0.39830  0.60000  0.97320  Biso   1.000  N
  N3       1.0000 0.89830  0.90000  0.97320  Biso   1.000  N
  N4       1.0000 0.60170  0.40000  0.02680  Biso   1.000  N
  C1       1.0000 0.19240  0.08290  0.92750  Biso   1.000  C
  C2       1.0000 0.30760  0.58290  0.07250  Biso   1.000  C
  C3       1.0000 0.80760  0.91710  0.07250  Biso   1.000  C
  C4       1.0000 0.69240  0.41710  0.92750  Biso   1.000  C
  C5       1.0000 0.26070  0.15150  0.94650  Biso   1.000  C
  C6       1.0000 0.23930  0.65150  0.05350  Biso   1.000  C
  C7       1.0000 0.73930  0.84850  0.05350  Biso   1.000  C
  C8       1.0000 0.76070  0.34850  0.94650  Biso   1.000  C
  C9       1.0000 0.36060  0.13270  0.83720  Biso   1.000  C
  C10      1.0000 0.13940  0.63270  0.16280  Biso   1.000  C
  C11      1.0000 0.63940  0.86730  0.16280  Biso   1.000  C
  C12      1.0000 0.86060  0.36730  0.83720  Biso   1.000  C
  C13      1.0000 0.23830  0.23730  0.06470  Biso   1.000  C
  C14      1.0000 0.26170  0.73730  0.93530  Biso   1.000  C
  C15      1.0000 0.76170  0.76270  0.93530  Biso   1.000  C
  C16      1.0000 0.73830  0.26270  0.06470  Biso   1.000  C
  C17      1.0000 0.14760  0.25440  0.16390  Biso   1.000  C
  C18      1.0000 0.35240  0.75440  0.83610  Biso   1.000  C
  C19      1.0000 0.85240  0.74560  0.83610  Biso   1.000  C
  C20      1.0000 0.64760  0.24560  0.16390  Biso   1.000  C
  C21      1.0000 0.12290  0.34890  0.29410  Biso   1.000  C
  C22      1.0000 0.37710  0.84890  0.70590  Biso   1.000  C
  C23      1.0000 0.87710  0.65110  0.70590  Biso   1.000  C
  C24      1.0000 0.62290  0.15110  0.29410  Biso   1.000  C
  C25      1.0000 0.07930  0.18580  0.14500  Biso   1.000  C
  C26      1.0000 0.42070  0.68580  0.85500  Biso   1.000  C
  C27      1.0000 0.92070  0.81420  0.85500  Biso   1.000  C
  C28      1.0000 0.57930  0.31420  0.14500  Biso   1.000  C
