data_image0
_cell_length_a       26.077
_cell_length_b       14.2178
_cell_length_c       21.0657
_cell_angle_alpha    90
_cell_angle_beta     113.187
_cell_angle_gamma    90

_symmetry_space_group_name_H-M    "P 1"
_symmetry_int_tables_number       1

loop_
  _symmetry_equiv_pos_as_xyz
  'x, y, z'

loop_
  _atom_site_label
  _atom_site_occupancy
  _atom_site_fract_x
  _atom_site_fract_y
  _atom_site_fract_z
  _atom_site_thermal_displace_type
  _atom_site_B_iso_or_equiv
  _atom_site_type_symbol
  C1       1.0000 0.74550  0.16970  0.71000  Biso   1.000  C
  C2       1.0000 0.74550  0.83030  0.21000  Biso   1.000  C
  C3       1.0000 0.24550  0.66970  0.71000  Biso   1.000  C
  C4       1.0000 0.24550  0.33030  0.21000  Biso   1.000  C
  C5       1.0000 0.80540  0.20440  0.74610  Biso   1.000  C
  C6       1.0000 0.80540  0.79560  0.24610  Biso   1.000  C
  C7       1.0000 0.30540  0.70440  0.74610  Biso   1.000  C
  C8       1.0000 0.30540  0.29560  0.24610  Biso   1.000  C
  H1       1.0000 0.81509  0.20711  0.79499  Biso   1.000  H
  H2       1.0000 0.81509  0.79289  0.29499  Biso   1.000  H
  H3       1.0000 0.31509  0.70711  0.79499  Biso   1.000  H
  H4       1.0000 0.31509  0.29289  0.29499  Biso   1.000  H
  H5       1.0000 0.83013  0.16192  0.73663  Biso   1.000  H
  H6       1.0000 0.83013  0.83808  0.23663  Biso   1.000  H
  H7       1.0000 0.33013  0.66192  0.73663  Biso   1.000  H
  H8       1.0000 0.33013  0.33808  0.23663  Biso   1.000  H
  H9       1.0000 0.80866  0.26596  0.72935  Biso   1.000  H
  H10      1.0000 0.80866  0.73404  0.22935  Biso   1.000  H
  H11      1.0000 0.30866  0.76596  0.72935  Biso   1.000  H
  H12      1.0000 0.30866  0.23404  0.22935  Biso   1.000  H
  C9       1.0000 0.66080  0.25310  0.45820  Biso   1.000  C
  C10      1.0000 0.66080  0.74690  0.95820  Biso   1.000  C
  C11      1.0000 0.16080  0.75310  0.45820  Biso   1.000  C
  C12      1.0000 0.16080  0.24690  0.95820  Biso   1.000  C
  C13      1.0000 0.67530  0.30910  0.40730  Biso   1.000  C
  C14      1.0000 0.67530  0.69090  0.90730  Biso   1.000  C
  C15      1.0000 0.17530  0.80910  0.40730  Biso   1.000  C
  C16      1.0000 0.17530  0.19090  0.90730  Biso   1.000  C
  C17      1.0000 0.72850  0.34760  0.42940  Biso   1.000  C
  C18      1.0000 0.72850  0.65240  0.92940  Biso   1.000  C
  C19      1.0000 0.22850  0.84760  0.42940  Biso   1.000  C
  C20      1.0000 0.22850  0.15240  0.92940  Biso   1.000  C
  H13      1.0000 0.75369  0.33723  0.47448  Biso   1.000  H
  H14      1.0000 0.75369  0.66277  0.97448  Biso   1.000  H
  H15      1.0000 0.25369  0.83723  0.47448  Biso   1.000  H
  H16      1.0000 0.25369  0.16277  0.97448  Biso   1.000  H
  C21      1.0000 0.74440  0.40020  0.38620  Biso   1.000  C
  C22      1.0000 0.74440  0.59980  0.88620  Biso   1.000  C
  C23      1.0000 0.24440  0.90020  0.38620  Biso   1.000  C
  C24      1.0000 0.24440  0.09980  0.88620  Biso   1.000  C
  H17      1.0000 0.77990  0.42661  0.40128  Biso   1.000  H
  H18      1.0000 0.77990  0.57339  0.90128  Biso   1.000  H
  H19      1.0000 0.27990  0.92661  0.40128  Biso   1.000  H
  H20      1.0000 0.27990  0.07339  0.90128  Biso   1.000  H
  C25      1.0000 0.70930  0.41200  0.32480  Biso   1.000  C
  C26      1.0000 0.70930  0.58800  0.82480  Biso   1.000  C
  C27      1.0000 0.20930  0.91200  0.32480  Biso   1.000  C
  C28      1.0000 0.20930  0.08800  0.82480  Biso   1.000  C
  H21      1.0000 0.72065  0.44781  0.29572  Biso   1.000  H
  H22      1.0000 0.72065  0.55219  0.79572  Biso   1.000  H
  H23      1.0000 0.22065  0.94781  0.29572  Biso   1.000  H
  H24      1.0000 0.22065  0.05219  0.79572  Biso   1.000  H
  C29      1.0000 0.63900  0.32530  0.33950  Biso   1.000  C
  C30      1.0000 0.63900  0.67470  0.83950  Biso   1.000  C
  C31      1.0000 0.13900  0.82530  0.33950  Biso   1.000  C
  C32      1.0000 0.13900  0.17470  0.83950  Biso   1.000  C
  C33      1.0000 0.58010  0.29430  0.30720  Biso   1.000  C
  C34      1.0000 0.58010  0.70570  0.80720  Biso   1.000  C
  C35      1.0000 0.08010  0.79430  0.30720  Biso   1.000  C
  C36      1.0000 0.08010  0.20570  0.80720  Biso   1.000  C
  C37      1.0000 0.49160  0.34110  0.28130  Biso   1.000  C
  C38      1.0000 0.49160  0.65890  0.78130  Biso   1.000  C
  C39      1.0000 0.99160  0.84110  0.28130  Biso   1.000  C
  C40      1.0000 0.99160  0.15890  0.78130  Biso   1.000  C
  H25      1.0000 0.46699  0.38476  0.28648  Biso   1.000  H
  H26      1.0000 0.46699  0.61524  0.78648  Biso   1.000  H
  H27      1.0000 0.96699  0.88476  0.28648  Biso   1.000  H
  H28      1.0000 0.96699  0.11524  0.78648  Biso   1.000  H
  C41      1.0000 0.46920  0.26400  0.23770  Biso   1.000  C
  C42      1.0000 0.46920  0.73600  0.73770  Biso   1.000  C
  C43      1.0000 0.96920  0.76400  0.23770  Biso   1.000  C
  C44      1.0000 0.96920  0.23600  0.73770  Biso   1.000  C
  H29      1.0000 0.43086  0.25615  0.21523  Biso   1.000  H
  H30      1.0000 0.43086  0.74385  0.71523  Biso   1.000  H
  H31      1.0000 0.93086  0.75615  0.21523  Biso   1.000  H
  H32      1.0000 0.93086  0.24385  0.71523  Biso   1.000  H
  C45      1.0000 0.50580  0.20010  0.22920  Biso   1.000  C
  C46      1.0000 0.50580  0.79990  0.72920  Biso   1.000  C
  C47      1.0000 0.00580  0.70010  0.22920  Biso   1.000  C
  C48      1.0000 0.00580  0.29990  0.72920  Biso   1.000  C
  H33      1.0000 0.49260  0.14907  0.19951  Biso   1.000  H
  H34      1.0000 0.49260  0.85093  0.69951  Biso   1.000  H
  H35      1.0000 0.99260  0.64907  0.19951  Biso   1.000  H
  H36      1.0000 0.99260  0.35093  0.69951  Biso   1.000  H
  C49      1.0000 0.56300  0.21350  0.26600  Biso   1.000  C
  C50      1.0000 0.56300  0.78650  0.76600  Biso   1.000  C
  C51      1.0000 0.06300  0.71350  0.26600  Biso   1.000  C
  C52      1.0000 0.06300  0.28650  0.76600  Biso   1.000  C
  C53      1.0000 0.60240  0.14270  0.25780  Biso   1.000  C
  C54      1.0000 0.60240  0.85730  0.75780  Biso   1.000  C
  C55      1.0000 0.10240  0.64270  0.25780  Biso   1.000  C
  C56      1.0000 0.10240  0.35730  0.75780  Biso   1.000  C
  C57      1.0000 0.50630  0.04560  0.49920  Biso   1.000  C
  C58      1.0000 0.50630  0.95440  0.99920  Biso   1.000  C
  C59      1.0000 0.00630  0.54560  0.49920  Biso   1.000  C
  C60      1.0000 0.00630  0.45440  0.99920  Biso   1.000  C
  C61      1.0000 0.45340  0.04510  0.43480  Biso   1.000  C
  C62      1.0000 0.45340  0.95490  0.93480  Biso   1.000  C
  C63      1.0000 0.95340  0.54510  0.43480  Biso   1.000  C
  C64      1.0000 0.95340  0.45490  0.93480  Biso   1.000  C
  C65      1.0000 0.45070  0.09170  0.37510  Biso   1.000  C
  C66      1.0000 0.45070  0.90830  0.87510  Biso   1.000  C
  C67      1.0000 0.95070  0.59170  0.37510  Biso   1.000  C
  C68      1.0000 0.95070  0.40830  0.87510  Biso   1.000  C
  H37      1.0000 0.48226  0.12101  0.37422  Biso   1.000  H
  H38      1.0000 0.48226  0.87899  0.87422  Biso   1.000  H
  H39      1.0000 0.98226  0.62101  0.37422  Biso   1.000  H
  H40      1.0000 0.98226  0.37899  0.87422  Biso   1.000  H
  C69      1.0000 0.40240  0.09420  0.31870  Biso   1.000  C
  C70      1.0000 0.40240  0.90580  0.81870  Biso   1.000  C
  C71      1.0000 0.90240  0.59420  0.31870  Biso   1.000  C
  C72      1.0000 0.90240  0.40580  0.81870  Biso   1.000  C
  H41      1.0000 0.40038  0.12550  0.27899  Biso   1.000  H
  H42      1.0000 0.40038  0.87450  0.77899  Biso   1.000  H
  H43      1.0000 0.90038  0.62550  0.27899  Biso   1.000  H
  H44      1.0000 0.90038  0.37450  0.77899  Biso   1.000  H
  C73      1.0000 0.35620  0.04970  0.32080  Biso   1.000  C
  C74      1.0000 0.35620  0.95030  0.82080  Biso   1.000  C
  C75      1.0000 0.85620  0.54970  0.32080  Biso   1.000  C
  C76      1.0000 0.85620  0.45030  0.82080  Biso   1.000  C
  H45      1.0000 0.32299  0.05185  0.28188  Biso   1.000  H
  H46      1.0000 0.32299  0.94815  0.78188  Biso   1.000  H
  H47      1.0000 0.82299  0.55185  0.28188  Biso   1.000  H
  H48      1.0000 0.82299  0.44815  0.78188  Biso   1.000  H
  C77      1.0000 0.40490  0.00090  0.43180  Biso   1.000  C
  C78      1.0000 0.40490  0.99910  0.93180  Biso   1.000  C
  C79      1.0000 0.90490  0.50090  0.43180  Biso   1.000  C
  C80      1.0000 0.90490  0.49910  0.93180  Biso   1.000  C
  C81      1.0000 0.39900  0.94430  0.48920  Biso   1.000  C
  C82      1.0000 0.39900  0.05570  0.98920  Biso   1.000  C
  C83      1.0000 0.89900  0.44430  0.48920  Biso   1.000  C
  C84      1.0000 0.89900  0.55570  0.98920  Biso   1.000  C
  C85      1.0000 0.38740  0.79460  0.52460  Biso   1.000  C
  C86      1.0000 0.38740  0.20540  0.02460  Biso   1.000  C
  C87      1.0000 0.88740  0.29460  0.52460  Biso   1.000  C
  C88      1.0000 0.88740  0.70540  0.02460  Biso   1.000  C
  H49      1.0000 0.38980  0.72978  0.52063  Biso   1.000  H
  H50      1.0000 0.38980  0.27022  0.02063  Biso   1.000  H
  H51      1.0000 0.88980  0.22978  0.52063  Biso   1.000  H
  H52      1.0000 0.88980  0.77022  0.02063  Biso   1.000  H
  C89      1.0000 0.36910  0.82910  0.57380  Biso   1.000  C
  C90      1.0000 0.36910  0.17090  0.07380  Biso   1.000  C
  C91      1.0000 0.86910  0.32910  0.57380  Biso   1.000  C
  C92      1.0000 0.86910  0.67090  0.07380  Biso   1.000  C
  H53      1.0000 0.35838  0.78886  0.60111  Biso   1.000  H
  H54      1.0000 0.35838  0.21114  0.10111  Biso   1.000  H
  H55      1.0000 0.85838  0.28886  0.60111  Biso   1.000  H
  H56      1.0000 0.85838  0.71114  0.10111  Biso   1.000  H
  C93      1.0000 0.36750  0.92490  0.58050  Biso   1.000  C
  C94      1.0000 0.36750  0.07510  0.08050  Biso   1.000  C
  C95      1.0000 0.86750  0.42490  0.58050  Biso   1.000  C
  C96      1.0000 0.86750  0.57510  0.08050  Biso   1.000  C
  H57      1.0000 0.35537  0.95024  0.61284  Biso   1.000  H
  H58      1.0000 0.35537  0.04976  0.11284  Biso   1.000  H
  H59      1.0000 0.85537  0.45024  0.61284  Biso   1.000  H
  H60      1.0000 0.85537  0.54976  0.11284  Biso   1.000  H
  C97      1.0000 0.38360  0.98400  0.54020  Biso   1.000  C
  C98      1.0000 0.38360  0.01600  0.04020  Biso   1.000  C
  C99      1.0000 0.88360  0.48400  0.54020  Biso   1.000  C
  C100     1.0000 0.88360  0.51600  0.04020  Biso   1.000  C
  C101     1.0000 0.38070  0.08940  0.55050  Biso   1.000  C
  C102     1.0000 0.38070  0.91060  0.05050  Biso   1.000  C
  C103     1.0000 0.88070  0.58940  0.55050  Biso   1.000  C
  C104     1.0000 0.88070  0.41060  0.05050  Biso   1.000  C
  C105     1.0000 0.01290  0.26030  0.15090  Biso   1.000  C
  C106     1.0000 0.01290  0.73970  0.65090  Biso   1.000  C
  C107     1.0000 0.51290  0.76030  0.15090  Biso   1.000  C
  C108     1.0000 0.51290  0.23970  0.65090  Biso   1.000  C
  H61      1.0000 0.01542  0.29544  0.11504  Biso   1.000  H
  H62      1.0000 0.01542  0.70456  0.61504  Biso   1.000  H
  H63      1.0000 0.51542  0.79544  0.11504  Biso   1.000  H
  H64      1.0000 0.51542  0.20456  0.61504  Biso   1.000  H
  C109     1.0000 0.06000  0.24910  0.20910  Biso   1.000  C
  C110     1.0000 0.06000  0.75090  0.70910  Biso   1.000  C
  C111     1.0000 0.56000  0.74910  0.20910  Biso   1.000  C
  C112     1.0000 0.56000  0.25090  0.70910  Biso   1.000  C
  H65      1.0000 0.09349  0.27653  0.21299  Biso   1.000  H
  H66      1.0000 0.09349  0.72347  0.71299  Biso   1.000  H
  H67      1.0000 0.59349  0.77653  0.21299  Biso   1.000  H
  H68      1.0000 0.59349  0.22347  0.71299  Biso   1.000  H
  C113     1.0000 0.05670  0.19450  0.26360  Biso   1.000  C
  C114     1.0000 0.05670  0.80550  0.76360  Biso   1.000  C
  C115     1.0000 0.55670  0.69450  0.26360  Biso   1.000  C
  C116     1.0000 0.55670  0.30550  0.76360  Biso   1.000  C
  H69      1.0000 0.08833  0.18249  0.30328  Biso   1.000  H
  H70      1.0000 0.08833  0.81751  0.80328  Biso   1.000  H
  H71      1.0000 0.58833  0.68249  0.30328  Biso   1.000  H
  H72      1.0000 0.58833  0.31751  0.80328  Biso   1.000  H
  C117     1.0000 0.00440  0.15910  0.25610  Biso   1.000  C
  C118     1.0000 0.00440  0.84090  0.75610  Biso   1.000  C
  C119     1.0000 0.50440  0.65910  0.25610  Biso   1.000  C
  C120     1.0000 0.50440  0.34090  0.75610  Biso   1.000  C
  H73      1.0000 0.00037  0.12613  0.29203  Biso   1.000  H
  H74      1.0000 0.00037  0.87387  0.79203  Biso   1.000  H
  H75      1.0000 0.50037  0.62613  0.29203  Biso   1.000  H
  H76      1.0000 0.50037  0.37387  0.79203  Biso   1.000  H
  C121     1.0000 0.95940  0.17340  0.19550  Biso   1.000  C
  C122     1.0000 0.95940  0.82660  0.69550  Biso   1.000  C
  C123     1.0000 0.45940  0.67340  0.19550  Biso   1.000  C
  C124     1.0000 0.45940  0.32660  0.69550  Biso   1.000  C
  C125     1.0000 0.90280  0.13850  0.18120  Biso   1.000  C
  C126     1.0000 0.90280  0.86150  0.68120  Biso   1.000  C
  C127     1.0000 0.40280  0.63850  0.18120  Biso   1.000  C
  C128     1.0000 0.40280  0.36150  0.68120  Biso   1.000  C
  C129     1.0000 0.88390  0.09090  0.22570  Biso   1.000  C
  C130     1.0000 0.88390  0.90910  0.72570  Biso   1.000  C
  C131     1.0000 0.38390  0.59090  0.22570  Biso   1.000  C
  C132     1.0000 0.38390  0.40910  0.72570  Biso   1.000  C
  H77      1.0000 0.90847  0.07660  0.27048  Biso   1.000  H
  H78      1.0000 0.90847  0.92340  0.77048  Biso   1.000  H
  H79      1.0000 0.40847  0.57660  0.27048  Biso   1.000  H
  H80      1.0000 0.40847  0.42340  0.77048  Biso   1.000  H
  C133     1.0000 0.82940  0.06570  0.20350  Biso   1.000  C
  C134     1.0000 0.82940  0.93430  0.70350  Biso   1.000  C
  C135     1.0000 0.32940  0.56570  0.20350  Biso   1.000  C
  C136     1.0000 0.32940  0.43430  0.70350  Biso   1.000  C
  H81      1.0000 0.81699  0.03411  0.23341  Biso   1.000  H
  H82      1.0000 0.81699  0.96589  0.73341  Biso   1.000  H
  H83      1.0000 0.31699  0.53411  0.23341  Biso   1.000  H
  H84      1.0000 0.31699  0.46589  0.73341  Biso   1.000  H
  C137     1.0000 0.79210  0.08600  0.13730  Biso   1.000  C
  C138     1.0000 0.79210  0.91400  0.63730  Biso   1.000  C
  C139     1.0000 0.29210  0.58600  0.13730  Biso   1.000  C
  C140     1.0000 0.29210  0.41400  0.63730  Biso   1.000  C
  H85      1.0000 0.75477  0.06899  0.12219  Biso   1.000  H
  H86      1.0000 0.75477  0.93101  0.62219  Biso   1.000  H
  H87      1.0000 0.25477  0.56899  0.12219  Biso   1.000  H
  H88      1.0000 0.25477  0.43101  0.62219  Biso   1.000  H
  C141     1.0000 0.81270  0.13360  0.09340  Biso   1.000  C
  C142     1.0000 0.81270  0.86640  0.59340  Biso   1.000  C
  C143     1.0000 0.31270  0.63360  0.09340  Biso   1.000  C
  C144     1.0000 0.31270  0.36640  0.59340  Biso   1.000  C
  C145     1.0000 0.77990  0.16470  0.02250  Biso   1.000  C
  C146     1.0000 0.77990  0.83530  0.52250  Biso   1.000  C
  C147     1.0000 0.27990  0.66470  0.02250  Biso   1.000  C
  C148     1.0000 0.27990  0.33530  0.52250  Biso   1.000  C
  C149     1.0000 0.72470  0.14790  0.98610  Biso   1.000  C
  C150     1.0000 0.72470  0.85210  0.48610  Biso   1.000  C
  C151     1.0000 0.22470  0.64790  0.98610  Biso   1.000  C
  C152     1.0000 0.22470  0.35210  0.48610  Biso   1.000  C
  H89      1.0000 0.70417  0.11373  0.00567  Biso   1.000  H
  H90      1.0000 0.70417  0.88627  0.50567  Biso   1.000  H
  H91      1.0000 0.20417  0.61373  0.00567  Biso   1.000  H
  H92      1.0000 0.20417  0.38627  0.50567  Biso   1.000  H
  C153     1.0000 0.69940  0.18230  0.91950  Biso   1.000  C
  C154     1.0000 0.69940  0.81770  0.41950  Biso   1.000  C
  C155     1.0000 0.19940  0.68230  0.91950  Biso   1.000  C
  C156     1.0000 0.19940  0.31770  0.41950  Biso   1.000  C
  H93      1.0000 0.66171  0.17076  0.89393  Biso   1.000  H
  H94      1.0000 0.66171  0.82924  0.39393  Biso   1.000  H
  H95      1.0000 0.16171  0.67076  0.89393  Biso   1.000  H
  H96      1.0000 0.16171  0.32924  0.39393  Biso   1.000  H
  C157     1.0000 0.72940  0.23280  0.89130  Biso   1.000  C
  C158     1.0000 0.72940  0.76720  0.39130  Biso   1.000  C
  C159     1.0000 0.22940  0.73280  0.89130  Biso   1.000  C
  C160     1.0000 0.22940  0.26720  0.39130  Biso   1.000  C
  H97      1.0000 0.71241  0.25763  0.84702  Biso   1.000  H
  H98      1.0000 0.71241  0.74237  0.34702  Biso   1.000  H
  H99      1.0000 0.21241  0.75763  0.84702  Biso   1.000  H
  H100     1.0000 0.21241  0.24237  0.34702  Biso   1.000  H
  C161     1.0000 0.78540  0.24630  0.92960  Biso   1.000  C
  C162     1.0000 0.78540  0.75370  0.42960  Biso   1.000  C
  C163     1.0000 0.28540  0.74630  0.92960  Biso   1.000  C
  C164     1.0000 0.28540  0.25370  0.42960  Biso   1.000  C
  H101     1.0000 0.80636  0.27933  0.91013  Biso   1.000  H
  H102     1.0000 0.80636  0.72067  0.41013  Biso   1.000  H
  H103     1.0000 0.30636  0.77933  0.91013  Biso   1.000  H
  H104     1.0000 0.30636  0.22067  0.41013  Biso   1.000  H
  C165     1.0000 0.80070  0.00480  0.88090  Biso   1.000  C
  C166     1.0000 0.80070  0.99520  0.38090  Biso   1.000  C
  C167     1.0000 0.30070  0.50480  0.88090  Biso   1.000  C
  C168     1.0000 0.30070  0.49520  0.38090  Biso   1.000  C
  C169     1.0000 0.82520  0.98060  0.95450  Biso   1.000  C
  C170     1.0000 0.82520  0.01940  0.45450  Biso   1.000  C
  C171     1.0000 0.32520  0.48060  0.95450  Biso   1.000  C
  C172     1.0000 0.32520  0.51940  0.45450  Biso   1.000  C
  C173     1.0000 0.79440  0.93030  0.98610  Biso   1.000  C
  C174     1.0000 0.79440  0.06970  0.48610  Biso   1.000  C
  C175     1.0000 0.29440  0.43030  0.98610  Biso   1.000  C
  C176     1.0000 0.29440  0.56970  0.48610  Biso   1.000  C
  H105     1.0000 0.75758  0.91359  0.96009  Biso   1.000  H
  H106     1.0000 0.75758  0.08641  0.46009  Biso   1.000  H
  H107     1.0000 0.25758  0.41359  0.96009  Biso   1.000  H
  H108     1.0000 0.25758  0.58641  0.46009  Biso   1.000  H
  C177     1.0000 0.81810  0.90650  0.05360  Biso   1.000  C
  C178     1.0000 0.81810  0.09350  0.55360  Biso   1.000  C
  C179     1.0000 0.31810  0.40650  0.05360  Biso   1.000  C
  C180     1.0000 0.31810  0.59350  0.55360  Biso   1.000  C
  H109     1.0000 0.79766  0.87449  0.07440  Biso   1.000  H
  H110     1.0000 0.79766  0.12551  0.57440  Biso   1.000  H
  H111     1.0000 0.29766  0.37449  0.07440  Biso   1.000  H
  H112     1.0000 0.29766  0.62551  0.57440  Biso   1.000  H
  C181     1.0000 0.87090  0.92970  0.08970  Biso   1.000  C
  C182     1.0000 0.87090  0.07030  0.58970  Biso   1.000  C
  C183     1.0000 0.37090  0.42970  0.08970  Biso   1.000  C
  C184     1.0000 0.37090  0.57030  0.58970  Biso   1.000  C
  H113     1.0000 0.88701  0.91144  0.13580  Biso   1.000  H
  H114     1.0000 0.88701  0.08856  0.63580  Biso   1.000  H
  H115     1.0000 0.38701  0.41144  0.13580  Biso   1.000  H
  H116     1.0000 0.38701  0.58856  0.63580  Biso   1.000  H
  C185     1.0000 0.88100  0.00180  0.99660  Biso   1.000  C
  C186     1.0000 0.88100  0.99820  0.49660  Biso   1.000  C
  C187     1.0000 0.38100  0.50180  0.99660  Biso   1.000  C
  C188     1.0000 0.38100  0.49820  0.49660  Biso   1.000  C
  C189     1.0000 0.92020  0.05710  0.97440  Biso   1.000  C
  C190     1.0000 0.92020  0.94290  0.47440  Biso   1.000  C
  C191     1.0000 0.42020  0.55710  0.97440  Biso   1.000  C
  C192     1.0000 0.42020  0.44290  0.47440  Biso   1.000  C
  C193     1.0000 0.96320  0.20000  0.97710  Biso   1.000  C
  C194     1.0000 0.96320  0.80000  0.47710  Biso   1.000  C
  C195     1.0000 0.46320  0.70000  0.97710  Biso   1.000  C
  C196     1.0000 0.46320  0.30000  0.47710  Biso   1.000  C
  H117     1.0000 0.96638  0.26366  0.98802  Biso   1.000  H
  H118     1.0000 0.96638  0.73634  0.48802  Biso   1.000  H
  H119     1.0000 0.46638  0.76366  0.98802  Biso   1.000  H
  H120     1.0000 0.46638  0.23634  0.48802  Biso   1.000  H
  C197     1.0000 0.99640  0.16390  0.94680  Biso   1.000  C
  C198     1.0000 0.99640  0.83610  0.44680  Biso   1.000  C
  C199     1.0000 0.49640  0.66390  0.94680  Biso   1.000  C
  C200     1.0000 0.49640  0.33610  0.44680  Biso   1.000  C
  H121     1.0000 0.02163  0.20190  0.93759  Biso   1.000  H
  H122     1.0000 0.02163  0.79810  0.43759  Biso   1.000  H
  H123     1.0000 0.52163  0.70190  0.93759  Biso   1.000  H
  H124     1.0000 0.52163  0.29810  0.43759  Biso   1.000  H
  C201     1.0000 0.99160  0.06950  0.93010  Biso   1.000  C
  C202     1.0000 0.99160  0.93050  0.43010  Biso   1.000  C
  C203     1.0000 0.49160  0.56950  0.93010  Biso   1.000  C
  C204     1.0000 0.49160  0.43050  0.43010  Biso   1.000  C
  H125     1.0000 0.01380  0.04295  0.90939  Biso   1.000  H
  H126     1.0000 0.01380  0.95705  0.40939  Biso   1.000  H
  H127     1.0000 0.51380  0.54295  0.90939  Biso   1.000  H
  H128     1.0000 0.51380  0.45705  0.40939  Biso   1.000  H
  C205     1.0000 0.95370  0.01470  0.94430  Biso   1.000  C
  C206     1.0000 0.95370  0.98530  0.44430  Biso   1.000  C
  C207     1.0000 0.45370  0.51470  0.94430  Biso   1.000  C
  C208     1.0000 0.45370  0.48530  0.44430  Biso   1.000  C
  C209     1.0000 0.94840  0.91340  0.92320  Biso   1.000  C
  C210     1.0000 0.94840  0.08660  0.42320  Biso   1.000  C
  C211     1.0000 0.44840  0.41340  0.92320  Biso   1.000  C
  C212     1.0000 0.44840  0.58660  0.42320  Biso   1.000  C
  C213     1.0000 0.53670  0.75500  0.54470  Biso   1.000  C
  C214     1.0000 0.53670  0.24500  0.04470  Biso   1.000  C
  C215     1.0000 0.03670  0.25500  0.54470  Biso   1.000  C
  C216     1.0000 0.03670  0.74500  0.04470  Biso   1.000  C
  H129     1.0000 0.51680  0.71560  0.56206  Biso   1.000  H
  H130     1.0000 0.51680  0.28440  0.06206  Biso   1.000  H
  H131     1.0000 0.01680  0.21560  0.56206  Biso   1.000  H
  H132     1.0000 0.01680  0.78440  0.06206  Biso   1.000  H
  C217     1.0000 0.59040  0.78020  0.58640  Biso   1.000  C
  C218     1.0000 0.59040  0.21980  0.08640  Biso   1.000  C
  C219     1.0000 0.09040  0.28020  0.58640  Biso   1.000  C
  C220     1.0000 0.09040  0.71980  0.08640  Biso   1.000  C
  H133     1.0000 0.60640  0.75606  0.63099  Biso   1.000  H
  H134     1.0000 0.60640  0.24394  0.13099  Biso   1.000  H
  H135     1.0000 0.10640  0.25606  0.63099  Biso   1.000  H
  H136     1.0000 0.10640  0.74394  0.13099  Biso   1.000  H
  C221     1.0000 0.61970  0.83720  0.56500  Biso   1.000  C
  C222     1.0000 0.61970  0.16280  0.06500  Biso   1.000  C
  C223     1.0000 0.11970  0.33720  0.56500  Biso   1.000  C
  C224     1.0000 0.11970  0.66280  0.06500  Biso   1.000  C
  H137     1.0000 0.65524  0.85600  0.59450  Biso   1.000  H
  H138     1.0000 0.65524  0.14400  0.09450  Biso   1.000  H
  H139     1.0000 0.15524  0.35600  0.59450  Biso   1.000  H
  H140     1.0000 0.15524  0.64400  0.09450  Biso   1.000  H
  C225     1.0000 0.59570  0.87000  0.49490  Biso   1.000  C
  C226     1.0000 0.59570  0.13000  0.99490  Biso   1.000  C
  C227     1.0000 0.09570  0.37000  0.49490  Biso   1.000  C
  C228     1.0000 0.09570  0.63000  0.99490  Biso   1.000  C
  H141     1.0000 0.61565  0.90886  0.47736  Biso   1.000  H
  H142     1.0000 0.61565  0.09114  0.97736  Biso   1.000  H
  H143     1.0000 0.11565  0.40886  0.47736  Biso   1.000  H
  H144     1.0000 0.11565  0.59114  0.97736  Biso   1.000  H
  C229     1.0000 0.54280  0.84240  0.45490  Biso   1.000  C
  C230     1.0000 0.54280  0.15760  0.95490  Biso   1.000  C
  C231     1.0000 0.04280  0.34240  0.45490  Biso   1.000  C
  C232     1.0000 0.04280  0.65760  0.95490  Biso   1.000  C
  C233     1.0000 0.51260  0.87080  0.38200  Biso   1.000  C
  C234     1.0000 0.51260  0.12920  0.88200  Biso   1.000  C
  C235     1.0000 0.01260  0.37080  0.38200  Biso   1.000  C
  C236     1.0000 0.01260  0.62920  0.88200  Biso   1.000  C
  C237     1.0000 0.53480  0.91720  0.34080  Biso   1.000  C
  C238     1.0000 0.53480  0.08280  0.84080  Biso   1.000  C
  C239     1.0000 0.03480  0.41720  0.34080  Biso   1.000  C
  C240     1.0000 0.03480  0.58280  0.84080  Biso   1.000  C
  H145     1.0000 0.57181  0.93712  0.35866  Biso   1.000  H
  H146     1.0000 0.57181  0.06288  0.85866  Biso   1.000  H
  H147     1.0000 0.07181  0.43712  0.35866  Biso   1.000  H
  H148     1.0000 0.07181  0.56288  0.85866  Biso   1.000  H
  C241     1.0000 0.50000  0.93340  0.27130  Biso   1.000  C
  C242     1.0000 0.50000  0.06660  0.77130  Biso   1.000  C
  C243     1.0000 0.00000  0.43340  0.27130  Biso   1.000  C
  C244     1.0000 0.00000  0.56660  0.77130  Biso   1.000  C
  H149     1.0000 0.51419  0.96302  0.24230  Biso   1.000  H
  H150     1.0000 0.51419  0.03698  0.74230  Biso   1.000  H
  H151     1.0000 0.01419  0.46302  0.24230  Biso   1.000  H
  H152     1.0000 0.01419  0.53698  0.74230  Biso   1.000  H
  C245     1.0000 0.44380  0.90510  0.24520  Biso   1.000  C
  C246     1.0000 0.44380  0.09490  0.74520  Biso   1.000  C
  C247     1.0000 0.94380  0.40510  0.24520  Biso   1.000  C
  C248     1.0000 0.94380  0.59490  0.74520  Biso   1.000  C
  H153     1.0000 0.42011  0.91559  0.19938  Biso   1.000  H
  H154     1.0000 0.42011  0.08441  0.69938  Biso   1.000  H
  H155     1.0000 0.92011  0.41559  0.19938  Biso   1.000  H
  H156     1.0000 0.92011  0.58441  0.69938  Biso   1.000  H
  C249     1.0000 0.42530  0.86070  0.29110  Biso   1.000  C
  C250     1.0000 0.42530  0.13930  0.79110  Biso   1.000  C
  C251     1.0000 0.92530  0.36070  0.29110  Biso   1.000  C
  C252     1.0000 0.92530  0.63930  0.79110  Biso   1.000  C
  C253     1.0000 0.36780  0.82330  0.27530  Biso   1.000  C
  C254     1.0000 0.36780  0.17670  0.77530  Biso   1.000  C
  C255     1.0000 0.86780  0.32330  0.27530  Biso   1.000  C
  C256     1.0000 0.86780  0.67670  0.77530  Biso   1.000  C
  C257     1.0000 0.32240  0.83730  0.21380  Biso   1.000  C
  C258     1.0000 0.32240  0.16270  0.71380  Biso   1.000  C
  C259     1.0000 0.82240  0.33730  0.21380  Biso   1.000  C
  C260     1.0000 0.82240  0.66270  0.71380  Biso   1.000  C
  H157     1.0000 0.32634  0.86948  0.17760  Biso   1.000  H
  H158     1.0000 0.32634  0.13052  0.67760  Biso   1.000  H
  H159     1.0000 0.82634  0.36948  0.17760  Biso   1.000  H
  H160     1.0000 0.82634  0.63052  0.67760  Biso   1.000  H
  C261     1.0000 0.27130  0.80290  0.20720  Biso   1.000  C
  C262     1.0000 0.27130  0.19710  0.70720  Biso   1.000  C
  C263     1.0000 0.77130  0.30290  0.20720  Biso   1.000  C
  C264     1.0000 0.77130  0.69710  0.70720  Biso   1.000  C
  H161     1.0000 0.23996  0.81289  0.16676  Biso   1.000  H
  H162     1.0000 0.23996  0.18711  0.66676  Biso   1.000  H
  H163     1.0000 0.73996  0.31289  0.16676  Biso   1.000  H
  H164     1.0000 0.73996  0.68711  0.66676  Biso   1.000  H
  C265     1.0000 0.26700  0.75320  0.26150  Biso   1.000  C
  C266     1.0000 0.26700  0.24680  0.76150  Biso   1.000  C
  C267     1.0000 0.76700  0.25320  0.26150  Biso   1.000  C
  C268     1.0000 0.76700  0.74680  0.76150  Biso   1.000  C
  H165     1.0000 0.23262  0.72973  0.25788  Biso   1.000  H
  H166     1.0000 0.23262  0.27027  0.75788  Biso   1.000  H
  H167     1.0000 0.73262  0.22973  0.25788  Biso   1.000  H
  H168     1.0000 0.73262  0.77027  0.75788  Biso   1.000  H
  C269     1.0000 0.31330  0.73900  0.32010  Biso   1.000  C
  C270     1.0000 0.31330  0.26100  0.82010  Biso   1.000  C
  C271     1.0000 0.81330  0.23900  0.32010  Biso   1.000  C
  C272     1.0000 0.81330  0.76100  0.82010  Biso   1.000  C
  H169     1.0000 0.31011  0.70404  0.35568  Biso   1.000  H
  H170     1.0000 0.31011  0.29596  0.85568  Biso   1.000  H
  H171     1.0000 0.81011  0.20404  0.35568  Biso   1.000  H
  H172     1.0000 0.81011  0.79596  0.85568  Biso   1.000  H
  N1       1.0000 0.65490  0.37580  0.29680  Biso   1.000  N
  N2       1.0000 0.65490  0.62420  0.79680  Biso   1.000  N
  N3       1.0000 0.15490  0.87580  0.29680  Biso   1.000  N
  N4       1.0000 0.15490  0.12420  0.79680  Biso   1.000  N
  N5       1.0000 0.54460  0.35520  0.31490  Biso   1.000  N
  N6       1.0000 0.54460  0.64480  0.81490  Biso   1.000  N
  N7       1.0000 0.04460  0.85520  0.31490  Biso   1.000  N
  N8       1.0000 0.04460  0.14480  0.81490  Biso   1.000  N
  N9       1.0000 0.35730  0.00350  0.37680  Biso   1.000  N
  N10      1.0000 0.35730  0.99650  0.87680  Biso   1.000  N
  N11      1.0000 0.85730  0.50350  0.37680  Biso   1.000  N
  N12      1.0000 0.85730  0.49650  0.87680  Biso   1.000  N
  N13      1.0000 0.40160  0.84990  0.48260  Biso   1.000  N
  N14      1.0000 0.40160  0.15010  0.98260  Biso   1.000  N
  N15      1.0000 0.90160  0.34990  0.48260  Biso   1.000  N
  N16      1.0000 0.90160  0.65010  0.98260  Biso   1.000  N
  N17      1.0000 0.96330  0.22410  0.14190  Biso   1.000  N
  N18      1.0000 0.96330  0.77590  0.64190  Biso   1.000  N
  N19      1.0000 0.46330  0.72410  0.14190  Biso   1.000  N
  N20      1.0000 0.46330  0.27590  0.64190  Biso   1.000  N
  N21      1.0000 0.86640  0.15730  0.11750  Biso   1.000  N
  N22      1.0000 0.86640  0.84270  0.61750  Biso   1.000  N
  N23      1.0000 0.36640  0.65730  0.11750  Biso   1.000  N
  N24      1.0000 0.36640  0.34270  0.61750  Biso   1.000  N
  N25      1.0000 0.81040  0.21370  0.99370  Biso   1.000  N
  N26      1.0000 0.81040  0.78630  0.49370  Biso   1.000  N
  N27      1.0000 0.31040  0.71370  0.99370  Biso   1.000  N
  N28      1.0000 0.31040  0.28630  0.49370  Biso   1.000  N
  N29      1.0000 0.90210  0.97700  0.06430  Biso   1.000  N
  N30      1.0000 0.90210  0.02300  0.56430  Biso   1.000  N
  N31      1.0000 0.40210  0.47700  0.06430  Biso   1.000  N
  N32      1.0000 0.40210  0.52300  0.56430  Biso   1.000  N
  N33      1.0000 0.92580  0.14830  0.99220  Biso   1.000  N
  N34      1.0000 0.92580  0.85170  0.49220  Biso   1.000  N
  N35      1.0000 0.42580  0.64830  0.99220  Biso   1.000  N
  N36      1.0000 0.42580  0.35170  0.49220  Biso   1.000  N
  N37      1.0000 0.51240  0.78610  0.47950  Biso   1.000  N
  N38      1.0000 0.51240  0.21390  0.97950  Biso   1.000  N
  N39      1.0000 0.01240  0.28610  0.47950  Biso   1.000  N
  N40      1.0000 0.01240  0.71390  0.97950  Biso   1.000  N
  N41      1.0000 0.45950  0.84570  0.35730  Biso   1.000  N
  N42      1.0000 0.45950  0.15430  0.85730  Biso   1.000  N
  N43      1.0000 0.95950  0.34570  0.35730  Biso   1.000  N
  N44      1.0000 0.95950  0.65430  0.85730  Biso   1.000  N
  N45      1.0000 0.36340  0.77380  0.32840  Biso   1.000  N
  N46      1.0000 0.36340  0.22620  0.82840  Biso   1.000  N
  N47      1.0000 0.86340  0.27380  0.32840  Biso   1.000  N
  N48      1.0000 0.86340  0.72620  0.82840  Biso   1.000  N
  O1       1.0000 0.70540  0.93670  0.70690  Biso   1.000  O
  O2       1.0000 0.70540  0.06330  0.20690  Biso   1.000  O
  O3       1.0000 0.20540  0.43670  0.70690  Biso   1.000  O
  O4       1.0000 0.20540  0.56330  0.20690  Biso   1.000  O
  O5       1.0000 0.63730  0.07650  0.78970  Biso   1.000  O
  O6       1.0000 0.63730  0.92350  0.28970  Biso   1.000  O
  O7       1.0000 0.13730  0.57650  0.78970  Biso   1.000  O
  O8       1.0000 0.13730  0.42350  0.28970  Biso   1.000  O
  O9       1.0000 0.61540  0.06240  0.63870  Biso   1.000  O
  O10      1.0000 0.61540  0.93760  0.13870  Biso   1.000  O
  O11      1.0000 0.11540  0.56240  0.63870  Biso   1.000  O
  O12      1.0000 0.11540  0.43760  0.13870  Biso   1.000  O
  O13      1.0000 0.71930  0.14330  0.74640  Biso   1.000  O
  O14      1.0000 0.71930  0.85670  0.24640  Biso   1.000  O
  O15      1.0000 0.21930  0.64330  0.74640  Biso   1.000  O
  O16      1.0000 0.21930  0.35670  0.24640  Biso   1.000  O
  O17      1.0000 0.72780  0.16300  0.64780  Biso   1.000  O
  O18      1.0000 0.72780  0.83700  0.14780  Biso   1.000  O
  O19      1.0000 0.22780  0.66300  0.64780  Biso   1.000  O
  O20      1.0000 0.22780  0.33700  0.14780  Biso   1.000  O
  O21      1.0000 0.66480  0.04450  0.53380  Biso   1.000  O
  O22      1.0000 0.66480  0.95550  0.03380  Biso   1.000  O
  O23      1.0000 0.16480  0.54450  0.53380  Biso   1.000  O
  O24      1.0000 0.16480  0.45550  0.03380  Biso   1.000  O
  O25      1.0000 0.61030  0.24920  0.58180  Biso   1.000  O
  O26      1.0000 0.61030  0.75080  0.08180  Biso   1.000  O
  O27      1.0000 0.11030  0.74920  0.58180  Biso   1.000  O
  O28      1.0000 0.11030  0.25080  0.08180  Biso   1.000  O
  O29      1.0000 0.69610  0.24550  0.51980  Biso   1.000  O
  O30      1.0000 0.69610  0.75450  0.01980  Biso   1.000  O
  O31      1.0000 0.19610  0.74550  0.51980  Biso   1.000  O
  O32      1.0000 0.19610  0.25450  0.01980  Biso   1.000  O
  O33      1.0000 0.61340  0.21290  0.44060  Biso   1.000  O
  O34      1.0000 0.61340  0.78710  0.94060  Biso   1.000  O
  O35      1.0000 0.11340  0.71290  0.44060  Biso   1.000  O
  O36      1.0000 0.11340  0.28710  0.94060  Biso   1.000  O
  O37      1.0000 0.65260  0.13990  0.30030  Biso   1.000  O
  O38      1.0000 0.65260  0.86010  0.80030  Biso   1.000  O
  O39      1.0000 0.15260  0.63990  0.30030  Biso   1.000  O
  O40      1.0000 0.15260  0.36010  0.80030  Biso   1.000  O
  O41      1.0000 0.58380  0.08500  0.20870  Biso   1.000  O
  O42      1.0000 0.58380  0.91500  0.70870  Biso   1.000  O
  O43      1.0000 0.08380  0.58500  0.20870  Biso   1.000  O
  O44      1.0000 0.08380  0.41500  0.70870  Biso   1.000  O
  O45      1.0000 0.54670  0.09540  0.49490  Biso   1.000  O
  O46      1.0000 0.54670  0.90460  0.99490  Biso   1.000  O
  O47      1.0000 0.04670  0.59540  0.49490  Biso   1.000  O
  O48      1.0000 0.04670  0.40460  0.99490  Biso   1.000  O
  O49      1.0000 0.50910  0.00180  0.55140  Biso   1.000  O
  O50      1.0000 0.50910  0.99820  0.05140  Biso   1.000  O
  O51      1.0000 0.00910  0.50180  0.55140  Biso   1.000  O
  O52      1.0000 0.00910  0.49820  0.05140  Biso   1.000  O
  O53      1.0000 0.40080  0.14470  0.51990  Biso   1.000  O
  O54      1.0000 0.40080  0.85530  0.01990  Biso   1.000  O
  O55      1.0000 0.90080  0.64470  0.51990  Biso   1.000  O
  O56      1.0000 0.90080  0.35530  0.01990  Biso   1.000  O
  O57      1.0000 0.35960  0.11490  0.59030  Biso   1.000  O
  O58      1.0000 0.35960  0.88510  0.09030  Biso   1.000  O
  O59      1.0000 0.85960  0.61490  0.59030  Biso   1.000  O
  O60      1.0000 0.85960  0.38510  0.09030  Biso   1.000  O
  O61      1.0000 0.82960  0.02750  0.84980  Biso   1.000  O
  O62      1.0000 0.82960  0.97250  0.34980  Biso   1.000  O
  O63      1.0000 0.32960  0.52750  0.84980  Biso   1.000  O
  O64      1.0000 0.32960  0.47250  0.34980  Biso   1.000  O
  O65      1.0000 0.74700  0.99510  0.85330  Biso   1.000  O
  O66      1.0000 0.74700  0.00490  0.35330  Biso   1.000  O
  O67      1.0000 0.24700  0.49510  0.85330  Biso   1.000  O
  O68      1.0000 0.24700  0.50490  0.35330  Biso   1.000  O
  O69      1.0000 0.92310  0.85700  0.94900  Biso   1.000  O
  O70      1.0000 0.92310  0.14300  0.44900  Biso   1.000  O
  O71      1.0000 0.42310  0.35700  0.94900  Biso   1.000  O
  O72      1.0000 0.42310  0.64300  0.44900  Biso   1.000  O
  O73      1.0000 0.97060  0.88750  0.88280  Biso   1.000  O
  O74      1.0000 0.97060  0.11250  0.38280  Biso   1.000  O
  O75      1.0000 0.47060  0.38750  0.88280  Biso   1.000  O
  O76      1.0000 0.47060  0.61250  0.38280  Biso   1.000  O
  Cu1      1.0000 0.89158  0.22799  0.05568  Biso   1.000  Cu
  Cu2      1.0000 0.89158  0.77201  0.55568  Biso   1.000  Cu
  Cu3      1.0000 0.39158  0.72799  0.05568  Biso   1.000  Cu
  Cu4      1.0000 0.39158  0.27201  0.55568  Biso   1.000  Cu
  Cu5      1.0000 0.43300  0.76940  0.41491  Biso   1.000  Cu
  Cu6      1.0000 0.43300  0.23060  0.91491  Biso   1.000  Cu
  Cu7      1.0000 0.93300  0.26940  0.41491  Biso   1.000  Cu
  Cu8      1.0000 0.93300  0.73060  0.91491  Biso   1.000  Cu
  U1       1.0000 0.67094  0.00644  0.74717  Biso   1.000  U
  U2       1.0000 0.67094  0.99356  0.24717  Biso   1.000  U
  U3       1.0000 0.17094  0.50644  0.74717  Biso   1.000  U
  U4       1.0000 0.17094  0.49356  0.24717  Biso   1.000  U
  U5       1.0000 0.63661  0.14582  0.55790  Biso   1.000  U
  U6       1.0000 0.63661  0.85418  0.05790  Biso   1.000  U
  U7       1.0000 0.13661  0.64582  0.55790  Biso   1.000  U
  U8       1.0000 0.13661  0.35418  0.05790  Biso   1.000  U
  O77      1.0000 0.67290  0.53890  0.51640  Biso   1.000  O
  O78      1.0000 0.67290  0.46110  0.01640  Biso   1.000  O
  O79      1.0000 0.17290  0.03890  0.51640  Biso   1.000  O
  O80      1.0000 0.17290  0.96110  0.01640  Biso   1.000  O
  O81      1.0000 0.62450  0.58100  0.47670  Biso   1.000  O
  O82      1.0000 0.62450  0.41900  0.97670  Biso   1.000  O
  O83      1.0000 0.12450  0.08100  0.47670  Biso   1.000  O
  O84      1.0000 0.12450  0.91900  0.97670  Biso   1.000  O
  O85      1.0000 0.69190  0.54710  0.59240  Biso   1.000  O
  O86      1.0000 0.69190  0.45290  0.09240  Biso   1.000  O
  O87      1.0000 0.19190  0.04710  0.59240  Biso   1.000  O
  O88      1.0000 0.19190  0.95290  0.09240  Biso   1.000  O
  O89      1.0000 0.72150  0.56790  0.50160  Biso   1.000  O
  O90      1.0000 0.72150  0.43210  0.00160  Biso   1.000  O
  O91      1.0000 0.22150  0.06790  0.50160  Biso   1.000  O
  O92      1.0000 0.22150  0.93210  0.00160  Biso   1.000  O
  O93      1.0000 0.61140  0.45430  0.63200  Biso   1.000  O
  O94      1.0000 0.61140  0.54570  0.13200  Biso   1.000  O
  O95      1.0000 0.11140  0.95430  0.63200  Biso   1.000  O
  O96      1.0000 0.11140  0.04570  0.13200  Biso   1.000  O
  O97      1.0000 0.53330  0.53370  0.64440  Biso   1.000  O
  O98      1.0000 0.53330  0.46630  0.14440  Biso   1.000  O
  O99      1.0000 0.03330  0.03370  0.64440  Biso   1.000  O
  O100     1.0000 0.03330  0.96630  0.14440  Biso   1.000  O
  O101     1.0000 0.76590  0.38520  0.63810  Biso   1.000  O
  O102     1.0000 0.76590  0.61480  0.13810  Biso   1.000  O
  O103     1.0000 0.26590  0.88520  0.63810  Biso   1.000  O
  O104     1.0000 0.26590  0.11480  0.13810  Biso   1.000  O
