data_image0
_cell_length_a       11.6465
_cell_length_b       14.5947
_cell_length_c       19.2504
_cell_angle_alpha    98.9173
_cell_angle_beta     105.106
_cell_angle_gamma    112.32

_symmetry_space_group_name_H-M    "P 1"
_symmetry_int_tables_number       1

loop_
  _symmetry_equiv_pos_as_xyz
  'x, y, z'

loop_
  _atom_site_label
  _atom_site_occupancy
  _atom_site_fract_x
  _atom_site_fract_y
  _atom_site_fract_z
  _atom_site_thermal_displace_type
  _atom_site_B_iso_or_equiv
  _atom_site_type_symbol
  Ru1      1.0000 0.13180  0.24092  0.76311  Biso   1.000  Ru
  Ru2      1.0000 0.86820  0.75908  0.23689  Biso   1.000  Ru
  Cu1      1.0000 0.62868  0.26787  0.27764  Biso   1.000  Cu
  Cu2      1.0000 0.37132  0.73213  0.72236  Biso   1.000  Cu
  Cu3      1.0000 0.12074  0.26799  0.26044  Biso   1.000  Cu
  Cu4      1.0000 0.87926  0.73201  0.73956  Biso   1.000  Cu
  Cl1      1.0000 0.54621  0.21017  0.36770  Biso   1.000  Cl
  Cl2      1.0000 0.45379  0.78983  0.63230  Biso   1.000  Cl
  Cl3      1.0000 0.73146  0.42552  0.26020  Biso   1.000  Cl
  Cl4      1.0000 0.26854  0.57448  0.73980  Biso   1.000  Cl
  Cl5      1.0000 0.59155  0.11888  0.17897  Biso   1.000  Cl
  Cl6      1.0000 0.40845  0.88112  0.82103  Biso   1.000  Cl
  Cl7      1.0000 0.28618  0.42482  0.33549  Biso   1.000  Cl
  Cl8      1.0000 0.71382  0.57518  0.66451  Biso   1.000  Cl
  Cl9      1.0000 0.02499  0.09424  0.24021  Biso   1.000  Cl
  Cl10     1.0000 0.97501  0.90576  0.75979  Biso   1.000  Cl
  Cl11     1.0000 0.03842  0.35336  0.02453  Biso   1.000  Cl
  Cl12     1.0000 0.96158  0.64664  0.97547  Biso   1.000  Cl
  N1       1.0000 0.95610  0.13380  0.76672  Biso   1.000  N
  N2       1.0000 0.04390  0.86620  0.23328  Biso   1.000  N
  N3       1.0000 0.18830  0.23610  0.86823  Biso   1.000  N
  N4       1.0000 0.81170  0.76390  0.13177  Biso   1.000  N
  N5       1.0000 0.32930  0.34916  0.80239  Biso   1.000  N
  N6       1.0000 0.67070  0.65084  0.19761  Biso   1.000  N
  N7       1.0000 0.05090  0.34530  0.77274  Biso   1.000  N
  N8       1.0000 0.94910  0.65470  0.22726  Biso   1.000  N
  N9       1.0000 0.07860  0.24882  0.65856  Biso   1.000  N
  N10      1.0000 0.92140  0.75118  0.34144  Biso   1.000  N
  N11      1.0000 0.18380  0.13560  0.71006  Biso   1.000  N
  N12      1.0000 0.81620  0.86440  0.28994  Biso   1.000  N
  N13      1.0000 0.24200  0.25470  0.20528  Biso   1.000  N
  N14      1.0000 0.75800  0.74530  0.79472  Biso   1.000  N
  N15      1.0000 0.44980  0.25800  0.21458  Biso   1.000  N
  N16      1.0000 0.55020  0.74200  0.78542  Biso   1.000  N
  N17      1.0000 0.81020  0.27770  0.33328  Biso   1.000  N
  N18      1.0000 0.18980  0.72230  0.66672  Biso   1.000  N
  N19      1.0000 0.00720  0.27850  0.32178  Biso   1.000  N
  N20      1.0000 0.99280  0.72150  0.67822  Biso   1.000  N
  N21      1.0000 0.16740  0.53390  0.48290  Biso   1.000  N
  N22      1.0000 0.83260  0.46610  0.51710  Biso   1.000  N
  N23      1.0000 0.56620  0.24300  0.72690  Biso   1.000  N
  N24      1.0000 0.43380  0.75700  0.27310  Biso   1.000  N
  N25      1.0000 0.31750  0.96610  0.46960  Biso   1.000  N
  N26      1.0000 0.68250  0.03390  0.53040  Biso   1.000  N
  N27      1.0000 0.30950  0.84950  0.44930  Biso   1.000  N
  N28      1.0000 0.69050  0.15050  0.55070  Biso   1.000  N
  C1       1.0000 0.83670  0.08980  0.71157  Biso   1.000  C
  C2       1.0000 0.16330  0.91020  0.28843  Biso   1.000  C
  C3       1.0000 0.72290  0.02960  0.72370  Biso   1.000  C
  C4       1.0000 0.27710  0.97040  0.27630  Biso   1.000  C
  C5       1.0000 0.73060  0.01530  0.79330  Biso   1.000  C
  C6       1.0000 0.26940  0.98470  0.20670  Biso   1.000  C
  C7       1.0000 0.85250  0.06110  0.85074  Biso   1.000  C
  C8       1.0000 0.14750  0.93890  0.14926  Biso   1.000  C
  C9       1.0000 0.96440  0.12030  0.83613  Biso   1.000  C
  C10      1.0000 0.03560  0.87970  0.16387  Biso   1.000  C
  C11      1.0000 0.09830  0.17490  0.89354  Biso   1.000  C
  C12      1.0000 0.90170  0.82510  0.10646  Biso   1.000  C
  C13      1.0000 0.13390  0.17190  0.96705  Biso   1.000  C
  C14      1.0000 0.86610  0.82810  0.03295  Biso   1.000  C
  C15      1.0000 0.26590  0.23440  0.01545  Biso   1.000  C
  C16      1.0000 0.73410  0.76560  0.98455  Biso   1.000  C
  C17      1.0000 0.35820  0.29680  0.98849  Biso   1.000  C
  C18      1.0000 0.64180  0.70320  0.01151  Biso   1.000  C
  C19      1.0000 0.31600  0.29690  0.91380  Biso   1.000  C
  C20      1.0000 0.68400  0.70310  0.08620  Biso   1.000  C
  C21      1.0000 0.39670  0.35980  0.87577  Biso   1.000  C
  C22      1.0000 0.60330  0.64020  0.12423  Biso   1.000  C
  C23      1.0000 0.52980  0.42690  0.91037  Biso   1.000  C
  C24      1.0000 0.47020  0.57310  0.08963  Biso   1.000  C
  C25      1.0000 0.59800  0.48260  0.86970  Biso   1.000  C
  C26      1.0000 0.40200  0.51740  0.13030  Biso   1.000  C
  C27      1.0000 0.53030  0.47050  0.79560  Biso   1.000  C
  C28      1.0000 0.46970  0.52950  0.20440  Biso   1.000  C
  C29      1.0000 0.39580  0.40300  0.76394  Biso   1.000  C
  C30      1.0000 0.60420  0.59700  0.23606  Biso   1.000  C
  C31      1.0000 0.02670  0.38230  0.83359  Biso   1.000  C
  C32      1.0000 0.97330  0.61770  0.16641  Biso   1.000  C
  C33      1.0000 0.95390  0.43830  0.83065  Biso   1.000  C
  C34      1.0000 0.04610  0.56170  0.16935  Biso   1.000  C
  C35      1.0000 0.90220  0.45750  0.76430  Biso   1.000  C
  C36      1.0000 0.09780  0.54250  0.23570  Biso   1.000  C
  C37      1.0000 0.92490  0.41840  0.70071  Biso   1.000  C
  C38      1.0000 0.07510  0.58160  0.29929  Biso   1.000  C
  C39      1.0000 0.99820  0.36170  0.70651  Biso   1.000  C
  C40      1.0000 0.00180  0.63830  0.29349  Biso   1.000  C
  C41      1.0000 0.02090  0.31190  0.64243  Biso   1.000  C
  C42      1.0000 0.97910  0.68810  0.35757  Biso   1.000  C
  C43      1.0000 0.98680  0.32220  0.57021  Biso   1.000  C
  C44      1.0000 0.01320  0.67780  0.42979  Biso   1.000  C
  C45      1.0000 0.01140  0.26580  0.51504  Biso   1.000  C
  C46      1.0000 0.98860  0.73420  0.48496  Biso   1.000  C
  C47      1.0000 0.06950  0.20030  0.53276  Biso   1.000  C
  C48      1.0000 0.93050  0.79970  0.46724  Biso   1.000  C
  C49      1.0000 0.10240  0.19320  0.60571  Biso   1.000  C
  C50      1.0000 0.89760  0.80680  0.39429  Biso   1.000  C
  C51      1.0000 0.16230  0.12830  0.63510  Biso   1.000  C
  C52      1.0000 0.83770  0.87170  0.36490  Biso   1.000  C
  C53      1.0000 0.19610  0.06430  0.59190  Biso   1.000  C
  C54      1.0000 0.80390  0.93570  0.40810  Biso   1.000  C
  C55      1.0000 0.25200  0.00550  0.62500  Biso   1.000  C
  C56      1.0000 0.74800  0.99450  0.37500  Biso   1.000  C
  C57      1.0000 0.27310  0.01300  0.69980  Biso   1.000  C
  C58      1.0000 0.72690  0.98700  0.30020  Biso   1.000  C
  C59      1.0000 0.23840  0.07830  0.74040  Biso   1.000  C
  C60      1.0000 0.76160  0.92170  0.25960  Biso   1.000  C
  C61      1.0000 0.30170  0.24010  0.09605  Biso   1.000  C
  C62      1.0000 0.69830  0.75990  0.90395  Biso   1.000  C
  C63      1.0000 0.21100  0.24040  0.13131  Biso   1.000  C
  C64      1.0000 0.78900  0.75960  0.86869  Biso   1.000  C
  C65      1.0000 0.35900  0.26090  0.24411  Biso   1.000  C
  C66      1.0000 0.64100  0.73910  0.75589  Biso   1.000  C
  C67      1.0000 0.42230  0.25030  0.14105  Biso   1.000  C
  C68      1.0000 0.57770  0.74970  0.85895  Biso   1.000  C
  C69      1.0000 0.97050  0.27220  0.43705  Biso   1.000  C
  C70      1.0000 0.02950  0.72780  0.56295  Biso   1.000  C
  C71      1.0000 0.04690  0.27340  0.39241  Biso   1.000  C
  C72      1.0000 0.95310  0.72660  0.60759  Biso   1.000  C
  C73      1.0000 0.89110  0.28040  0.29436  Biso   1.000  C
  C74      1.0000 0.10890  0.71960  0.70564  Biso   1.000  C
  C75      1.0000 0.85100  0.27480  0.40423  Biso   1.000  C
  C76      1.0000 0.14900  0.72520  0.59577  Biso   1.000  C
  C77      1.0000 0.25240  0.52100  0.51720  Biso   1.000  C
  C78      1.0000 0.74760  0.47900  0.48280  Biso   1.000  C
  C79      1.0000 0.35760  0.50060  0.55910  Biso   1.000  C
  C80      1.0000 0.64240  0.49940  0.44090  Biso   1.000  C
  C81      1.0000 0.59420  0.22910  0.78340  Biso   1.000  C
  C82      1.0000 0.40580  0.77090  0.21660  Biso   1.000  C
  C83      1.0000 0.62830  0.20780  0.85430  Biso   1.000  C
  C84      1.0000 0.37170  0.79220  0.14570  Biso   1.000  C
  C85      1.0000 0.38990  0.93290  0.46800  Biso   1.000  C
  C86      1.0000 0.61010  0.06710  0.53200  Biso   1.000  C
  C87      1.0000 0.48800  0.89490  0.47150  Biso   1.000  C
  C88      1.0000 0.51200  0.10510  0.52850  Biso   1.000  C
  C89      1.0000 0.37210  0.80560  0.44550  Biso   1.000  C
  C90      1.0000 0.62790  0.19440  0.55450  Biso   1.000  C
  C91      1.0000 0.43690  0.73930  0.43760  Biso   1.000  C
  C92      1.0000 0.56310  0.26070  0.56240  Biso   1.000  C
  O1       1.0000 0.97730  0.27410  0.16016  Biso   1.000  O
  O2       1.0000 0.02270  0.72590  0.83984  Biso   1.000  O
  O3       1.0000 0.18480  0.57290  0.00678  Biso   1.000  O
  O4       1.0000 0.81520  0.42710  0.99322  Biso   1.000  O
  O5       1.0000 0.60410  0.16950  0.02570  Biso   1.000  O
  O6       1.0000 0.39590  0.83050  0.97430  Biso   1.000  O
  O7       1.0000 0.32890  0.61530  0.91780  Biso   1.000  O
  O8       1.0000 0.67110  0.38470  0.08220  Biso   1.000  O
  O9       1.0000 0.35140  0.05830  0.91590  Biso   1.000  O
  O10      1.0000 0.64860  0.94170  0.08410  Biso   1.000  O
  O11      1.0000 0.86450  0.92630  0.59330  Biso   1.000  O
  O12      1.0000 0.13550  0.07370  0.40670  Biso   1.000  O
  O13      1.0000 0.51460  0.66070  0.38980  Biso   1.000  O
  O14      1.0000 0.48540  0.33930  0.61020  Biso   1.000  O
  O15      1.0000 0.64690  0.74970  0.54230  Biso   1.000  O
  O16      1.0000 0.35310  0.25030  0.45770  Biso   1.000  O
  O17      1.0000 0.89410  0.07020  0.06600  Biso   1.000  O
  O18      1.0000 0.10590  0.92980  0.93400  Biso   1.000  O
  O19      1.0000 0.83060  0.09500  0.03900  Biso   1.000  O
  O20      1.0000 0.16940  0.90500  0.96100  Biso   1.000  O
  H1       1.0000 0.92720  0.21250  0.13720  Biso   1.000  H
  H2       1.0000 0.07280  0.78750  0.86280  Biso   1.000  H
  H3       1.0000 0.99950  0.30610  0.13010  Biso   1.000  H
  H4       1.0000 0.00050  0.69390  0.86990  Biso   1.000  H
  H5       1.0000 0.14110  0.60660  0.00490  Biso   1.000  H
  H6       1.0000 0.85890  0.39340  0.99510  Biso   1.000  H
  H7       1.0000 0.13950  0.51420  0.00860  Biso   1.000  H
  H8       1.0000 0.86050  0.48580  0.99140  Biso   1.000  H
  H9       1.0000 0.53740  0.19170  0.00680  Biso   1.000  H
  H10      1.0000 0.46260  0.80830  0.99320  Biso   1.000  H
  H11      1.0000 0.60070  0.15590  0.06570  Biso   1.000  H
  H12      1.0000 0.39930  0.84410  0.93430  Biso   1.000  H
  H13      1.0000 0.28410  0.60850  0.94550  Biso   1.000  H
  H14      1.0000 0.71590  0.39150  0.05450  Biso   1.000  H
  H15      1.0000 0.28940  0.62360  0.87850  Biso   1.000  H
  H16      1.0000 0.71060  0.37640  0.12150  Biso   1.000  H
  H17      1.0000 0.32050  0.00980  0.93350  Biso   1.000  H
  H18      1.0000 0.67950  0.99020  0.06650  Biso   1.000  H
  H19      1.0000 0.37350  0.03840  0.88100  Biso   1.000  H
  H20      1.0000 0.62650  0.96160  0.11900  Biso   1.000  H
  H21      1.0000 0.83050  0.10020  0.66290  Biso   1.000  H
  H22      1.0000 0.16950  0.89980  0.33710  Biso   1.000  H
  H23      1.0000 0.78240  0.90040  0.57870  Biso   1.000  H
  H24      1.0000 0.21760  0.09960  0.42130  Biso   1.000  H
  H25      1.0000 0.89360  0.92130  0.63600  Biso   1.000  H
  H26      1.0000 0.10640  0.07870  0.36400  Biso   1.000  H
  H27      1.0000 0.55470  0.68760  0.43560  Biso   1.000  H
  H28      1.0000 0.44530  0.31240  0.56440  Biso   1.000  H
  H29      1.0000 0.45840  0.60050  0.38100  Biso   1.000  H
  H30      1.0000 0.54160  0.39950  0.61900  Biso   1.000  H
  H31      1.0000 0.63870  0.99840  0.68360  Biso   1.000  H
  H32      1.0000 0.36130  0.00160  0.31640  Biso   1.000  H
  H33      1.0000 0.65230  0.97350  0.80200  Biso   1.000  H
  H34      1.0000 0.34770  0.02650  0.19800  Biso   1.000  H
  H35      1.0000 0.85960  0.05230  0.89980  Biso   1.000  H
  H36      1.0000 0.14040  0.94770  0.10020  Biso   1.000  H
  H37      1.0000 0.07010  0.12800  0.98500  Biso   1.000  H
  H38      1.0000 0.92990  0.87200  0.01500  Biso   1.000  H
  H39      1.0000 0.44870  0.33850  0.02070  Biso   1.000  H
  H40      1.0000 0.55130  0.66150  0.97930  Biso   1.000  H
  H41      1.0000 0.57480  0.43490  0.96200  Biso   1.000  H
  H42      1.0000 0.42520  0.56510  0.03800  Biso   1.000  H
  H43      1.0000 0.69080  0.52870  0.89260  Biso   1.000  H
  H44      1.0000 0.30920  0.47130  0.10740  Biso   1.000  H
  H45      1.0000 0.57520  0.50840  0.76650  Biso   1.000  H
  H46      1.0000 0.42480  0.49160  0.23350  Biso   1.000  H
  H47      1.0000 0.34930  0.39460  0.71250  Biso   1.000  H
  H48      1.0000 0.65070  0.60540  0.28750  Biso   1.000  H
  H49      1.0000 0.06120  0.36930  0.88010  Biso   1.000  H
  H50      1.0000 0.93880  0.63070  0.11990  Biso   1.000  H
  H51      1.0000 0.93920  0.46410  0.87490  Biso   1.000  H
  H52      1.0000 0.06080  0.53590  0.12510  Biso   1.000  H
  H53      1.0000 0.85150  0.49640  0.76190  Biso   1.000  H
  H54      1.0000 0.14850  0.50360  0.23810  Biso   1.000  H
  H55      1.0000 0.89060  0.43070  0.65390  Biso   1.000  H
  H56      1.0000 0.10940  0.56930  0.34610  Biso   1.000  H
  H57      1.0000 0.94750  0.36760  0.55860  Biso   1.000  H
  H58      1.0000 0.05250  0.63240  0.44140  Biso   1.000  H
  H59      1.0000 0.08640  0.16110  0.49520  Biso   1.000  H
  H60      1.0000 0.91360  0.83890  0.50480  Biso   1.000  H
  H61      1.0000 0.18130  0.06060  0.53990  Biso   1.000  H
  H62      1.0000 0.81870  0.93940  0.46010  Biso   1.000  H
  H63      1.0000 0.27520  0.96030  0.59590  Biso   1.000  H
  H64      1.0000 0.72480  0.03970  0.40410  Biso   1.000  H
  H65      1.0000 0.31140  0.97310  0.72350  Biso   1.000  H
  H66      1.0000 0.68860  0.02690  0.27650  Biso   1.000  H
  H67      1.0000 0.25410  0.08310  0.79260  Biso   1.000  H
  H68      1.0000 0.74590  0.91690  0.20740  Biso   1.000  H
  H69      1.0000 0.12430  0.22970  0.10170  Biso   1.000  H
  H70      1.0000 0.87570  0.77030  0.89830  Biso   1.000  H
  H71      1.0000 0.37920  0.26780  0.29680  Biso   1.000  H
  H72      1.0000 0.62080  0.73220  0.70320  Biso   1.000  H
  H73      1.0000 0.48800  0.25200  0.11920  Biso   1.000  H
  H74      1.0000 0.51200  0.74800  0.88080  Biso   1.000  H
  H75      1.0000 0.12970  0.27060  0.41250  Biso   1.000  H
  H76      1.0000 0.87030  0.72940  0.58750  Biso   1.000  H
  H77      1.0000 0.86350  0.28390  0.24370  Biso   1.000  H
  H78      1.0000 0.13650  0.71610  0.75630  Biso   1.000  H
  H79      1.0000 0.79570  0.27450  0.43350  Biso   1.000  H
  H80      1.0000 0.20430  0.72550  0.56650  Biso   1.000  H
  H81      1.0000 0.42800  0.56370  0.59410  Biso   1.000  H
  H82      1.0000 0.57200  0.43630  0.40590  Biso   1.000  H
  H83      1.0000 0.32380  0.45240  0.58580  Biso   1.000  H
  H84      1.0000 0.67620  0.54760  0.41420  Biso   1.000  H
  H85      1.0000 0.39070  0.47170  0.52520  Biso   1.000  H
  H86      1.0000 0.60930  0.52830  0.47480  Biso   1.000  H
  H87      1.0000 0.72050  0.24960  0.88350  Biso   1.000  H
  H88      1.0000 0.27950  0.75040  0.11650  Biso   1.000  H
  H89      1.0000 0.57530  0.22260  0.88090  Biso   1.000  H
  H90      1.0000 0.42470  0.77740  0.11910  Biso   1.000  H
  H91      1.0000 0.60920  0.13610  0.84570  Biso   1.000  H
  H92      1.0000 0.39080  0.86390  0.15430  Biso   1.000  H
  H93      1.0000 0.47950  0.86220  0.42190  Biso   1.000  H
  H94      1.0000 0.52050  0.13780  0.57810  Biso   1.000  H
  H95      1.0000 0.57470  0.95200  0.49550  Biso   1.000  H
  H96      1.0000 0.42530  0.04800  0.50450  Biso   1.000  H
  H97      1.0000 0.47700  0.84590  0.50020  Biso   1.000  H
  H98      1.0000 0.52300  0.15410  0.49980  Biso   1.000  H
  H99      1.0000 0.53070  0.78240  0.45750  Biso   1.000  H
  H100     1.0000 0.46930  0.21760  0.54250  Biso   1.000  H
  H101     1.0000 0.41470  0.68830  0.46400  Biso   1.000  H
  H102     1.0000 0.58530  0.31170  0.53600  Biso   1.000  H
  H103     1.0000 0.41070  0.70560  0.38520  Biso   1.000  H
  H104     1.0000 0.58930  0.29440  0.61480  Biso   1.000  H
