data_image0
_cell_length_a       19.572
_cell_length_b       19.552
_cell_length_c       10.156
_cell_angle_alpha    90
_cell_angle_beta     90
_cell_angle_gamma    90

_symmetry_space_group_name_H-M    "P 1"
_symmetry_int_tables_number       1

loop_
  _symmetry_equiv_pos_as_xyz
  'x, y, z'

loop_
  _atom_site_label
  _atom_site_occupancy
  _atom_site_fract_x
  _atom_site_fract_y
  _atom_site_fract_z
  _atom_site_thermal_displace_type
  _atom_site_B_iso_or_equiv
  _atom_site_type_symbol
  Cu1      1.0000 0.52043  0.95738  0.14176  Biso   1.000  Cu
  Cu2      1.0000 0.47957  0.04262  0.64176  Biso   1.000  Cu
  Cu3      1.0000 0.02043  0.04262  0.14176  Biso   1.000  Cu
  Cu4      1.0000 0.97957  0.95738  0.64176  Biso   1.000  Cu
  Cu5      1.0000 0.48673  0.54363  0.20991  Biso   1.000  Cu
  Cu6      1.0000 0.51327  0.45637  0.70991  Biso   1.000  Cu
  Cu7      1.0000 0.98673  0.45637  0.20991  Biso   1.000  Cu
  Cu8      1.0000 0.01327  0.54363  0.70991  Biso   1.000  Cu
  S1       1.0000 0.37080  0.00783  0.13483  Biso   1.000  S
  S2       1.0000 0.62920  0.99217  0.63483  Biso   1.000  S
  S3       1.0000 0.87080  0.99217  0.13483  Biso   1.000  S
  S4       1.0000 0.12920  0.00783  0.63483  Biso   1.000  S
  S5       1.0000 0.64189  0.50815  0.20604  Biso   1.000  S
  S6       1.0000 0.35811  0.49185  0.70604  Biso   1.000  S
  S7       1.0000 0.14189  0.49185  0.20604  Biso   1.000  S
  S8       1.0000 0.85811  0.50815  0.70604  Biso   1.000  S
  S9       1.0000 0.59035  0.17971  0.08589  Biso   1.000  S
  S10      1.0000 0.40965  0.82029  0.58589  Biso   1.000  S
  S11      1.0000 0.09035  0.82029  0.08589  Biso   1.000  S
  S12      1.0000 0.90965  0.17971  0.58589  Biso   1.000  S
  S13      1.0000 0.44185  0.32144  0.26543  Biso   1.000  S
  S14      1.0000 0.55815  0.67856  0.76543  Biso   1.000  S
  S15      1.0000 0.94185  0.67856  0.26543  Biso   1.000  S
  S16      1.0000 0.05815  0.32144  0.76543  Biso   1.000  S
  O1       1.0000 0.42043  0.94756  0.14470  Biso   1.000  O
  O2       1.0000 0.57957  0.05244  0.64470  Biso   1.000  O
  O3       1.0000 0.92043  0.05244  0.14470  Biso   1.000  O
  O4       1.0000 0.07957  0.94756  0.64470  Biso   1.000  O
  O5       1.0000 0.58543  0.56278  0.21150  Biso   1.000  O
  O6       1.0000 0.41457  0.43722  0.71150  Biso   1.000  O
  O7       1.0000 0.08543  0.43722  0.21150  Biso   1.000  O
  O8       1.0000 0.91457  0.56278  0.71150  Biso   1.000  O
  O9       1.0000 0.39237  0.55223  0.15790  Biso   1.000  O
  O10      1.0000 0.60763  0.44777  0.65790  Biso   1.000  O
  O11      1.0000 0.89237  0.44777  0.15790  Biso   1.000  O
  O12      1.0000 0.10763  0.55223  0.65790  Biso   1.000  O
  N1       1.0000 0.46627  0.62890  0.32400  Biso   1.000  N
  N2       1.0000 0.53373  0.37110  0.82400  Biso   1.000  N
  N3       1.0000 0.96627  0.37110  0.32400  Biso   1.000  N
  N4       1.0000 0.03373  0.62890  0.82400  Biso   1.000  N
  O13      1.0000 0.51192  0.99808  0.92800  Biso   1.000  O
  O14      1.0000 0.48808  0.00192  0.42800  Biso   1.000  O
  O15      1.0000 0.01192  0.00192  0.92800  Biso   1.000  O
  O16      1.0000 0.98808  0.99808  0.42800  Biso   1.000  O
  N5       1.0000 0.52985  0.87025  0.02730  Biso   1.000  N
  N6       1.0000 0.47015  0.12975  0.52730  Biso   1.000  N
  N7       1.0000 0.02985  0.12975  0.02730  Biso   1.000  N
  N8       1.0000 0.97015  0.87025  0.52730  Biso   1.000  N
  O17      1.0000 0.49096  0.50252  0.42240  Biso   1.000  O
  O18      1.0000 0.50904  0.49748  0.92240  Biso   1.000  O
  O19      1.0000 0.99096  0.49748  0.42240  Biso   1.000  O
  O20      1.0000 0.00904  0.50252  0.92240  Biso   1.000  O
  O21      1.0000 0.61729  0.94479  0.17350  Biso   1.000  O
  O22      1.0000 0.38271  0.05521  0.67350  Biso   1.000  O
  O23      1.0000 0.11729  0.05521  0.17350  Biso   1.000  O
  O24      1.0000 0.88271  0.94479  0.67350  Biso   1.000  O
  C1       1.0000 0.51420  0.80910  0.10420  Biso   1.000  C
  C2       1.0000 0.48580  0.19090  0.60420  Biso   1.000  C
  C3       1.0000 0.01420  0.19090  0.10420  Biso   1.000  C
  C4       1.0000 0.98580  0.80910  0.60420  Biso   1.000  C
  C5       1.0000 0.67090  0.49960  0.37140  Biso   1.000  C
  C6       1.0000 0.32910  0.50040  0.87140  Biso   1.000  C
  C7       1.0000 0.17090  0.50040  0.37140  Biso   1.000  C
  C8       1.0000 0.82910  0.49960  0.87140  Biso   1.000  C
  H1       1.0000 0.67800  0.54420  0.40860  Biso   1.000  H
  H2       1.0000 0.32200  0.45580  0.90860  Biso   1.000  H
  H3       1.0000 0.17800  0.45580  0.40860  Biso   1.000  H
  H4       1.0000 0.82200  0.54420  0.90860  Biso   1.000  H
  H5       1.0000 0.71300  0.47450  0.37250  Biso   1.000  H
  H6       1.0000 0.28700  0.52550  0.87250  Biso   1.000  H
  H7       1.0000 0.21300  0.52550  0.37250  Biso   1.000  H
  H8       1.0000 0.78700  0.47450  0.87250  Biso   1.000  H
  H9       1.0000 0.63720  0.47560  0.42210  Biso   1.000  H
  H10      1.0000 0.36280  0.52440  0.92210  Biso   1.000  H
  H11      1.0000 0.13720  0.52440  0.42210  Biso   1.000  H
  H12      1.0000 0.86280  0.47560  0.92210  Biso   1.000  H
  C9       1.0000 0.49930  0.55020  0.50170  Biso   1.000  C
  C10      1.0000 0.50070  0.44980  0.00170  Biso   1.000  C
  C11      1.0000 0.99930  0.44980  0.50170  Biso   1.000  C
  C12      1.0000 0.00070  0.55020  0.00170  Biso   1.000  C
  C13      1.0000 0.56500  0.76920  0.16030  Biso   1.000  C
  C14      1.0000 0.43500  0.23080  0.66030  Biso   1.000  C
  C15      1.0000 0.06500  0.23080  0.16030  Biso   1.000  C
  C16      1.0000 0.93500  0.76920  0.66030  Biso   1.000  C
  H13      1.0000 0.61050  0.78140  0.14860  Biso   1.000  H
  H14      1.0000 0.38950  0.21860  0.64860  Biso   1.000  H
  H15      1.0000 0.11050  0.21860  0.14860  Biso   1.000  H
  H16      1.0000 0.88950  0.78140  0.64860  Biso   1.000  H
  C17      1.0000 0.50340  0.62360  0.45020  Biso   1.000  C
  C18      1.0000 0.49660  0.37640  0.95020  Biso   1.000  C
  C19      1.0000 0.00340  0.37640  0.45020  Biso   1.000  C
  C20      1.0000 0.99660  0.62360  0.95020  Biso   1.000  C
  H17      1.0000 0.48350  0.65460  0.51410  Biso   1.000  H
  H18      1.0000 0.51650  0.34540  0.01410  Biso   1.000  H
  H19      1.0000 0.98350  0.34540  0.51410  Biso   1.000  H
  H20      1.0000 0.01650  0.65460  0.01410  Biso   1.000  H
  H21      1.0000 0.55090  0.63630  0.43750  Biso   1.000  H
  H22      1.0000 0.44910  0.36370  0.93750  Biso   1.000  H
  H23      1.0000 0.05090  0.36370  0.43750  Biso   1.000  H
  H24      1.0000 0.94910  0.63630  0.93750  Biso   1.000  H
  C21      1.0000 0.49320  0.95100  0.85400  Biso   1.000  C
  C22      1.0000 0.50680  0.04900  0.35400  Biso   1.000  C
  C23      1.0000 0.99320  0.04900  0.85400  Biso   1.000  C
  C24      1.0000 0.00680  0.95100  0.35400  Biso   1.000  C
  C25      1.0000 0.48257  0.69170  0.25260  Biso   1.000  C
  C26      1.0000 0.51743  0.30830  0.75260  Biso   1.000  C
  C27      1.0000 0.98257  0.30830  0.25260  Biso   1.000  C
  C28      1.0000 0.01743  0.69170  0.75260  Biso   1.000  C
  C29      1.0000 0.48558  0.87890  0.90880  Biso   1.000  C
  C30      1.0000 0.51442  0.12110  0.40880  Biso   1.000  C
  C31      1.0000 0.98558  0.12110  0.90880  Biso   1.000  C
  C32      1.0000 0.01442  0.87890  0.40880  Biso   1.000  C
  H25      1.0000 0.43830  0.87070  0.93240  Biso   1.000  H
  H26      1.0000 0.56170  0.12930  0.43240  Biso   1.000  H
  H27      1.0000 0.93830  0.12930  0.93240  Biso   1.000  H
  H28      1.0000 0.06170  0.87070  0.43240  Biso   1.000  H
  H29      1.0000 0.49850  0.84580  0.84210  Biso   1.000  H
  H30      1.0000 0.50150  0.15420  0.34210  Biso   1.000  H
  H31      1.0000 0.99850  0.15420  0.84210  Biso   1.000  H
  H32      1.0000 0.00150  0.84580  0.34210  Biso   1.000  H
  C33      1.0000 0.43076  0.73240  0.19920  Biso   1.000  C
  C34      1.0000 0.56924  0.26760  0.69920  Biso   1.000  C
  C35      1.0000 0.93076  0.26760  0.19920  Biso   1.000  C
  C36      1.0000 0.06924  0.73240  0.69920  Biso   1.000  C
  H33      1.0000 0.38530  0.72030  0.21220  Biso   1.000  H
  H34      1.0000 0.61470  0.27970  0.71220  Biso   1.000  H
  H35      1.0000 0.88530  0.27970  0.21220  Biso   1.000  H
  H36      1.0000 0.11470  0.72030  0.71220  Biso   1.000  H
  C37      1.0000 0.60260  0.87290  0.98580  Biso   1.000  C
  C38      1.0000 0.39740  0.12710  0.48580  Biso   1.000  C
  C39      1.0000 0.10260  0.12710  0.98580  Biso   1.000  C
  C40      1.0000 0.89740  0.87290  0.48580  Biso   1.000  C
  H37      1.0000 0.60610  0.89840  0.90410  Biso   1.000  H
  H38      1.0000 0.39390  0.10160  0.40410  Biso   1.000  H
  H39      1.0000 0.10610  0.10160  0.90410  Biso   1.000  H
  H40      1.0000 0.89390  0.89840  0.40410  Biso   1.000  H
  H41      1.0000 0.61870  0.82680  0.96940  Biso   1.000  H
  H42      1.0000 0.38130  0.17320  0.46940  Biso   1.000  H
  H43      1.0000 0.11870  0.17320  0.96940  Biso   1.000  H
  H44      1.0000 0.88130  0.82680  0.46940  Biso   1.000  H
  O25      1.0000 0.70962  0.89674  0.08470  Biso   1.000  O
  O26      1.0000 0.29038  0.10326  0.58470  Biso   1.000  O
  O27      1.0000 0.20962  0.10326  0.08470  Biso   1.000  O
  O28      1.0000 0.79038  0.89674  0.58470  Biso   1.000  O
  O29      1.0000 0.29285  0.59639  0.22300  Biso   1.000  O
  O30      1.0000 0.70715  0.40361  0.72300  Biso   1.000  O
  O31      1.0000 0.79285  0.40361  0.22300  Biso   1.000  O
  O32      1.0000 0.20715  0.59639  0.72300  Biso   1.000  O
  C41      1.0000 0.44627  0.79111  0.12680  Biso   1.000  C
  C42      1.0000 0.55373  0.20889  0.62680  Biso   1.000  C
  C43      1.0000 0.94627  0.20889  0.12680  Biso   1.000  C
  C44      1.0000 0.05373  0.79111  0.62680  Biso   1.000  C
  H45      1.0000 0.41130  0.81820  0.09350  Biso   1.000  H
  H46      1.0000 0.58870  0.18180  0.59350  Biso   1.000  H
  H47      1.0000 0.91130  0.18180  0.09350  Biso   1.000  H
  H48      1.0000 0.08870  0.81820  0.59350  Biso   1.000  H
  C45      1.0000 0.54950  0.71180  0.23290  Biso   1.000  C
  C46      1.0000 0.45050  0.28820  0.73290  Biso   1.000  C
  C47      1.0000 0.04950  0.28820  0.23290  Biso   1.000  C
  C48      1.0000 0.95050  0.71180  0.73290  Biso   1.000  C
  H49      1.0000 0.58460  0.68600  0.26940  Biso   1.000  H
  H50      1.0000 0.41540  0.31400  0.76940  Biso   1.000  H
  H51      1.0000 0.08460  0.31400  0.26940  Biso   1.000  H
  H52      1.0000 0.91540  0.68600  0.76940  Biso   1.000  H
  C49      1.0000 0.35490  0.58840  0.23320  Biso   1.000  C
  C50      1.0000 0.64510  0.41160  0.73320  Biso   1.000  C
  C51      1.0000 0.85490  0.41160  0.23320  Biso   1.000  C
  C52      1.0000 0.14510  0.58840  0.73320  Biso   1.000  C
  C53      1.0000 0.39140  0.62070  0.35060  Biso   1.000  C
  C54      1.0000 0.60860  0.37930  0.85060  Biso   1.000  C
  C55      1.0000 0.89140  0.37930  0.35060  Biso   1.000  C
  C56      1.0000 0.10860  0.62070  0.85060  Biso   1.000  C
  H53      1.0000 0.37150  0.66510  0.36900  Biso   1.000  H
  H54      1.0000 0.62850  0.33490  0.86900  Biso   1.000  H
  H55      1.0000 0.87150  0.33490  0.36900  Biso   1.000  H
  H56      1.0000 0.12850  0.66510  0.86900  Biso   1.000  H
  H57      1.0000 0.38510  0.59210  0.42770  Biso   1.000  H
  H58      1.0000 0.61490  0.40790  0.92770  Biso   1.000  H
  H59      1.0000 0.88510  0.40790  0.42770  Biso   1.000  H
  H60      1.0000 0.11490  0.59210  0.92770  Biso   1.000  H
  C57      1.0000 0.64770  0.90640  0.08920  Biso   1.000  C
  C58      1.0000 0.35230  0.09360  0.58920  Biso   1.000  C
  C59      1.0000 0.14770  0.09360  0.08920  Biso   1.000  C
  C60      1.0000 0.85230  0.90640  0.58920  Biso   1.000  C
  C61      1.0000 0.33440  0.00290  0.97560  Biso   1.000  C
  C62      1.0000 0.66560  0.99710  0.47560  Biso   1.000  C
  C63      1.0000 0.83440  0.99710  0.97560  Biso   1.000  C
  C64      1.0000 0.16560  0.00290  0.47560  Biso   1.000  C
  H61      1.0000 0.36740  0.01730  0.91150  Biso   1.000  H
  H62      1.0000 0.63260  0.98270  0.41150  Biso   1.000  H
  H63      1.0000 0.86740  0.98270  0.91150  Biso   1.000  H
  H64      1.0000 0.13260  0.01730  0.41150  Biso   1.000  H
  H65      1.0000 0.29500  0.03200  0.97130  Biso   1.000  H
  H66      1.0000 0.70500  0.96800  0.47130  Biso   1.000  H
  H67      1.0000 0.79500  0.96800  0.97130  Biso   1.000  H
  H68      1.0000 0.20500  0.03200  0.47130  Biso   1.000  H
  H69      1.0000 0.32100  0.95650  0.95790  Biso   1.000  H
  H70      1.0000 0.67900  0.04350  0.45790  Biso   1.000  H
  H71      1.0000 0.82100  0.04350  0.95790  Biso   1.000  H
  H72      1.0000 0.17900  0.95650  0.45790  Biso   1.000  H
  S17      1.0000 0.31643  0.77429  0.88058  Biso   1.000  S
  S18      1.0000 0.68357  0.22571  0.38058  Biso   1.000  S
  S19      1.0000 0.81643  0.22571  0.88058  Biso   1.000  S
  S20      1.0000 0.18357  0.77429  0.38058  Biso   1.000  S
  S21      1.0000 0.73559  0.73705  0.45450  Biso   1.000  S
  S22      1.0000 0.26441  0.26295  0.95450  Biso   1.000  S
  S23      1.0000 0.23559  0.26295  0.45450  Biso   1.000  S
  S24      1.0000 0.76441  0.73705  0.95450  Biso   1.000  S
  O33      1.0000 0.30493  0.83205  0.97500  Biso   1.000  O
  O34      1.0000 0.69507  0.16795  0.47500  Biso   1.000  O
  O35      1.0000 0.80493  0.16795  0.97500  Biso   1.000  O
  O36      1.0000 0.19507  0.83205  0.47500  Biso   1.000  O
  O37      1.0000 0.42248  0.24926  0.29250  Biso   1.000  O
  O38      1.0000 0.57752  0.75074  0.79250  Biso   1.000  O
  O39      1.0000 0.92248  0.75074  0.29250  Biso   1.000  O
  O40      1.0000 0.07752  0.24926  0.79250  Biso   1.000  O
  C65      1.0000 0.50620  0.16850  0.02250  Biso   1.000  C
  C66      1.0000 0.49380  0.83150  0.52250  Biso   1.000  C
  C67      1.0000 0.00620  0.83150  0.02250  Biso   1.000  C
  C68      1.0000 0.99380  0.16850  0.52250  Biso   1.000  C
  H73      1.0000 0.47510  0.19770  0.06940  Biso   1.000  H
  H74      1.0000 0.52490  0.80230  0.56940  Biso   1.000  H
  H75      1.0000 0.97510  0.80230  0.06940  Biso   1.000  H
  H76      1.0000 0.02490  0.19770  0.56940  Biso   1.000  H
  H77      1.0000 0.49250  0.12170  0.03340  Biso   1.000  H
  H78      1.0000 0.50750  0.87830  0.53340  Biso   1.000  H
  H79      1.0000 0.99250  0.87830  0.03340  Biso   1.000  H
  H80      1.0000 0.00750  0.12170  0.53340  Biso   1.000  H
  H81      1.0000 0.50560  0.18010  0.93070  Biso   1.000  H
  H82      1.0000 0.49440  0.81990  0.43070  Biso   1.000  H
  H83      1.0000 0.00560  0.81990  0.93070  Biso   1.000  H
  H84      1.0000 0.99440  0.18010  0.43070  Biso   1.000  H
  O41      1.0000 0.61400  0.24830  0.03680  Biso   1.000  O
  O42      1.0000 0.38600  0.75170  0.53680  Biso   1.000  O
  O43      1.0000 0.11400  0.75170  0.03680  Biso   1.000  O
  O44      1.0000 0.88600  0.24830  0.53680  Biso   1.000  O
  C69      1.0000 0.52000  0.33820  0.34940  Biso   1.000  C
  C70      1.0000 0.48000  0.66180  0.84940  Biso   1.000  C
  C71      1.0000 0.02000  0.66180  0.34940  Biso   1.000  C
  C72      1.0000 0.98000  0.33820  0.84940  Biso   1.000  C
  H85      1.0000 0.51620  0.32320  0.43910  Biso   1.000  H
  H86      1.0000 0.48380  0.67680  0.93910  Biso   1.000  H
  H87      1.0000 0.01620  0.67680  0.43910  Biso   1.000  H
  H88      1.0000 0.98380  0.32320  0.93910  Biso   1.000  H
  H89      1.0000 0.52930  0.38640  0.34730  Biso   1.000  H
  H90      1.0000 0.47070  0.61360  0.84730  Biso   1.000  H
  H91      1.0000 0.02930  0.61360  0.34730  Biso   1.000  H
  H92      1.0000 0.97070  0.38640  0.84730  Biso   1.000  H
  H93      1.0000 0.55650  0.31390  0.30690  Biso   1.000  H
  H94      1.0000 0.44350  0.68610  0.80690  Biso   1.000  H
  H95      1.0000 0.05650  0.68610  0.30690  Biso   1.000  H
  H96      1.0000 0.94350  0.31390  0.80690  Biso   1.000  H
  C73      1.0000 0.71360  0.55350  0.14510  Biso   1.000  C
  C74      1.0000 0.28640  0.44650  0.64510  Biso   1.000  C
  C75      1.0000 0.21360  0.44650  0.14510  Biso   1.000  C
  C76      1.0000 0.78640  0.55350  0.64510  Biso   1.000  C
  H97      1.0000 0.70660  0.56440  0.05400  Biso   1.000  H
  H98      1.0000 0.29340  0.43560  0.55400  Biso   1.000  H
  H99      1.0000 0.20660  0.43560  0.05400  Biso   1.000  H
  H100     1.0000 0.79340  0.56440  0.55400  Biso   1.000  H
  H101     1.0000 0.75380  0.52580  0.15390  Biso   1.000  H
  H102     1.0000 0.24620  0.47420  0.65390  Biso   1.000  H
  H103     1.0000 0.25380  0.47420  0.15390  Biso   1.000  H
  H104     1.0000 0.74620  0.52580  0.65390  Biso   1.000  H
  H105     1.0000 0.71940  0.59500  0.19450  Biso   1.000  H
  H106     1.0000 0.28060  0.40500  0.69450  Biso   1.000  H
  H107     1.0000 0.21940  0.40500  0.19450  Biso   1.000  H
  H108     1.0000 0.78060  0.59500  0.69450  Biso   1.000  H
  C77      1.0000 0.63140  0.11720  0.98710  Biso   1.000  C
  C78      1.0000 0.36860  0.88280  0.48710  Biso   1.000  C
  C79      1.0000 0.13140  0.88280  0.98710  Biso   1.000  C
  C80      1.0000 0.86860  0.11720  0.48710  Biso   1.000  C
  H109     1.0000 0.61960  0.12440  0.89640  Biso   1.000  H
  H110     1.0000 0.38040  0.87560  0.39640  Biso   1.000  H
  H111     1.0000 0.11960  0.87560  0.89640  Biso   1.000  H
  H112     1.0000 0.88040  0.12440  0.39640  Biso   1.000  H
  H113     1.0000 0.61680  0.07250  0.01390  Biso   1.000  H
  H114     1.0000 0.38320  0.92750  0.51390  Biso   1.000  H
  H115     1.0000 0.11680  0.92750  0.01390  Biso   1.000  H
  H116     1.0000 0.88320  0.07250  0.51390  Biso   1.000  H
  H117     1.0000 0.68000  0.12100  0.99760  Biso   1.000  H
  H118     1.0000 0.32000  0.87900  0.49760  Biso   1.000  H
  H119     1.0000 0.18000  0.87900  0.99760  Biso   1.000  H
  H120     1.0000 0.82000  0.12100  0.49760  Biso   1.000  H
  C81      1.0000 0.38900  0.37340  0.36720  Biso   1.000  C
  C82      1.0000 0.61100  0.62660  0.86720  Biso   1.000  C
  C83      1.0000 0.88900  0.62660  0.36720  Biso   1.000  C
  C84      1.0000 0.11100  0.37340  0.86720  Biso   1.000  C
  H121     1.0000 0.34380  0.37530  0.33080  Biso   1.000  H
  H122     1.0000 0.65620  0.62470  0.83080  Biso   1.000  H
  H123     1.0000 0.84380  0.62470  0.33080  Biso   1.000  H
  H124     1.0000 0.15620  0.37530  0.83080  Biso   1.000  H
  H125     1.0000 0.40770  0.41880  0.37170  Biso   1.000  H
  H126     1.0000 0.59230  0.58120  0.87170  Biso   1.000  H
  H127     1.0000 0.90770  0.58120  0.37170  Biso   1.000  H
  H128     1.0000 0.09230  0.41880  0.87170  Biso   1.000  H
  H129     1.0000 0.38710  0.35420  0.45420  Biso   1.000  H
  H130     1.0000 0.61290  0.64580  0.95420  Biso   1.000  H
  H131     1.0000 0.88710  0.64580  0.45420  Biso   1.000  H
  H132     1.0000 0.11290  0.35420  0.95420  Biso   1.000  H
  C85      1.0000 0.29870  0.98150  0.22710  Biso   1.000  C
  C86      1.0000 0.70130  0.01850  0.72710  Biso   1.000  C
  C87      1.0000 0.79870  0.01850  0.22710  Biso   1.000  C
  C88      1.0000 0.20130  0.98150  0.72710  Biso   1.000  C
  H133     1.0000 0.28350  0.93770  0.19620  Biso   1.000  H
  H134     1.0000 0.71650  0.06230  0.69620  Biso   1.000  H
  H135     1.0000 0.78350  0.06230  0.19620  Biso   1.000  H
  H136     1.0000 0.21650  0.93770  0.69620  Biso   1.000  H
  H137     1.0000 0.26270  0.01440  0.21670  Biso   1.000  H
  H138     1.0000 0.73730  0.98560  0.71670  Biso   1.000  H
  H139     1.0000 0.76270  0.98560  0.21670  Biso   1.000  H
  H140     1.0000 0.23730  0.01440  0.71670  Biso   1.000  H
  H141     1.0000 0.31090  0.97830  0.31850  Biso   1.000  H
  H142     1.0000 0.68910  0.02170  0.81850  Biso   1.000  H
  H143     1.0000 0.81090  0.02170  0.31850  Biso   1.000  H
  H144     1.0000 0.18910  0.97830  0.81850  Biso   1.000  H
  C89      1.0000 0.25220  0.78170  0.75870  Biso   1.000  C
  C90      1.0000 0.74780  0.21830  0.25870  Biso   1.000  C
  C91      1.0000 0.75220  0.21830  0.75870  Biso   1.000  C
  C92      1.0000 0.24780  0.78170  0.25870  Biso   1.000  C
  H145     1.0000 0.20850  0.78740  0.80040  Biso   1.000  H
  H146     1.0000 0.79150  0.21260  0.30040  Biso   1.000  H
  H147     1.0000 0.70850  0.21260  0.80040  Biso   1.000  H
  H148     1.0000 0.29150  0.78740  0.30040  Biso   1.000  H
  H149     1.0000 0.25160  0.74110  0.70560  Biso   1.000  H
  H150     1.0000 0.74840  0.25890  0.20560  Biso   1.000  H
  H151     1.0000 0.75160  0.25890  0.70560  Biso   1.000  H
  H152     1.0000 0.24840  0.74110  0.20560  Biso   1.000  H
  H153     1.0000 0.26150  0.82070  0.70410  Biso   1.000  H
  H154     1.0000 0.73850  0.17930  0.20410  Biso   1.000  H
  H155     1.0000 0.76150  0.17930  0.70410  Biso   1.000  H
  H156     1.0000 0.23850  0.82070  0.20410  Biso   1.000  H
  C93      1.0000 0.28260  0.69820  0.95210  Biso   1.000  C
  C94      1.0000 0.71740  0.30180  0.45210  Biso   1.000  C
  C95      1.0000 0.78260  0.30180  0.95210  Biso   1.000  C
  C96      1.0000 0.21740  0.69820  0.45210  Biso   1.000  C
  H157     1.0000 0.31290  0.68230  0.01970  Biso   1.000  H
  H158     1.0000 0.68710  0.31770  0.51970  Biso   1.000  H
  H159     1.0000 0.81290  0.31770  0.01970  Biso   1.000  H
  H160     1.0000 0.18710  0.68230  0.51970  Biso   1.000  H
  H161     1.0000 0.27800  0.66370  0.88540  Biso   1.000  H
  H162     1.0000 0.72200  0.33630  0.38540  Biso   1.000  H
  H163     1.0000 0.77800  0.33630  0.88540  Biso   1.000  H
  H164     1.0000 0.22200  0.66370  0.38540  Biso   1.000  H
  H165     1.0000 0.23860  0.70780  0.98970  Biso   1.000  H
  H166     1.0000 0.76140  0.29220  0.48970  Biso   1.000  H
  H167     1.0000 0.73860  0.29220  0.98970  Biso   1.000  H
  H168     1.0000 0.26140  0.70780  0.48970  Biso   1.000  H
  O45      1.0000 0.70950  0.67100  0.39660  Biso   1.000  O
  O46      1.0000 0.29050  0.32900  0.89660  Biso   1.000  O
  O47      1.0000 0.20950  0.32900  0.39660  Biso   1.000  O
  O48      1.0000 0.79050  0.67100  0.89660  Biso   1.000  O
  C97      1.0000 0.66220  0.78490  0.50360  Biso   1.000  C
  C98      1.0000 0.33780  0.21510  0.00360  Biso   1.000  C
  C99      1.0000 0.16220  0.21510  0.50360  Biso   1.000  C
  C100     1.0000 0.83780  0.78490  0.00360  Biso   1.000  C
  H169     1.0000 0.63220  0.79050  0.42950  Biso   1.000  H
  H170     1.0000 0.36780  0.20950  0.92950  Biso   1.000  H
  H171     1.0000 0.13220  0.20950  0.42950  Biso   1.000  H
  H172     1.0000 0.86780  0.79050  0.92950  Biso   1.000  H
  H173     1.0000 0.67630  0.82900  0.53520  Biso   1.000  H
  H174     1.0000 0.32370  0.17100  0.03520  Biso   1.000  H
  H175     1.0000 0.17630  0.17100  0.53520  Biso   1.000  H
  H176     1.0000 0.82370  0.82900  0.03520  Biso   1.000  H
  H177     1.0000 0.63860  0.76080  0.57240  Biso   1.000  H
  H178     1.0000 0.36140  0.23920  0.07240  Biso   1.000  H
  H179     1.0000 0.13860  0.23920  0.57240  Biso   1.000  H
  H180     1.0000 0.86140  0.76080  0.07240  Biso   1.000  H
  C101     1.0000 0.75870  0.79050  0.31840  Biso   1.000  C
  C102     1.0000 0.24130  0.20950  0.81840  Biso   1.000  C
  C103     1.0000 0.25870  0.20950  0.31840  Biso   1.000  C
  C104     1.0000 0.74130  0.79050  0.81840  Biso   1.000  C
  H181     1.0000 0.80120  0.77500  0.28180  Biso   1.000  H
  H182     1.0000 0.19880  0.22500  0.78180  Biso   1.000  H
  H183     1.0000 0.30120  0.22500  0.28180  Biso   1.000  H
  H184     1.0000 0.69880  0.77500  0.78180  Biso   1.000  H
  H185     1.0000 0.76370  0.83690  0.34810  Biso   1.000  H
  H186     1.0000 0.23630  0.16310  0.84810  Biso   1.000  H
  H187     1.0000 0.26370  0.16310  0.34810  Biso   1.000  H
  H188     1.0000 0.73630  0.83690  0.84810  Biso   1.000  H
  H189     1.0000 0.72370  0.78830  0.25230  Biso   1.000  H
  H190     1.0000 0.27630  0.21170  0.75230  Biso   1.000  H
  H191     1.0000 0.22370  0.21170  0.25230  Biso   1.000  H
  H192     1.0000 0.77630  0.78830  0.75230  Biso   1.000  H
  O49      1.0000 0.50617  0.54423  0.62470  Biso   1.000  O
  O50      1.0000 0.49383  0.45577  0.12470  Biso   1.000  O
  O51      1.0000 0.00617  0.45577  0.62470  Biso   1.000  O
  O52      1.0000 0.99383  0.54423  0.12470  Biso   1.000  O
  O53      1.0000 0.47773  0.95618  0.73280  Biso   1.000  O
  O54      1.0000 0.52227  0.04382  0.23280  Biso   1.000  O
  O55      1.0000 0.97773  0.04382  0.73280  Biso   1.000  O
  O56      1.0000 0.02227  0.95618  0.23280  Biso   1.000  O
