data_image0
_cell_length_a       24.588
_cell_length_b       10.377
_cell_length_c       13.022
_cell_angle_alpha    90
_cell_angle_beta     90
_cell_angle_gamma    90

_symmetry_space_group_name_H-M    "P 1"
_symmetry_int_tables_number       1

loop_
  _symmetry_equiv_pos_as_xyz
  'x, y, z'

loop_
  _atom_site_label
  _atom_site_occupancy
  _atom_site_fract_x
  _atom_site_fract_y
  _atom_site_fract_z
  _atom_site_thermal_displace_type
  _atom_site_B_iso_or_equiv
  _atom_site_type_symbol
  Cu1      1.0000 0.23076  0.09786  0.68634  Biso   1.000  Cu
  Cu2      1.0000 0.26924  0.40214  0.18634  Biso   1.000  Cu
  Cu3      1.0000 0.76924  0.09786  0.81366  Biso   1.000  Cu
  Cu4      1.0000 0.73076  0.40214  0.31366  Biso   1.000  Cu
  Cu5      1.0000 0.76924  0.90214  0.31366  Biso   1.000  Cu
  Cu6      1.0000 0.73076  0.59786  0.81366  Biso   1.000  Cu
  Cu7      1.0000 0.23076  0.90214  0.18634  Biso   1.000  Cu
  Cu8      1.0000 0.26924  0.59786  0.68634  Biso   1.000  Cu
  Br1      1.0000 0.40923  0.20721  0.80819  Biso   1.000  Br
  Br2      1.0000 0.09077  0.29279  0.30819  Biso   1.000  Br
  Br3      1.0000 0.59077  0.20721  0.69181  Biso   1.000  Br
  Br4      1.0000 0.90923  0.29279  0.19181  Biso   1.000  Br
  Br5      1.0000 0.59077  0.79279  0.19181  Biso   1.000  Br
  Br6      1.0000 0.90923  0.70721  0.69181  Biso   1.000  Br
  Br7      1.0000 0.40923  0.79279  0.30819  Biso   1.000  Br
  Br8      1.0000 0.09077  0.70721  0.80819  Biso   1.000  Br
  Br9      1.0000 0.48560  0.15561  0.40016  Biso   1.000  Br
  Br10     1.0000 0.01440  0.34439  0.90016  Biso   1.000  Br
  Br11     1.0000 0.51440  0.15561  0.09984  Biso   1.000  Br
  Br12     1.0000 0.98560  0.34439  0.59984  Biso   1.000  Br
  Br13     1.0000 0.51440  0.84439  0.59984  Biso   1.000  Br
  Br14     1.0000 0.98560  0.65561  0.09984  Biso   1.000  Br
  Br15     1.0000 0.48560  0.84439  0.90016  Biso   1.000  Br
  Br16     1.0000 0.01440  0.65561  0.40016  Biso   1.000  Br
  O1       1.0000 0.30805  0.09570  0.71390  Biso   1.000  O
  O2       1.0000 0.19195  0.40430  0.21390  Biso   1.000  O
  O3       1.0000 0.69195  0.09570  0.78610  Biso   1.000  O
  O4       1.0000 0.80805  0.40430  0.28610  Biso   1.000  O
  O5       1.0000 0.69195  0.90430  0.28610  Biso   1.000  O
  O6       1.0000 0.80805  0.59570  0.78610  Biso   1.000  O
  O7       1.0000 0.30805  0.90430  0.21390  Biso   1.000  O
  O8       1.0000 0.19195  0.59570  0.71390  Biso   1.000  O
  N1       1.0000 0.24430  0.99910  0.55620  Biso   1.000  N
  N2       1.0000 0.25570  0.50090  0.05620  Biso   1.000  N
  N3       1.0000 0.75570  0.99910  0.94380  Biso   1.000  N
  N4       1.0000 0.74430  0.50090  0.44380  Biso   1.000  N
  N5       1.0000 0.75570  0.00090  0.44380  Biso   1.000  N
  N6       1.0000 0.74430  0.49910  0.94380  Biso   1.000  N
  N7       1.0000 0.24430  0.00090  0.05620  Biso   1.000  N
  N8       1.0000 0.25570  0.49910  0.55620  Biso   1.000  N
  N9       1.0000 0.14870  0.12310  0.65390  Biso   1.000  N
  N10      1.0000 0.35130  0.37690  0.15390  Biso   1.000  N
  N11      1.0000 0.85130  0.12310  0.84610  Biso   1.000  N
  N12      1.0000 0.64870  0.37690  0.34610  Biso   1.000  N
  N13      1.0000 0.85130  0.87690  0.34610  Biso   1.000  N
  N14      1.0000 0.64870  0.62310  0.84610  Biso   1.000  N
  N15      1.0000 0.14870  0.87690  0.15390  Biso   1.000  N
  N16      1.0000 0.35130  0.62310  0.65390  Biso   1.000  N
  N17      1.0000 0.22590  0.24900  0.78260  Biso   1.000  N
  N18      1.0000 0.27410  0.25100  0.28260  Biso   1.000  N
  N19      1.0000 0.77410  0.24900  0.71740  Biso   1.000  N
  N20      1.0000 0.72590  0.25100  0.21740  Biso   1.000  N
  N21      1.0000 0.77410  0.75100  0.21740  Biso   1.000  N
  N22      1.0000 0.72590  0.74900  0.71740  Biso   1.000  N
  N23      1.0000 0.22590  0.75100  0.28260  Biso   1.000  N
  N24      1.0000 0.27410  0.74900  0.78260  Biso   1.000  N
  N25      1.0000 0.25780  0.33640  0.78330  Biso   1.000  N
  N26      1.0000 0.24220  0.16360  0.28330  Biso   1.000  N
  N27      1.0000 0.74220  0.33640  0.71670  Biso   1.000  N
  N28      1.0000 0.75780  0.16360  0.21670  Biso   1.000  N
  N29      1.0000 0.74220  0.66360  0.21670  Biso   1.000  N
  N30      1.0000 0.75780  0.83640  0.71670  Biso   1.000  N
  N31      1.0000 0.25780  0.66360  0.28330  Biso   1.000  N
  N32      1.0000 0.24220  0.83640  0.78330  Biso   1.000  N
  N33      1.0000 0.28740  0.42280  0.78770  Biso   1.000  N
  N34      1.0000 0.21260  0.07720  0.28770  Biso   1.000  N
  N35      1.0000 0.71260  0.42280  0.71230  Biso   1.000  N
  N36      1.0000 0.78740  0.07720  0.21230  Biso   1.000  N
  N37      1.0000 0.71260  0.57720  0.21230  Biso   1.000  N
  N38      1.0000 0.78740  0.92280  0.71230  Biso   1.000  N
  N39      1.0000 0.28740  0.57720  0.28770  Biso   1.000  N
  N40      1.0000 0.21260  0.92280  0.78770  Biso   1.000  N
  C1       1.0000 0.33750  0.07500  0.53980  Biso   1.000  C
  C2       1.0000 0.16250  0.42500  0.03980  Biso   1.000  C
  C3       1.0000 0.66250  0.07500  0.96020  Biso   1.000  C
  C4       1.0000 0.83750  0.42500  0.46020  Biso   1.000  C
  C5       1.0000 0.66250  0.92500  0.46020  Biso   1.000  C
  C6       1.0000 0.83750  0.57500  0.96020  Biso   1.000  C
  C7       1.0000 0.33750  0.92500  0.03980  Biso   1.000  C
  C8       1.0000 0.16250  0.57500  0.53980  Biso   1.000  C
  C9       1.0000 0.34480  0.10900  0.64360  Biso   1.000  C
  C10      1.0000 0.15520  0.39100  0.14360  Biso   1.000  C
  C11      1.0000 0.65520  0.10900  0.85640  Biso   1.000  C
  C12      1.0000 0.84480  0.39100  0.35640  Biso   1.000  C
  C13      1.0000 0.65520  0.89100  0.35640  Biso   1.000  C
  C14      1.0000 0.84480  0.60900  0.85640  Biso   1.000  C
  C15      1.0000 0.34480  0.89100  0.14360  Biso   1.000  C
  C16      1.0000 0.15520  0.60900  0.64360  Biso   1.000  C
  C17      1.0000 0.39690  0.15910  0.66910  Biso   1.000  C
  C18      1.0000 0.10310  0.34090  0.16910  Biso   1.000  C
  C19      1.0000 0.60310  0.15910  0.83090  Biso   1.000  C
  C20      1.0000 0.89690  0.34090  0.33090  Biso   1.000  C
  C21      1.0000 0.60310  0.84090  0.33090  Biso   1.000  C
  C22      1.0000 0.89690  0.65910  0.83090  Biso   1.000  C
  C23      1.0000 0.39690  0.84090  0.16910  Biso   1.000  C
  C24      1.0000 0.10310  0.65910  0.66910  Biso   1.000  C
  C25      1.0000 0.43730  0.17300  0.59800  Biso   1.000  C
  C26      1.0000 0.06270  0.32700  0.09800  Biso   1.000  C
  C27      1.0000 0.56270  0.17300  0.90200  Biso   1.000  C
  C28      1.0000 0.93730  0.32700  0.40200  Biso   1.000  C
  C29      1.0000 0.56270  0.82700  0.40200  Biso   1.000  C
  C30      1.0000 0.93730  0.67300  0.90200  Biso   1.000  C
  C31      1.0000 0.43730  0.82700  0.09800  Biso   1.000  C
  C32      1.0000 0.06270  0.67300  0.59800  Biso   1.000  C
  H1       1.0000 0.47100  0.20540  0.61780  Biso   1.000  H
  H2       1.0000 0.02900  0.29460  0.11780  Biso   1.000  H
  H3       1.0000 0.52900  0.20540  0.88220  Biso   1.000  H
  H4       1.0000 0.97100  0.29460  0.38220  Biso   1.000  H
  H5       1.0000 0.52900  0.79460  0.38220  Biso   1.000  H
  H6       1.0000 0.97100  0.70540  0.88220  Biso   1.000  H
  H7       1.0000 0.47100  0.79460  0.11780  Biso   1.000  H
  H8       1.0000 0.02900  0.70540  0.61780  Biso   1.000  H
  C33      1.0000 0.42850  0.13980  0.49870  Biso   1.000  C
  C34      1.0000 0.07150  0.36020  0.99870  Biso   1.000  C
  C35      1.0000 0.57150  0.13980  0.00130  Biso   1.000  C
  C36      1.0000 0.92850  0.36020  0.50130  Biso   1.000  C
  C37      1.0000 0.57150  0.86020  0.50130  Biso   1.000  C
  C38      1.0000 0.92850  0.63980  0.00130  Biso   1.000  C
  C39      1.0000 0.42850  0.86020  0.99870  Biso   1.000  C
  C40      1.0000 0.07150  0.63980  0.49870  Biso   1.000  C
  C41      1.0000 0.38030  0.09020  0.46820  Biso   1.000  C
  C42      1.0000 0.11970  0.40980  0.96820  Biso   1.000  C
  C43      1.0000 0.61970  0.09020  0.03180  Biso   1.000  C
  C44      1.0000 0.88030  0.40980  0.53180  Biso   1.000  C
  C45      1.0000 0.61970  0.90980  0.53180  Biso   1.000  C
  C46      1.0000 0.88030  0.59020  0.03180  Biso   1.000  C
  C47      1.0000 0.38030  0.90980  0.96820  Biso   1.000  C
  C48      1.0000 0.11970  0.59020  0.46820  Biso   1.000  C
  H9       1.0000 0.37520  0.06600  0.40010  Biso   1.000  H
  H10      1.0000 0.12480  0.43400  0.90010  Biso   1.000  H
  H11      1.0000 0.62480  0.06600  0.09990  Biso   1.000  H
  H12      1.0000 0.87520  0.43400  0.59990  Biso   1.000  H
  H13      1.0000 0.62480  0.93400  0.59990  Biso   1.000  H
  H14      1.0000 0.87520  0.56600  0.09990  Biso   1.000  H
  H15      1.0000 0.37520  0.93400  0.90010  Biso   1.000  H
  H16      1.0000 0.12480  0.56600  0.40010  Biso   1.000  H
  C49      1.0000 0.28860  0.00890  0.50580  Biso   1.000  C
  C50      1.0000 0.21140  0.49110  0.00580  Biso   1.000  C
  C51      1.0000 0.71140  0.00890  0.99420  Biso   1.000  C
  C52      1.0000 0.78860  0.49110  0.49420  Biso   1.000  C
  C53      1.0000 0.71140  0.99110  0.49420  Biso   1.000  C
  C54      1.0000 0.78860  0.50890  0.99420  Biso   1.000  C
  C55      1.0000 0.28860  0.99110  0.00580  Biso   1.000  C
  C56      1.0000 0.21140  0.50890  0.50580  Biso   1.000  C
  H17      1.0000 0.28980  0.97020  0.44140  Biso   1.000  H
  H18      1.0000 0.21020  0.52980  0.94140  Biso   1.000  H
  H19      1.0000 0.71020  0.97020  0.05860  Biso   1.000  H
  H20      1.0000 0.78980  0.52980  0.55860  Biso   1.000  H
  H21      1.0000 0.71020  0.02980  0.55860  Biso   1.000  H
  H22      1.0000 0.78980  0.47020  0.05860  Biso   1.000  H
  H23      1.0000 0.28980  0.02980  0.94140  Biso   1.000  H
  H24      1.0000 0.21020  0.47020  0.44140  Biso   1.000  H
  C57      1.0000 0.20370  0.90770  0.51830  Biso   1.000  C
  C58      1.0000 0.29630  0.59230  0.01830  Biso   1.000  C
  C59      1.0000 0.79630  0.90770  0.98170  Biso   1.000  C
  C60      1.0000 0.70370  0.59230  0.48170  Biso   1.000  C
  C61      1.0000 0.79630  0.09230  0.48170  Biso   1.000  C
  C62      1.0000 0.70370  0.40770  0.98170  Biso   1.000  C
  C63      1.0000 0.20370  0.09230  0.01830  Biso   1.000  C
  C64      1.0000 0.29630  0.40770  0.51830  Biso   1.000  C
  H25      1.0000 0.20140  0.83590  0.56580  Biso   1.000  H
  H26      1.0000 0.29860  0.66410  0.06580  Biso   1.000  H
  H27      1.0000 0.79860  0.83590  0.93420  Biso   1.000  H
  H28      1.0000 0.70140  0.66410  0.43420  Biso   1.000  H
  H29      1.0000 0.79860  0.16410  0.43420  Biso   1.000  H
  H30      1.0000 0.70140  0.33590  0.93420  Biso   1.000  H
  H31      1.0000 0.20140  0.16410  0.06580  Biso   1.000  H
  H32      1.0000 0.29860  0.33590  0.56580  Biso   1.000  H
  H33      1.0000 0.21570  0.87400  0.45270  Biso   1.000  H
  H34      1.0000 0.28430  0.62600  0.95270  Biso   1.000  H
  H35      1.0000 0.78430  0.87400  0.04730  Biso   1.000  H
  H36      1.0000 0.71570  0.62600  0.54730  Biso   1.000  H
  H37      1.0000 0.78430  0.12600  0.54730  Biso   1.000  H
  H38      1.0000 0.71570  0.37400  0.04730  Biso   1.000  H
  H39      1.0000 0.21570  0.12600  0.95270  Biso   1.000  H
  H40      1.0000 0.28430  0.37400  0.45270  Biso   1.000  H
  C65      1.0000 0.14820  0.96490  0.50540  Biso   1.000  C
  C66      1.0000 0.35180  0.53510  0.00540  Biso   1.000  C
  C67      1.0000 0.85180  0.96490  0.99460  Biso   1.000  C
  C68      1.0000 0.64820  0.53510  0.49460  Biso   1.000  C
  C69      1.0000 0.85180  0.03510  0.49460  Biso   1.000  C
  C70      1.0000 0.64820  0.46490  0.99460  Biso   1.000  C
  C71      1.0000 0.14820  0.03510  0.00540  Biso   1.000  C
  C72      1.0000 0.35180  0.46490  0.50540  Biso   1.000  C
  H41      1.0000 0.12480  0.90080  0.47430  Biso   1.000  H
  H42      1.0000 0.37520  0.59920  0.97430  Biso   1.000  H
  H43      1.0000 0.87520  0.90080  0.02570  Biso   1.000  H
  H44      1.0000 0.62480  0.59920  0.52570  Biso   1.000  H
  H45      1.0000 0.87520  0.09920  0.52570  Biso   1.000  H
  H46      1.0000 0.62480  0.40080  0.02570  Biso   1.000  H
  H47      1.0000 0.12480  0.09920  0.97430  Biso   1.000  H
  H48      1.0000 0.37520  0.40080  0.47430  Biso   1.000  H
  H49      1.0000 0.15080  0.03680  0.45810  Biso   1.000  H
  H50      1.0000 0.34920  0.46320  0.95810  Biso   1.000  H
  H51      1.0000 0.84920  0.03680  0.04190  Biso   1.000  H
  H52      1.0000 0.65080  0.46320  0.54190  Biso   1.000  H
  H53      1.0000 0.84920  0.96320  0.54190  Biso   1.000  H
  H54      1.0000 0.65080  0.53680  0.04190  Biso   1.000  H
  H55      1.0000 0.15080  0.96320  0.95810  Biso   1.000  H
  H56      1.0000 0.34920  0.53680  0.45810  Biso   1.000  H
  C73      1.0000 0.12210  0.01120  0.60250  Biso   1.000  C
  C74      1.0000 0.37790  0.48880  0.10250  Biso   1.000  C
  C75      1.0000 0.87790  0.01120  0.89750  Biso   1.000  C
  C76      1.0000 0.62210  0.48880  0.39750  Biso   1.000  C
  C77      1.0000 0.87790  0.98880  0.39750  Biso   1.000  C
  C78      1.0000 0.62210  0.51120  0.89750  Biso   1.000  C
  C79      1.0000 0.12210  0.98880  0.10250  Biso   1.000  C
  C80      1.0000 0.37790  0.51120  0.60250  Biso   1.000  C
  H57      1.0000 0.08470  0.03460  0.58710  Biso   1.000  H
  H58      1.0000 0.41530  0.46540  0.08710  Biso   1.000  H
  H59      1.0000 0.91530  0.03460  0.91290  Biso   1.000  H
  H60      1.0000 0.58470  0.46540  0.41290  Biso   1.000  H
  H61      1.0000 0.91530  0.96540  0.41290  Biso   1.000  H
  H62      1.0000 0.58470  0.53460  0.91290  Biso   1.000  H
  H63      1.0000 0.08470  0.96540  0.08710  Biso   1.000  H
  H64      1.0000 0.41530  0.53460  0.58710  Biso   1.000  H
  H65      1.0000 0.12100  0.94010  0.65070  Biso   1.000  H
  H66      1.0000 0.37900  0.55990  0.15070  Biso   1.000  H
  H67      1.0000 0.87900  0.94010  0.84930  Biso   1.000  H
  H68      1.0000 0.62100  0.55990  0.34930  Biso   1.000  H
  H69      1.0000 0.87900  0.05990  0.34930  Biso   1.000  H
  H70      1.0000 0.62100  0.44010  0.84930  Biso   1.000  H
  H71      1.0000 0.12100  0.05990  0.15070  Biso   1.000  H
  H72      1.0000 0.37900  0.44010  0.65070  Biso   1.000  H
  C81      1.0000 0.11670  0.14710  0.74840  Biso   1.000  C
  C82      1.0000 0.38330  0.35290  0.24840  Biso   1.000  C
  C83      1.0000 0.88330  0.14710  0.75160  Biso   1.000  C
  C84      1.0000 0.61670  0.35290  0.25160  Biso   1.000  C
  C85      1.0000 0.88330  0.85290  0.25160  Biso   1.000  C
  C86      1.0000 0.61670  0.64710  0.75160  Biso   1.000  C
  C87      1.0000 0.11670  0.85290  0.24840  Biso   1.000  C
  C88      1.0000 0.38330  0.64710  0.74840  Biso   1.000  C
  H73      1.0000 0.07960  0.16460  0.73040  Biso   1.000  H
  H74      1.0000 0.42040  0.33540  0.23040  Biso   1.000  H
  H75      1.0000 0.92040  0.16460  0.76960  Biso   1.000  H
  H76      1.0000 0.57960  0.33540  0.26960  Biso   1.000  H
  H77      1.0000 0.92040  0.83540  0.26960  Biso   1.000  H
  H78      1.0000 0.57960  0.66460  0.76960  Biso   1.000  H
  H79      1.0000 0.07960  0.83540  0.23040  Biso   1.000  H
  H80      1.0000 0.42040  0.66460  0.73040  Biso   1.000  H
  H81      1.0000 0.13160  0.21990  0.78420  Biso   1.000  H
  H82      1.0000 0.36840  0.28010  0.28420  Biso   1.000  H
  H83      1.0000 0.86840  0.21990  0.71580  Biso   1.000  H
  H84      1.0000 0.63160  0.28010  0.21580  Biso   1.000  H
  H85      1.0000 0.86840  0.78010  0.21580  Biso   1.000  H
  H86      1.0000 0.63160  0.71990  0.71580  Biso   1.000  H
  H87      1.0000 0.13160  0.78010  0.28420  Biso   1.000  H
  H88      1.0000 0.36840  0.71990  0.78420  Biso   1.000  H
  H89      1.0000 0.11820  0.07250  0.79180  Biso   1.000  H
  H90      1.0000 0.38180  0.42750  0.29180  Biso   1.000  H
  H91      1.0000 0.88180  0.07250  0.70820  Biso   1.000  H
  H92      1.0000 0.61820  0.42750  0.20820  Biso   1.000  H
  H93      1.0000 0.88180  0.92750  0.20820  Biso   1.000  H
  H94      1.0000 0.61820  0.57250  0.70820  Biso   1.000  H
  H95      1.0000 0.11820  0.92750  0.29180  Biso   1.000  H
  H96      1.0000 0.38180  0.57250  0.79180  Biso   1.000  H
  C89      1.0000 0.14630  0.24080  0.58640  Biso   1.000  C
  C90      1.0000 0.35370  0.25920  0.08640  Biso   1.000  C
  C91      1.0000 0.85370  0.24080  0.91360  Biso   1.000  C
  C92      1.0000 0.64630  0.25920  0.41360  Biso   1.000  C
  C93      1.0000 0.85370  0.75920  0.41360  Biso   1.000  C
  C94      1.0000 0.64630  0.74080  0.91360  Biso   1.000  C
  C95      1.0000 0.14630  0.75920  0.08640  Biso   1.000  C
  C96      1.0000 0.35370  0.74080  0.58640  Biso   1.000  C
  H97      1.0000 0.17020  0.22940  0.52870  Biso   1.000  H
  H98      1.0000 0.32980  0.27060  0.02870  Biso   1.000  H
  H99      1.0000 0.82980  0.22940  0.97130  Biso   1.000  H
  H100     1.0000 0.67020  0.27060  0.47130  Biso   1.000  H
  H101     1.0000 0.82980  0.77060  0.47130  Biso   1.000  H
  H102     1.0000 0.67020  0.72940  0.97130  Biso   1.000  H
  H103     1.0000 0.17020  0.77060  0.02870  Biso   1.000  H
  H104     1.0000 0.32980  0.72940  0.52870  Biso   1.000  H
  H105     1.0000 0.15750  0.31500  0.62500  Biso   1.000  H
  H106     1.0000 0.34250  0.18500  0.12500  Biso   1.000  H
  H107     1.0000 0.84250  0.31500  0.87500  Biso   1.000  H
  H108     1.0000 0.65750  0.18500  0.37500  Biso   1.000  H
  H109     1.0000 0.84250  0.68500  0.37500  Biso   1.000  H
  H110     1.0000 0.65750  0.81500  0.87500  Biso   1.000  H
  H111     1.0000 0.15750  0.68500  0.12500  Biso   1.000  H
  H112     1.0000 0.34250  0.81500  0.62500  Biso   1.000  H
  H113     1.0000 0.10980  0.25310  0.56230  Biso   1.000  H
  H114     1.0000 0.39020  0.24690  0.06230  Biso   1.000  H
  H115     1.0000 0.89020  0.25310  0.93770  Biso   1.000  H
  H116     1.0000 0.60980  0.24690  0.43770  Biso   1.000  H
  H117     1.0000 0.89020  0.74690  0.43770  Biso   1.000  H
  H118     1.0000 0.60980  0.75310  0.93770  Biso   1.000  H
  H119     1.0000 0.10980  0.74690  0.06230  Biso   1.000  H
  H120     1.0000 0.39020  0.75310  0.56230  Biso   1.000  H
