data_image0
_cell_length_a       25.686
_cell_length_b       8.972
_cell_length_c       18.021
_cell_angle_alpha    90
_cell_angle_beta     105.782
_cell_angle_gamma    90

_symmetry_space_group_name_H-M    "P 1"
_symmetry_int_tables_number       1

loop_
  _symmetry_equiv_pos_as_xyz
  'x, y, z'

loop_
  _atom_site_label
  _atom_site_occupancy
  _atom_site_fract_x
  _atom_site_fract_y
  _atom_site_fract_z
  _atom_site_thermal_displace_type
  _atom_site_B_iso_or_equiv
  _atom_site_type_symbol
  Cu1      1.0000 0.30186  0.30456  0.55814  Biso   1.000  Cu
  Cu2      1.0000 0.80186  0.80456  0.55814  Biso   1.000  Cu
  Cu3      1.0000 0.69814  0.30456  0.94186  Biso   1.000  Cu
  Cu4      1.0000 0.19814  0.80456  0.94186  Biso   1.000  Cu
  Cu5      1.0000 0.69814  0.69544  0.44186  Biso   1.000  Cu
  Cu6      1.0000 0.19814  0.19544  0.44186  Biso   1.000  Cu
  Cu7      1.0000 0.30186  0.69544  0.05814  Biso   1.000  Cu
  Cu8      1.0000 0.80186  0.19544  0.05814  Biso   1.000  Cu
  Cu9      1.0000 0.45657  0.02909  0.52386  Biso   1.000  Cu
  Cu10     1.0000 0.95657  0.52909  0.52386  Biso   1.000  Cu
  Cu11     1.0000 0.54343  0.02909  0.97614  Biso   1.000  Cu
  Cu12     1.0000 0.04343  0.52909  0.97614  Biso   1.000  Cu
  Cu13     1.0000 0.54343  0.97091  0.47614  Biso   1.000  Cu
  Cu14     1.0000 0.04343  0.47091  0.47614  Biso   1.000  Cu
  Cu15     1.0000 0.45657  0.97091  0.02386  Biso   1.000  Cu
  Cu16     1.0000 0.95657  0.47091  0.02386  Biso   1.000  Cu
  O1       1.0000 0.25020  0.36120  0.46320  Biso   1.000  O
  O2       1.0000 0.75020  0.86120  0.46320  Biso   1.000  O
  O3       1.0000 0.74980  0.36120  0.03680  Biso   1.000  O
  O4       1.0000 0.24980  0.86120  0.03680  Biso   1.000  O
  O5       1.0000 0.74980  0.63880  0.53680  Biso   1.000  O
  O6       1.0000 0.24980  0.13880  0.53680  Biso   1.000  O
  O7       1.0000 0.25020  0.63880  0.96320  Biso   1.000  O
  O8       1.0000 0.75020  0.13880  0.96320  Biso   1.000  O
  O9       1.0000 0.35126  0.20460  0.64590  Biso   1.000  O
  O10      1.0000 0.85126  0.70460  0.64590  Biso   1.000  O
  O11      1.0000 0.64874  0.20460  0.85410  Biso   1.000  O
  O12      1.0000 0.14874  0.70460  0.85410  Biso   1.000  O
  O13      1.0000 0.64874  0.79540  0.35410  Biso   1.000  O
  O14      1.0000 0.14874  0.29540  0.35410  Biso   1.000  O
  O15      1.0000 0.35126  0.79540  0.14590  Biso   1.000  O
  O16      1.0000 0.85126  0.29540  0.14590  Biso   1.000  O
  O17      1.0000 0.38789  0.09220  0.56240  Biso   1.000  O
  O18      1.0000 0.88789  0.59220  0.56240  Biso   1.000  O
  O19      1.0000 0.61211  0.09220  0.93760  Biso   1.000  O
  O20      1.0000 0.11211  0.59220  0.93760  Biso   1.000  O
  O21      1.0000 0.61211  0.90780  0.43760  Biso   1.000  O
  O22      1.0000 0.11211  0.40780  0.43760  Biso   1.000  O
  O23      1.0000 0.38789  0.90780  0.06240  Biso   1.000  O
  O24      1.0000 0.88789  0.40780  0.06240  Biso   1.000  O
  O25      1.0000 0.48175  0.86010  0.59450  Biso   1.000  O
  O26      1.0000 0.98175  0.36010  0.59450  Biso   1.000  O
  O27      1.0000 0.51825  0.86010  0.90550  Biso   1.000  O
  O28      1.0000 0.01825  0.36010  0.90550  Biso   1.000  O
  O29      1.0000 0.51825  0.13990  0.40550  Biso   1.000  O
  O30      1.0000 0.01825  0.63990  0.40550  Biso   1.000  O
  O31      1.0000 0.48175  0.13990  0.09450  Biso   1.000  O
  O32      1.0000 0.98175  0.63990  0.09450  Biso   1.000  O
  O33      1.0000 0.55563  0.81480  0.55620  Biso   1.000  O
  O34      1.0000 0.05563  0.31480  0.55620  Biso   1.000  O
  O35      1.0000 0.44437  0.81480  0.94380  Biso   1.000  O
  O36      1.0000 0.94437  0.31480  0.94380  Biso   1.000  O
  O37      1.0000 0.44437  0.18520  0.44380  Biso   1.000  O
  O38      1.0000 0.94437  0.68520  0.44380  Biso   1.000  O
  O39      1.0000 0.55563  0.18520  0.05620  Biso   1.000  O
  O40      1.0000 0.05563  0.68520  0.05620  Biso   1.000  O
  O41      1.0000 0.42008  0.88530  0.44450  Biso   1.000  O
  O42      1.0000 0.92008  0.38530  0.44450  Biso   1.000  O
  O43      1.0000 0.57992  0.88530  0.05550  Biso   1.000  O
  O44      1.0000 0.07992  0.38530  0.05550  Biso   1.000  O
  O45      1.0000 0.57992  0.11470  0.55550  Biso   1.000  O
  O46      1.0000 0.07992  0.61470  0.55550  Biso   1.000  O
  O47      1.0000 0.42008  0.11470  0.94450  Biso   1.000  O
  O48      1.0000 0.92008  0.61470  0.94450  Biso   1.000  O
  O49      1.0000 0.49313  0.83650  0.40380  Biso   1.000  O
  O50      1.0000 0.99313  0.33650  0.40380  Biso   1.000  O
  O51      1.0000 0.50687  0.83650  0.09620  Biso   1.000  O
  O52      1.0000 0.00687  0.33650  0.09620  Biso   1.000  O
  O53      1.0000 0.50687  0.16350  0.59620  Biso   1.000  O
  O54      1.0000 0.00687  0.66350  0.59620  Biso   1.000  O
  O55      1.0000 0.49313  0.16350  0.90380  Biso   1.000  O
  O56      1.0000 0.99313  0.66350  0.90380  Biso   1.000  O
  N1       1.0000 0.35282  0.48630  0.56500  Biso   1.000  N
  N2       1.0000 0.85282  0.98630  0.56500  Biso   1.000  N
  N3       1.0000 0.64718  0.48630  0.93500  Biso   1.000  N
  N4       1.0000 0.14718  0.98630  0.93500  Biso   1.000  N
  N5       1.0000 0.64718  0.51370  0.43500  Biso   1.000  N
  N6       1.0000 0.14718  0.01370  0.43500  Biso   1.000  N
  N7       1.0000 0.35282  0.51370  0.06500  Biso   1.000  N
  N8       1.0000 0.85282  0.01370  0.06500  Biso   1.000  N
  C1       1.0000 0.37800  0.53040  0.64550  Biso   1.000  C
  C2       1.0000 0.87800  0.03040  0.64550  Biso   1.000  C
  C3       1.0000 0.62200  0.53040  0.85450  Biso   1.000  C
  C4       1.0000 0.12200  0.03040  0.85450  Biso   1.000  C
  C5       1.0000 0.62200  0.46960  0.35450  Biso   1.000  C
  C6       1.0000 0.12200  0.96960  0.35450  Biso   1.000  C
  C7       1.0000 0.37800  0.46960  0.14550  Biso   1.000  C
  C8       1.0000 0.87800  0.96960  0.14550  Biso   1.000  C
  H1       1.0000 0.40260  0.61140  0.64660  Biso   1.000  H
  H2       1.0000 0.90260  0.11140  0.64660  Biso   1.000  H
  H3       1.0000 0.59740  0.61140  0.85340  Biso   1.000  H
  H4       1.0000 0.09740  0.11140  0.85340  Biso   1.000  H
  H5       1.0000 0.59740  0.38860  0.35340  Biso   1.000  H
  H6       1.0000 0.09740  0.88860  0.35340  Biso   1.000  H
  H7       1.0000 0.40260  0.38860  0.14660  Biso   1.000  H
  H8       1.0000 0.90260  0.88860  0.14660  Biso   1.000  H
  H9       1.0000 0.39730  0.44720  0.67340  Biso   1.000  H
  H10      1.0000 0.89730  0.94720  0.67340  Biso   1.000  H
  H11      1.0000 0.60270  0.44720  0.82660  Biso   1.000  H
  H12      1.0000 0.10270  0.94720  0.82660  Biso   1.000  H
  H13      1.0000 0.60270  0.55280  0.32660  Biso   1.000  H
  H14      1.0000 0.10270  0.05280  0.32660  Biso   1.000  H
  H15      1.0000 0.39730  0.55280  0.17340  Biso   1.000  H
  H16      1.0000 0.89730  0.05280  0.17340  Biso   1.000  H
  H17      1.0000 0.35040  0.56140  0.66890  Biso   1.000  H
  H18      1.0000 0.85040  0.06140  0.66890  Biso   1.000  H
  H19      1.0000 0.64960  0.56140  0.83110  Biso   1.000  H
  H20      1.0000 0.14960  0.06140  0.83110  Biso   1.000  H
  H21      1.0000 0.64960  0.43860  0.33110  Biso   1.000  H
  H22      1.0000 0.14960  0.93860  0.33110  Biso   1.000  H
  H23      1.0000 0.35040  0.43860  0.16890  Biso   1.000  H
  H24      1.0000 0.85040  0.93860  0.16890  Biso   1.000  H
  C9       1.0000 0.39660  0.44430  0.52960  Biso   1.000  C
  C10      1.0000 0.89660  0.94430  0.52960  Biso   1.000  C
  C11      1.0000 0.60340  0.44430  0.97040  Biso   1.000  C
  C12      1.0000 0.10340  0.94430  0.97040  Biso   1.000  C
  C13      1.0000 0.60340  0.55570  0.47040  Biso   1.000  C
  C14      1.0000 0.10340  0.05570  0.47040  Biso   1.000  C
  C15      1.0000 0.39660  0.55570  0.02960  Biso   1.000  C
  C16      1.0000 0.89660  0.05570  0.02960  Biso   1.000  C
  H25      1.0000 0.41810  0.53050  0.52650  Biso   1.000  H
  H26      1.0000 0.91810  0.03050  0.52650  Biso   1.000  H
  H27      1.0000 0.58190  0.53050  0.97350  Biso   1.000  H
  H28      1.0000 0.08190  0.03050  0.97350  Biso   1.000  H
  H29      1.0000 0.58190  0.46950  0.47350  Biso   1.000  H
  H30      1.0000 0.08190  0.96950  0.47350  Biso   1.000  H
  H31      1.0000 0.41810  0.46950  0.02650  Biso   1.000  H
  H32      1.0000 0.91810  0.96950  0.02650  Biso   1.000  H
  H33      1.0000 0.38100  0.40570  0.47870  Biso   1.000  H
  H34      1.0000 0.88100  0.90570  0.47870  Biso   1.000  H
  H35      1.0000 0.61900  0.40570  0.02130  Biso   1.000  H
  H36      1.0000 0.11900  0.90570  0.02130  Biso   1.000  H
  H37      1.0000 0.61900  0.59430  0.52130  Biso   1.000  H
  H38      1.0000 0.11900  0.09430  0.52130  Biso   1.000  H
  H39      1.0000 0.38100  0.59430  0.97870  Biso   1.000  H
  H40      1.0000 0.88100  0.09430  0.97870  Biso   1.000  H
  H41      1.0000 0.41910  0.36940  0.56060  Biso   1.000  H
  H42      1.0000 0.91910  0.86940  0.56060  Biso   1.000  H
  H43      1.0000 0.58090  0.36940  0.93940  Biso   1.000  H
  H44      1.0000 0.08090  0.86940  0.93940  Biso   1.000  H
  H45      1.0000 0.58090  0.63060  0.43940  Biso   1.000  H
  H46      1.0000 0.08090  0.13060  0.43940  Biso   1.000  H
  H47      1.0000 0.41910  0.63060  0.06060  Biso   1.000  H
  H48      1.0000 0.91910  0.13060  0.06060  Biso   1.000  H
  C17      1.0000 0.32330  0.62010  0.52560  Biso   1.000  C
  C18      1.0000 0.82330  0.12010  0.52560  Biso   1.000  C
  C19      1.0000 0.67670  0.62010  0.97440  Biso   1.000  C
  C20      1.0000 0.17670  0.12010  0.97440  Biso   1.000  C
  C21      1.0000 0.67670  0.37990  0.47440  Biso   1.000  C
  C22      1.0000 0.17670  0.87990  0.47440  Biso   1.000  C
  C23      1.0000 0.32330  0.37990  0.02560  Biso   1.000  C
  C24      1.0000 0.82330  0.87990  0.02560  Biso   1.000  C
  H49      1.0000 0.34930  0.69940  0.52750  Biso   1.000  H
  H50      1.0000 0.84930  0.19940  0.52750  Biso   1.000  H
  H51      1.0000 0.65070  0.69940  0.97250  Biso   1.000  H
  H52      1.0000 0.15070  0.19940  0.97250  Biso   1.000  H
  H53      1.0000 0.65070  0.30060  0.47250  Biso   1.000  H
  H54      1.0000 0.15070  0.80060  0.47250  Biso   1.000  H
  H55      1.0000 0.34930  0.30060  0.02750  Biso   1.000  H
  H56      1.0000 0.84930  0.80060  0.02750  Biso   1.000  H
  H57      1.0000 0.29850  0.65340  0.55420  Biso   1.000  H
  H58      1.0000 0.79850  0.15340  0.55420  Biso   1.000  H
  H59      1.0000 0.70150  0.65340  0.94580  Biso   1.000  H
  H60      1.0000 0.20150  0.15340  0.94580  Biso   1.000  H
  H61      1.0000 0.70150  0.34660  0.44580  Biso   1.000  H
  H62      1.0000 0.20150  0.84660  0.44580  Biso   1.000  H
  H63      1.0000 0.29850  0.34660  0.05420  Biso   1.000  H
  H64      1.0000 0.79850  0.84660  0.05420  Biso   1.000  H
  C25      1.0000 0.29130  0.59570  0.44140  Biso   1.000  C
  C26      1.0000 0.79130  0.09570  0.44140  Biso   1.000  C
  C27      1.0000 0.70870  0.59570  0.05860  Biso   1.000  C
  C28      1.0000 0.20870  0.09570  0.05860  Biso   1.000  C
  C29      1.0000 0.70870  0.40430  0.55860  Biso   1.000  C
  C30      1.0000 0.20870  0.90430  0.55860  Biso   1.000  C
  C31      1.0000 0.29130  0.40430  0.94140  Biso   1.000  C
  C32      1.0000 0.79130  0.90430  0.94140  Biso   1.000  C
  H65      1.0000 0.28210  0.69190  0.41680  Biso   1.000  H
  H66      1.0000 0.78210  0.19190  0.41680  Biso   1.000  H
  H67      1.0000 0.71790  0.69190  0.08320  Biso   1.000  H
  H68      1.0000 0.21790  0.19190  0.08320  Biso   1.000  H
  H69      1.0000 0.71790  0.30810  0.58320  Biso   1.000  H
  H70      1.0000 0.21790  0.80810  0.58320  Biso   1.000  H
  H71      1.0000 0.28210  0.30810  0.91680  Biso   1.000  H
  H72      1.0000 0.78210  0.80810  0.91680  Biso   1.000  H
  H73      1.0000 0.31410  0.54390  0.41480  Biso   1.000  H
  H74      1.0000 0.81410  0.04390  0.41480  Biso   1.000  H
  H75      1.0000 0.68590  0.54390  0.08520  Biso   1.000  H
  H76      1.0000 0.18590  0.04390  0.08520  Biso   1.000  H
  H77      1.0000 0.68590  0.45610  0.58520  Biso   1.000  H
  H78      1.0000 0.18590  0.95610  0.58520  Biso   1.000  H
  H79      1.0000 0.31410  0.45610  0.91480  Biso   1.000  H
  H80      1.0000 0.81410  0.95610  0.91480  Biso   1.000  H
  C33      1.0000 0.23990  0.50680  0.43280  Biso   1.000  C
  C34      1.0000 0.73990  0.00680  0.43280  Biso   1.000  C
  C35      1.0000 0.76010  0.50680  0.06720  Biso   1.000  C
  C36      1.0000 0.26010  0.00680  0.06720  Biso   1.000  C
  C37      1.0000 0.76010  0.49320  0.56720  Biso   1.000  C
  C38      1.0000 0.26010  0.99320  0.56720  Biso   1.000  C
  C39      1.0000 0.23990  0.49320  0.93280  Biso   1.000  C
  C40      1.0000 0.73990  0.99320  0.93280  Biso   1.000  C
  H81      1.0000 0.21690  0.55860  0.45910  Biso   1.000  H
  H82      1.0000 0.71690  0.05860  0.45910  Biso   1.000  H
  H83      1.0000 0.78310  0.55860  0.04090  Biso   1.000  H
  H84      1.0000 0.28310  0.05860  0.04090  Biso   1.000  H
  H85      1.0000 0.78310  0.44140  0.54090  Biso   1.000  H
  H86      1.0000 0.28310  0.94140  0.54090  Biso   1.000  H
  H87      1.0000 0.21690  0.44140  0.95910  Biso   1.000  H
  H88      1.0000 0.71690  0.94140  0.95910  Biso   1.000  H
  H89      1.0000 0.22060  0.50050  0.37860  Biso   1.000  H
  H90      1.0000 0.72060  0.00050  0.37860  Biso   1.000  H
  H91      1.0000 0.77940  0.50050  0.12140  Biso   1.000  H
  H92      1.0000 0.27940  0.00050  0.12140  Biso   1.000  H
  H93      1.0000 0.77940  0.49950  0.62140  Biso   1.000  H
  H94      1.0000 0.27940  0.99950  0.62140  Biso   1.000  H
  H95      1.0000 0.22060  0.49950  0.87860  Biso   1.000  H
  H96      1.0000 0.72060  0.99950  0.87860  Biso   1.000  H
  C41      1.0000 0.38370  0.11050  0.62890  Biso   1.000  C
  C42      1.0000 0.88370  0.61050  0.62890  Biso   1.000  C
  C43      1.0000 0.61630  0.11050  0.87110  Biso   1.000  C
  C44      1.0000 0.11630  0.61050  0.87110  Biso   1.000  C
  C45      1.0000 0.61630  0.88950  0.37110  Biso   1.000  C
  C46      1.0000 0.11630  0.38950  0.37110  Biso   1.000  C
  C47      1.0000 0.38370  0.88950  0.12890  Biso   1.000  C
  C48      1.0000 0.88370  0.38950  0.12890  Biso   1.000  C
  C49      1.0000 0.41770  0.01920  0.69590  Biso   1.000  C
  C50      1.0000 0.91770  0.51920  0.69590  Biso   1.000  C
  C51      1.0000 0.58230  0.01920  0.80410  Biso   1.000  C
  C52      1.0000 0.08230  0.51920  0.80410  Biso   1.000  C
  C53      1.0000 0.58230  0.98080  0.30410  Biso   1.000  C
  C54      1.0000 0.08230  0.48080  0.30410  Biso   1.000  C
  C55      1.0000 0.41770  0.98080  0.19590  Biso   1.000  C
  C56      1.0000 0.91770  0.48080  0.19590  Biso   1.000  C
  H97      1.0000 0.41660  0.91610  0.68130  Biso   1.000  H
  H98      1.0000 0.91660  0.41610  0.68130  Biso   1.000  H
  H99      1.0000 0.58340  0.91610  0.81870  Biso   1.000  H
  H100     1.0000 0.08340  0.41610  0.81870  Biso   1.000  H
  H101     1.0000 0.58340  0.08390  0.31870  Biso   1.000  H
  H102     1.0000 0.08340  0.58390  0.31870  Biso   1.000  H
  H103     1.0000 0.41660  0.08390  0.18130  Biso   1.000  H
  H104     1.0000 0.91660  0.58390  0.18130  Biso   1.000  H
  H105     1.0000 0.40350  0.02990  0.73970  Biso   1.000  H
  H106     1.0000 0.90350  0.52990  0.73970  Biso   1.000  H
  H107     1.0000 0.59650  0.02990  0.76030  Biso   1.000  H
  H108     1.0000 0.09650  0.52990  0.76030  Biso   1.000  H
  H109     1.0000 0.59650  0.97010  0.26030  Biso   1.000  H
  H110     1.0000 0.09650  0.47010  0.26030  Biso   1.000  H
  H111     1.0000 0.40350  0.97010  0.23970  Biso   1.000  H
  H112     1.0000 0.90350  0.47010  0.23970  Biso   1.000  H
  H113     1.0000 0.45440  0.05400  0.70900  Biso   1.000  H
  H114     1.0000 0.95440  0.55400  0.70900  Biso   1.000  H
  H115     1.0000 0.54560  0.05400  0.79100  Biso   1.000  H
  H116     1.0000 0.04560  0.55400  0.79100  Biso   1.000  H
  H117     1.0000 0.54560  0.94600  0.29100  Biso   1.000  H
  H118     1.0000 0.04560  0.44600  0.29100  Biso   1.000  H
  H119     1.0000 0.45440  0.94600  0.20900  Biso   1.000  H
  H120     1.0000 0.95440  0.44600  0.20900  Biso   1.000  H
  C57      1.0000 0.52520  0.79170  0.59820  Biso   1.000  C
  C58      1.0000 0.02520  0.29170  0.59820  Biso   1.000  C
  C59      1.0000 0.47480  0.79170  0.90180  Biso   1.000  C
  C60      1.0000 0.97480  0.29170  0.90180  Biso   1.000  C
  C61      1.0000 0.47480  0.20830  0.40180  Biso   1.000  C
  C62      1.0000 0.97480  0.70830  0.40180  Biso   1.000  C
  C63      1.0000 0.52520  0.20830  0.09820  Biso   1.000  C
  C64      1.0000 0.02520  0.70830  0.09820  Biso   1.000  C
  C65      1.0000 0.54050  0.67300  0.65890  Biso   1.000  C
  C66      1.0000 0.04050  0.17300  0.65890  Biso   1.000  C
  C67      1.0000 0.45950  0.67300  0.84110  Biso   1.000  C
  C68      1.0000 0.95950  0.17300  0.84110  Biso   1.000  C
  C69      1.0000 0.45950  0.32700  0.34110  Biso   1.000  C
  C70      1.0000 0.95950  0.82700  0.34110  Biso   1.000  C
  C71      1.0000 0.54050  0.32700  0.15890  Biso   1.000  C
  C72      1.0000 0.04050  0.82700  0.15890  Biso   1.000  C
  H121     1.0000 0.51550  0.59150  0.64560  Biso   1.000  H
  H122     1.0000 0.01550  0.09150  0.64560  Biso   1.000  H
  H123     1.0000 0.48450  0.59150  0.85440  Biso   1.000  H
  H124     1.0000 0.98450  0.09150  0.85440  Biso   1.000  H
  H125     1.0000 0.48450  0.40850  0.35440  Biso   1.000  H
  H126     1.0000 0.98450  0.90850  0.35440  Biso   1.000  H
  H127     1.0000 0.51550  0.40850  0.14560  Biso   1.000  H
  H128     1.0000 0.01550  0.90850  0.14560  Biso   1.000  H
  H129     1.0000 0.53940  0.71340  0.70780  Biso   1.000  H
  H130     1.0000 0.03940  0.21340  0.70780  Biso   1.000  H
  H131     1.0000 0.46060  0.71340  0.79220  Biso   1.000  H
  H132     1.0000 0.96060  0.21340  0.79220  Biso   1.000  H
  H133     1.0000 0.46060  0.28660  0.29220  Biso   1.000  H
  H134     1.0000 0.96060  0.78660  0.29220  Biso   1.000  H
  H135     1.0000 0.53940  0.28660  0.20780  Biso   1.000  H
  H136     1.0000 0.03940  0.78660  0.20780  Biso   1.000  H
  H137     1.0000 0.57640  0.63800  0.66230  Biso   1.000  H
  H138     1.0000 0.07640  0.13800  0.66230  Biso   1.000  H
  H139     1.0000 0.42360  0.63800  0.83770  Biso   1.000  H
  H140     1.0000 0.92360  0.13800  0.83770  Biso   1.000  H
  H141     1.0000 0.42360  0.36200  0.33770  Biso   1.000  H
  H142     1.0000 0.92360  0.86200  0.33770  Biso   1.000  H
  H143     1.0000 0.57640  0.36200  0.16230  Biso   1.000  H
  H144     1.0000 0.07640  0.86200  0.16230  Biso   1.000  H
  C73      1.0000 0.44390  0.82010  0.40230  Biso   1.000  C
  C74      1.0000 0.94390  0.32010  0.40230  Biso   1.000  C
  C75      1.0000 0.55610  0.82010  0.09770  Biso   1.000  C
  C76      1.0000 0.05610  0.32010  0.09770  Biso   1.000  C
  C77      1.0000 0.55610  0.17990  0.59770  Biso   1.000  C
  C78      1.0000 0.05610  0.67990  0.59770  Biso   1.000  C
  C79      1.0000 0.44390  0.17990  0.90230  Biso   1.000  C
  C80      1.0000 0.94390  0.67990  0.90230  Biso   1.000  C
  C81      1.0000 0.41120  0.70880  0.34600  Biso   1.000  C
  C82      1.0000 0.91120  0.20880  0.34600  Biso   1.000  C
  C83      1.0000 0.58880  0.70880  0.15400  Biso   1.000  C
  C84      1.0000 0.08880  0.20880  0.15400  Biso   1.000  C
  C85      1.0000 0.58880  0.29120  0.65400  Biso   1.000  C
  C86      1.0000 0.08880  0.79120  0.65400  Biso   1.000  C
  C87      1.0000 0.41120  0.29120  0.84600  Biso   1.000  C
  C88      1.0000 0.91120  0.79120  0.84600  Biso   1.000  C
  H145     1.0000 0.39920  0.63060  0.37380  Biso   1.000  H
  H146     1.0000 0.89920  0.13060  0.37380  Biso   1.000  H
  H147     1.0000 0.60080  0.63060  0.12620  Biso   1.000  H
  H148     1.0000 0.10080  0.13060  0.12620  Biso   1.000  H
  H149     1.0000 0.60080  0.36940  0.62620  Biso   1.000  H
  H150     1.0000 0.10080  0.86940  0.62620  Biso   1.000  H
  H151     1.0000 0.39920  0.36940  0.87380  Biso   1.000  H
  H152     1.0000 0.89920  0.86940  0.87380  Biso   1.000  H
  H153     1.0000 0.43320  0.66720  0.31580  Biso   1.000  H
  H154     1.0000 0.93320  0.16720  0.31580  Biso   1.000  H
  H155     1.0000 0.56680  0.66720  0.18420  Biso   1.000  H
  H156     1.0000 0.06680  0.16720  0.18420  Biso   1.000  H
  H157     1.0000 0.56680  0.33280  0.68420  Biso   1.000  H
  H158     1.0000 0.06680  0.83280  0.68420  Biso   1.000  H
  H159     1.0000 0.43320  0.33280  0.81580  Biso   1.000  H
  H160     1.0000 0.93320  0.83280  0.81580  Biso   1.000  H
  H161     1.0000 0.38040  0.75760  0.31260  Biso   1.000  H
  H162     1.0000 0.88040  0.25760  0.31260  Biso   1.000  H
  H163     1.0000 0.61960  0.75760  0.18740  Biso   1.000  H
  H164     1.0000 0.11960  0.25760  0.18740  Biso   1.000  H
  H165     1.0000 0.61960  0.24240  0.68740  Biso   1.000  H
  H166     1.0000 0.11960  0.74240  0.68740  Biso   1.000  H
  H167     1.0000 0.38040  0.24240  0.81260  Biso   1.000  H
  H168     1.0000 0.88040  0.74240  0.81260  Biso   1.000  H
  O57      1.0000 0.25794  0.43120  0.64720  Biso   1.000  O
  O58      1.0000 0.75794  0.93120  0.64720  Biso   1.000  O
  O59      1.0000 0.74206  0.43120  0.85280  Biso   1.000  O
  O60      1.0000 0.24206  0.93120  0.85280  Biso   1.000  O
  O61      1.0000 0.74206  0.56880  0.35280  Biso   1.000  O
  O62      1.0000 0.24206  0.06880  0.35280  Biso   1.000  O
  O63      1.0000 0.25794  0.56880  0.14720  Biso   1.000  O
  O64      1.0000 0.75794  0.06880  0.14720  Biso   1.000  O
  C89      1.0000 0.26300  0.34090  0.71750  Biso   1.000  C
  C90      1.0000 0.76300  0.84090  0.71750  Biso   1.000  C
  C91      1.0000 0.73700  0.34090  0.78250  Biso   1.000  C
  C92      1.0000 0.23700  0.84090  0.78250  Biso   1.000  C
  C93      1.0000 0.73700  0.65910  0.28250  Biso   1.000  C
  C94      1.0000 0.23700  0.15910  0.28250  Biso   1.000  C
  C95      1.0000 0.26300  0.65910  0.21750  Biso   1.000  C
  C96      1.0000 0.76300  0.15910  0.21750  Biso   1.000  C
  H169     1.0000 0.28110  0.39830  0.76280  Biso   1.000  H
  H170     1.0000 0.78110  0.89830  0.76280  Biso   1.000  H
  H171     1.0000 0.71890  0.39830  0.73720  Biso   1.000  H
  H172     1.0000 0.21890  0.89830  0.73720  Biso   1.000  H
  H173     1.0000 0.71890  0.60170  0.23720  Biso   1.000  H
  H174     1.0000 0.21890  0.10170  0.23720  Biso   1.000  H
  H175     1.0000 0.28110  0.60170  0.26280  Biso   1.000  H
  H176     1.0000 0.78110  0.10170  0.26280  Biso   1.000  H
  H177     1.0000 0.28430  0.25240  0.71590  Biso   1.000  H
  H178     1.0000 0.78430  0.75240  0.71590  Biso   1.000  H
  H179     1.0000 0.71570  0.25240  0.78410  Biso   1.000  H
  H180     1.0000 0.21570  0.75240  0.78410  Biso   1.000  H
  H181     1.0000 0.71570  0.74760  0.28410  Biso   1.000  H
  H182     1.0000 0.21570  0.24760  0.28410  Biso   1.000  H
  H183     1.0000 0.28430  0.74760  0.21590  Biso   1.000  H
  H184     1.0000 0.78430  0.24760  0.21590  Biso   1.000  H
  C97      1.0000 0.20700  0.29680  0.72200  Biso   1.000  C
  C98      1.0000 0.70700  0.79680  0.72200  Biso   1.000  C
  C99      1.0000 0.79300  0.29680  0.77800  Biso   1.000  C
  C100     1.0000 0.29300  0.79680  0.77800  Biso   1.000  C
  C101     1.0000 0.79300  0.70320  0.27800  Biso   1.000  C
  C102     1.0000 0.29300  0.20320  0.27800  Biso   1.000  C
  C103     1.0000 0.20700  0.70320  0.22200  Biso   1.000  C
  C104     1.0000 0.70700  0.20320  0.22200  Biso   1.000  C
  H185     1.0000 0.19530  0.20380  0.69520  Biso   1.000  H
  H186     1.0000 0.69530  0.70380  0.69520  Biso   1.000  H
  H187     1.0000 0.80470  0.20380  0.80480  Biso   1.000  H
  H188     1.0000 0.30470  0.70380  0.80480  Biso   1.000  H
  H189     1.0000 0.80470  0.79620  0.30480  Biso   1.000  H
  H190     1.0000 0.30470  0.29620  0.30480  Biso   1.000  H
  H191     1.0000 0.19530  0.79620  0.19520  Biso   1.000  H
  H192     1.0000 0.69530  0.29620  0.19520  Biso   1.000  H
  H193     1.0000 0.20540  0.28850  0.77500  Biso   1.000  H
  H194     1.0000 0.70540  0.78850  0.77500  Biso   1.000  H
  H195     1.0000 0.79460  0.28850  0.72500  Biso   1.000  H
  H196     1.0000 0.29460  0.78850  0.72500  Biso   1.000  H
  H197     1.0000 0.79460  0.71150  0.22500  Biso   1.000  H
  H198     1.0000 0.29460  0.21150  0.22500  Biso   1.000  H
  H199     1.0000 0.20540  0.71150  0.27500  Biso   1.000  H
  H200     1.0000 0.70540  0.21150  0.27500  Biso   1.000  H
  C105     1.0000 0.17490  0.42570  0.68190  Biso   1.000  C
  C106     1.0000 0.67490  0.92570  0.68190  Biso   1.000  C
  C107     1.0000 0.82510  0.42570  0.81810  Biso   1.000  C
  C108     1.0000 0.32510  0.92570  0.81810  Biso   1.000  C
  C109     1.0000 0.82510  0.57430  0.31810  Biso   1.000  C
  C110     1.0000 0.32510  0.07430  0.31810  Biso   1.000  C
  C111     1.0000 0.17490  0.57430  0.18190  Biso   1.000  C
  C112     1.0000 0.67490  0.07430  0.18190  Biso   1.000  C
  H201     1.0000 0.17810  0.51080  0.71610  Biso   1.000  H
  H202     1.0000 0.67810  0.01080  0.71610  Biso   1.000  H
  H203     1.0000 0.82190  0.51080  0.78390  Biso   1.000  H
  H204     1.0000 0.32190  0.01080  0.78390  Biso   1.000  H
  H205     1.0000 0.82190  0.48920  0.28390  Biso   1.000  H
  H206     1.0000 0.32190  0.98920  0.28390  Biso   1.000  H
  H207     1.0000 0.17810  0.48920  0.21610  Biso   1.000  H
  H208     1.0000 0.67810  0.98920  0.21610  Biso   1.000  H
  H209     1.0000 0.13700  0.39980  0.66200  Biso   1.000  H
  H210     1.0000 0.63700  0.89980  0.66200  Biso   1.000  H
  H211     1.0000 0.86300  0.39980  0.83800  Biso   1.000  H
  H212     1.0000 0.36300  0.89980  0.83800  Biso   1.000  H
  H213     1.0000 0.86300  0.60020  0.33800  Biso   1.000  H
  H214     1.0000 0.36300  0.10020  0.33800  Biso   1.000  H
  H215     1.0000 0.13700  0.60020  0.16200  Biso   1.000  H
  H216     1.0000 0.63700  0.10020  0.16200  Biso   1.000  H
  C113     1.0000 0.20020  0.45630  0.61820  Biso   1.000  C
  C114     1.0000 0.70020  0.95630  0.61820  Biso   1.000  C
  C115     1.0000 0.79980  0.45630  0.88180  Biso   1.000  C
  C116     1.0000 0.29980  0.95630  0.88180  Biso   1.000  C
  C117     1.0000 0.79980  0.54370  0.38180  Biso   1.000  C
  C118     1.0000 0.29980  0.04370  0.38180  Biso   1.000  C
  C119     1.0000 0.20020  0.54370  0.11820  Biso   1.000  C
  C120     1.0000 0.70020  0.04370  0.11820  Biso   1.000  C
  H217     1.0000 0.18510  0.39060  0.57490  Biso   1.000  H
  H218     1.0000 0.68510  0.89060  0.57490  Biso   1.000  H
  H219     1.0000 0.81490  0.39060  0.92510  Biso   1.000  H
  H220     1.0000 0.31490  0.89060  0.92510  Biso   1.000  H
  H221     1.0000 0.81490  0.60940  0.42510  Biso   1.000  H
  H222     1.0000 0.31490  0.10940  0.42510  Biso   1.000  H
  H223     1.0000 0.18510  0.60940  0.07490  Biso   1.000  H
  H224     1.0000 0.68510  0.10940  0.07490  Biso   1.000  H
  H225     1.0000 0.19330  0.55850  0.60070  Biso   1.000  H
  H226     1.0000 0.69330  0.05850  0.60070  Biso   1.000  H
  H227     1.0000 0.80670  0.55850  0.89930  Biso   1.000  H
  H228     1.0000 0.30670  0.05850  0.89930  Biso   1.000  H
  H229     1.0000 0.80670  0.44150  0.39930  Biso   1.000  H
  H230     1.0000 0.30670  0.94150  0.39930  Biso   1.000  H
  H231     1.0000 0.19330  0.44150  0.10070  Biso   1.000  H
  H232     1.0000 0.69330  0.94150  0.10070  Biso   1.000  H
  C121     1.0000 0.27420  0.39200  0.72650  Biso   1.000  C
  C122     1.0000 0.77420  0.89200  0.72650  Biso   1.000  C
  C123     1.0000 0.72580  0.39200  0.77350  Biso   1.000  C
  C124     1.0000 0.22580  0.89200  0.77350  Biso   1.000  C
  C125     1.0000 0.72580  0.60800  0.27350  Biso   1.000  C
  C126     1.0000 0.22580  0.10800  0.27350  Biso   1.000  C
  C127     1.0000 0.27420  0.60800  0.22650  Biso   1.000  C
  C128     1.0000 0.77420  0.10800  0.22650  Biso   1.000  C
  H233     1.0000 0.27240  0.47530  0.75990  Biso   1.000  H
  H234     1.0000 0.77240  0.97530  0.75990  Biso   1.000  H
  H235     1.0000 0.72760  0.47530  0.74010  Biso   1.000  H
  H236     1.0000 0.22760  0.97530  0.74010  Biso   1.000  H
  H237     1.0000 0.72760  0.52470  0.24010  Biso   1.000  H
  H238     1.0000 0.22760  0.02470  0.24010  Biso   1.000  H
  H239     1.0000 0.27240  0.52470  0.25990  Biso   1.000  H
  H240     1.0000 0.77240  0.02470  0.25990  Biso   1.000  H
  H241     1.0000 0.30990  0.34740  0.74170  Biso   1.000  H
  H242     1.0000 0.80990  0.84740  0.74170  Biso   1.000  H
  H243     1.0000 0.69010  0.34740  0.75830  Biso   1.000  H
  H244     1.0000 0.19010  0.84740  0.75830  Biso   1.000  H
  H245     1.0000 0.69010  0.65260  0.25830  Biso   1.000  H
  H246     1.0000 0.19010  0.15260  0.25830  Biso   1.000  H
  H247     1.0000 0.30990  0.65260  0.24170  Biso   1.000  H
  H248     1.0000 0.80990  0.15260  0.24170  Biso   1.000  H
  C129     1.0000 0.23040  0.28100  0.72240  Biso   1.000  C
  C130     1.0000 0.73040  0.78100  0.72240  Biso   1.000  C
  C131     1.0000 0.76960  0.28100  0.77760  Biso   1.000  C
  C132     1.0000 0.26960  0.78100  0.77760  Biso   1.000  C
  C133     1.0000 0.76960  0.71900  0.27760  Biso   1.000  C
  C134     1.0000 0.26960  0.21900  0.27760  Biso   1.000  C
  C135     1.0000 0.23040  0.71900  0.22240  Biso   1.000  C
  C136     1.0000 0.73040  0.21900  0.22240  Biso   1.000  C
  H249     1.0000 0.22300  0.27180  0.77220  Biso   1.000  H
  H250     1.0000 0.72300  0.77180  0.77220  Biso   1.000  H
  H251     1.0000 0.77700  0.27180  0.72780  Biso   1.000  H
  H252     1.0000 0.27700  0.77180  0.72780  Biso   1.000  H
  H253     1.0000 0.77700  0.72820  0.22780  Biso   1.000  H
  H254     1.0000 0.27700  0.22820  0.22780  Biso   1.000  H
  H255     1.0000 0.22300  0.72820  0.27220  Biso   1.000  H
  H256     1.0000 0.72300  0.22820  0.27220  Biso   1.000  H
  H257     1.0000 0.24100  0.18430  0.70750  Biso   1.000  H
  H258     1.0000 0.74100  0.68430  0.70750  Biso   1.000  H
  H259     1.0000 0.75900  0.18430  0.79250  Biso   1.000  H
  H260     1.0000 0.25900  0.68430  0.79250  Biso   1.000  H
  H261     1.0000 0.75900  0.81570  0.29250  Biso   1.000  H
  H262     1.0000 0.25900  0.31570  0.29250  Biso   1.000  H
  H263     1.0000 0.24100  0.81570  0.20750  Biso   1.000  H
  H264     1.0000 0.74100  0.31570  0.20750  Biso   1.000  H
  C137     1.0000 0.18120  0.33700  0.66320  Biso   1.000  C
  C138     1.0000 0.68120  0.83700  0.66320  Biso   1.000  C
  C139     1.0000 0.81880  0.33700  0.83680  Biso   1.000  C
  C140     1.0000 0.31880  0.83700  0.83680  Biso   1.000  C
  C141     1.0000 0.81880  0.66300  0.33680  Biso   1.000  C
  C142     1.0000 0.31880  0.16300  0.33680  Biso   1.000  C
  C143     1.0000 0.18120  0.66300  0.16320  Biso   1.000  C
  C144     1.0000 0.68120  0.16300  0.16320  Biso   1.000  C
  H265     1.0000 0.15520  0.37680  0.68810  Biso   1.000  H
  H266     1.0000 0.65520  0.87680  0.68810  Biso   1.000  H
  H267     1.0000 0.84480  0.37680  0.81190  Biso   1.000  H
  H268     1.0000 0.34480  0.87680  0.81190  Biso   1.000  H
  H269     1.0000 0.84480  0.62320  0.31190  Biso   1.000  H
  H270     1.0000 0.34480  0.12320  0.31190  Biso   1.000  H
  H271     1.0000 0.15520  0.62320  0.18810  Biso   1.000  H
  H272     1.0000 0.65520  0.12320  0.18810  Biso   1.000  H
  H273     1.0000 0.16420  0.25600  0.62930  Biso   1.000  H
  H274     1.0000 0.66420  0.75600  0.62930  Biso   1.000  H
  H275     1.0000 0.83580  0.25600  0.87070  Biso   1.000  H
  H276     1.0000 0.33580  0.75600  0.87070  Biso   1.000  H
  H277     1.0000 0.83580  0.74400  0.37070  Biso   1.000  H
  H278     1.0000 0.33580  0.24400  0.37070  Biso   1.000  H
  H279     1.0000 0.16420  0.74400  0.12930  Biso   1.000  H
  H280     1.0000 0.66420  0.24400  0.12930  Biso   1.000  H
  H281     1.0000 0.18740  0.44010  0.56300  Biso   1.000  H
  H282     1.0000 0.68740  0.94010  0.56300  Biso   1.000  H
  H283     1.0000 0.81260  0.44010  0.93700  Biso   1.000  H
  H284     1.0000 0.31260  0.94010  0.93700  Biso   1.000  H
  H285     1.0000 0.81260  0.55990  0.43700  Biso   1.000  H
  H286     1.0000 0.31260  0.05990  0.43700  Biso   1.000  H
  H287     1.0000 0.18740  0.55990  0.06300  Biso   1.000  H
  H288     1.0000 0.68740  0.05990  0.06300  Biso   1.000  H
  H289     1.0000 0.18990  0.55510  0.63070  Biso   1.000  H
  H290     1.0000 0.68990  0.05510  0.63070  Biso   1.000  H
  H291     1.0000 0.81010  0.55510  0.86930  Biso   1.000  H
  H292     1.0000 0.31010  0.05510  0.86930  Biso   1.000  H
  H293     1.0000 0.81010  0.44490  0.36930  Biso   1.000  H
  H294     1.0000 0.31010  0.94490  0.36930  Biso   1.000  H
  H295     1.0000 0.18990  0.44490  0.13070  Biso   1.000  H
  H296     1.0000 0.68990  0.94490  0.13070  Biso   1.000  H
