data_image0
_cell_length_a       18.417
_cell_length_b       17.404
_cell_length_c       23.429
_cell_angle_alpha    90
_cell_angle_beta     104.86
_cell_angle_gamma    90

_symmetry_space_group_name_H-M    "P 1"
_symmetry_int_tables_number       1

loop_
  _symmetry_equiv_pos_as_xyz
  'x, y, z'

loop_
  _atom_site_label
  _atom_site_occupancy
  _atom_site_fract_x
  _atom_site_fract_y
  _atom_site_fract_z
  _atom_site_thermal_displace_type
  _atom_site_B_iso_or_equiv
  _atom_site_type_symbol
  O1       1.0000 0.97509  0.25688  0.45291  Biso   1.000  O
  O2       1.0000 0.02491  0.75688  0.54709  Biso   1.000  O
  O3       1.0000 0.96065  0.57006  0.68400  Biso   1.000  O
  O4       1.0000 0.03935  0.07006  0.31600  Biso   1.000  O
  C1       1.0000 0.92476  0.61059  0.70733  Biso   1.000  C
  C2       1.0000 0.07524  0.11059  0.29267  Biso   1.000  C
  C3       1.0000 0.97857  0.64685  0.76490  Biso   1.000  C
  C4       1.0000 0.02143  0.14685  0.23510  Biso   1.000  C
  C5       1.0000 0.45180  0.75515  0.73292  Biso   1.000  C
  C6       1.0000 0.54820  0.25515  0.26708  Biso   1.000  C
  C7       1.0000 0.40714  0.71855  0.68715  Biso   1.000  C
  C8       1.0000 0.59286  0.21855  0.31285  Biso   1.000  C
  C9       1.0000 0.43160  0.64199  0.67256  Biso   1.000  C
  C10      1.0000 0.56840  0.14199  0.32744  Biso   1.000  C
  C11      1.0000 0.64442  0.66026  0.77194  Biso   1.000  C
  C12      1.0000 0.35558  0.16026  0.22806  Biso   1.000  C
  C13      1.0000 0.29949  0.27718  0.79863  Biso   1.000  C
  C14      1.0000 0.70051  0.77718  0.20137  Biso   1.000  C
  Cu1      1.0000 0.66030  0.21550  0.62215  Biso   1.000  Cu
  Cu2      1.0000 0.33970  0.71550  0.37785  Biso   1.000  Cu
  O5       1.0000 0.68921  0.25523  0.70594  Biso   1.000  O
  O6       1.0000 0.31079  0.75523  0.29406  Biso   1.000  O
  O7       1.0000 0.77005  0.25893  0.72011  Biso   1.000  O
  O8       1.0000 0.22995  0.75893  0.27989  Biso   1.000  O
  C15      1.0000 0.81856  0.23476  0.77600  Biso   1.000  C
  C16      1.0000 0.18144  0.73476  0.22400  Biso   1.000  C
  N1       1.0000 0.89466  0.25835  0.78825  Biso   1.000  N
  N2       1.0000 0.10534  0.75835  0.21175  Biso   1.000  N
  C17      1.0000 0.92089  0.29989  0.77010  Biso   1.000  C
  C18      1.0000 0.07911  0.79989  0.22990  Biso   1.000  C
  C19      1.0000 0.90971  0.33591  0.70038  Biso   1.000  C
  C20      1.0000 0.09029  0.83591  0.29962  Biso   1.000  C
  C21      1.0000 0.81299  0.33320  0.67924  Biso   1.000  C
  C22      1.0000 0.18701  0.83320  0.32076  Biso   1.000  C
  C23      1.0000 0.79496  0.18490  0.80669  Biso   1.000  C
  C24      1.0000 0.20504  0.68490  0.19331  Biso   1.000  C
  C25      1.0000 0.92846  0.35845  0.65528  Biso   1.000  C
  C26      1.0000 0.07154  0.85845  0.34472  Biso   1.000  C
  O9       1.0000 0.97471  0.42427  0.69338  Biso   1.000  O
  O10      1.0000 0.02529  0.92427  0.30662  Biso   1.000  O
  C27      1.0000 0.78029  0.33486  0.62338  Biso   1.000  C
  C28      1.0000 0.21971  0.83486  0.37662  Biso   1.000  C
  N3       1.0000 0.70609  0.30581  0.56555  Biso   1.000  N
  N4       1.0000 0.29391  0.80581  0.43445  Biso   1.000  N
  C29      1.0000 0.62709  0.37275  0.54012  Biso   1.000  C
  C30      1.0000 0.37291  0.87275  0.45988  Biso   1.000  C
  C31      1.0000 0.65630  0.29795  0.52626  Biso   1.000  C
  C32      1.0000 0.34370  0.79795  0.47374  Biso   1.000  C
  O11      1.0000 0.62605  0.20369  0.53595  Biso   1.000  O
  O12      1.0000 0.37395  0.70369  0.46405  Biso   1.000  O
  C33      1.0000 0.65402  0.41551  0.60053  Biso   1.000  C
  C34      1.0000 0.34598  0.91551  0.39947  Biso   1.000  C
  N5       1.0000 0.65252  0.50501  0.62432  Biso   1.000  N
  N6       1.0000 0.34748  0.00501  0.37568  Biso   1.000  N
  N7       1.0000 0.73496  0.47627  0.66121  Biso   1.000  N
  N8       1.0000 0.26504  0.97627  0.33879  Biso   1.000  N
  C35      1.0000 0.72954  0.39276  0.63048  Biso   1.000  C
  C36      1.0000 0.27046  0.89276  0.36952  Biso   1.000  C
  C37      1.0000 0.62636  0.24010  0.48138  Biso   1.000  C
  C38      1.0000 0.37364  0.74010  0.51862  Biso   1.000  C
  C39      1.0000 0.69827  0.53031  0.67265  Biso   1.000  C
  C40      1.0000 0.30173  0.03031  0.32735  Biso   1.000  C
  Cu3      1.0000 0.54028  0.55446  0.60005  Biso   1.000  Cu
  Cu4      1.0000 0.45972  0.05446  0.39995  Biso   1.000  Cu
  C41      1.0000 0.38127  0.55493  0.63092  Biso   1.000  C
  C42      1.0000 0.61873  0.05493  0.36908  Biso   1.000  C
  N9       1.0000 0.42980  0.57948  0.56758  Biso   1.000  N
  N10      1.0000 0.57020  0.07948  0.43242  Biso   1.000  N
  C43      1.0000 0.37647  0.44235  0.54167  Biso   1.000  C
  C44      1.0000 0.62353  0.94235  0.45833  Biso   1.000  C
  C45      1.0000 0.40075  0.51963  0.52351  Biso   1.000  C
  C46      1.0000 0.59925  0.01963  0.47649  Biso   1.000  C
  O13      1.0000 0.44051  0.49111  0.43922  Biso   1.000  O
  O14      1.0000 0.55949  0.99111  0.56078  Biso   1.000  O
  O15      1.0000 0.51131  0.53175  0.50674  Biso   1.000  O
  O16      1.0000 0.48869  0.03175  0.49326  Biso   1.000  O
  C47      1.0000 0.43368  0.50835  0.48125  Biso   1.000  C
  C48      1.0000 0.56632  0.00835  0.51875  Biso   1.000  C
  C49      1.0000 0.38223  0.44597  0.60395  Biso   1.000  C
  C50      1.0000 0.61777  0.94597  0.39605  Biso   1.000  C
  N11      1.0000 0.35756  0.38675  0.64789  Biso   1.000  N
  N12      1.0000 0.64244  0.88675  0.35211  Biso   1.000  N
  C51      1.0000 0.35173  0.42282  0.69134  Biso   1.000  C
  C52      1.0000 0.64827  0.92282  0.30866  Biso   1.000  C
  N13      1.0000 0.34646  0.49483  0.69111  Biso   1.000  N
  N14      1.0000 0.65354  0.99483  0.30889  Biso   1.000  N
  C53      1.0000 0.36827  0.49904  0.64437  Biso   1.000  C
  C54      1.0000 0.63173  0.99904  0.35563  Biso   1.000  C
  Cu5      1.0000 0.33341  0.27682  0.62754  Biso   1.000  Cu
  Cu6      1.0000 0.66659  0.77682  0.37246  Biso   1.000  Cu
  O17      1.0000 0.35140  0.25339  0.70485  Biso   1.000  O
  O18      1.0000 0.64860  0.75339  0.29515  Biso   1.000  O
  C55      1.0000 0.33544  0.17349  0.73712  Biso   1.000  C
  C56      1.0000 0.66456  0.67349  0.26288  Biso   1.000  C
  C57      1.0000 0.31892  0.18050  0.77833  Biso   1.000  C
  C58      1.0000 0.68108  0.68050  0.22167  Biso   1.000  C
  N15      1.0000 0.28847  0.11958  0.77990  Biso   1.000  N
  N16      1.0000 0.71153  0.61958  0.22010  Biso   1.000  N
  C59      1.0000 0.31378  0.06341  0.77161  Biso   1.000  C
  C60      1.0000 0.68622  0.56341  0.22839  Biso   1.000  C
  C61      1.0000 0.34063  0.05123  0.72760  Biso   1.000  C
  C62      1.0000 0.65937  0.55123  0.27240  Biso   1.000  C
  C63      1.0000 0.35584  0.11651  0.70515  Biso   1.000  C
  C64      1.0000 0.64416  0.61651  0.29485  Biso   1.000  C
  C65      1.0000 0.39366  0.10828  0.66417  Biso   1.000  C
  C66      1.0000 0.60634  0.60828  0.33583  Biso   1.000  C
  N17      1.0000 0.34707  0.16047  0.61328  Biso   1.000  N
  N18      1.0000 0.65293  0.66047  0.38672  Biso   1.000  N
  C67      1.0000 0.46118  0.19818  0.56907  Biso   1.000  C
  C68      1.0000 0.53882  0.69818  0.43093  Biso   1.000  C
  C69      1.0000 0.36219  0.20309  0.54137  Biso   1.000  C
  C70      1.0000 0.63781  0.70309  0.45863  Biso   1.000  C
  O19      1.0000 0.29091  0.28344  0.52780  Biso   1.000  O
  O20      1.0000 0.70909  0.78344  0.47220  Biso   1.000  O
  C71      1.0000 0.48933  0.17546  0.61445  Biso   1.000  C
  C72      1.0000 0.51067  0.67546  0.38555  Biso   1.000  C
  N19      1.0000 0.57415  0.17463  0.63714  Biso   1.000  N
  N20      1.0000 0.42585  0.67463  0.36286  Biso   1.000  N
  N21      1.0000 0.51719  0.09425  0.71418  Biso   1.000  N
  N22      1.0000 0.48281  0.59425  0.28582  Biso   1.000  N
  C73      1.0000 0.34979  0.96074  0.71324  Biso   1.000  C
  C74      1.0000 0.65021  0.46074  0.28676  Biso   1.000  C
  O21      1.0000 0.41289  0.96490  0.71008  Biso   1.000  O
  O22      1.0000 0.58711  0.46490  0.28992  Biso   1.000  O
  C75      1.0000 0.58348  0.14932  0.69636  Biso   1.000  C
  C76      1.0000 0.41652  0.64932  0.30364  Biso   1.000  C
  C77      1.0000 0.47408  0.12240  0.66857  Biso   1.000  C
  C78      1.0000 0.52592  0.62240  0.33143  Biso   1.000  C
