data_image0
_cell_length_a       21.86
_cell_length_b       16.453
_cell_length_c       7.184
_cell_angle_alpha    90
_cell_angle_beta     97.643
_cell_angle_gamma    90

_symmetry_space_group_name_H-M    "P 1"
_symmetry_int_tables_number       1

loop_
  _symmetry_equiv_pos_as_xyz
  'x, y, z'

loop_
  _atom_site_label
  _atom_site_occupancy
  _atom_site_fract_x
  _atom_site_fract_y
  _atom_site_fract_z
  _atom_site_thermal_displace_type
  _atom_site_B_iso_or_equiv
  _atom_site_type_symbol
  C1       1.0000 0.24857  0.62390  0.31560  Biso   1.000  C
  C2       1.0000 0.75143  0.12390  0.18440  Biso   1.000  C
  C3       1.0000 0.75143  0.37610  0.68440  Biso   1.000  C
  C4       1.0000 0.24857  0.87610  0.81560  Biso   1.000  C
  C5       1.0000 0.30538  0.66190  0.29900  Biso   1.000  C
  C6       1.0000 0.69462  0.16190  0.20100  Biso   1.000  C
  C7       1.0000 0.69462  0.33810  0.70100  Biso   1.000  C
  C8       1.0000 0.30538  0.83810  0.79900  Biso   1.000  C
  C9       1.0000 0.30927  0.74570  0.30620  Biso   1.000  C
  C10      1.0000 0.69073  0.24570  0.19380  Biso   1.000  C
  C11      1.0000 0.69073  0.25430  0.69380  Biso   1.000  C
  C12      1.0000 0.30927  0.75430  0.80620  Biso   1.000  C
  H1       1.0000 0.34650  0.77130  0.29390  Biso   1.000  H
  H2       1.0000 0.65350  0.27130  0.20610  Biso   1.000  H
  H3       1.0000 0.65350  0.22870  0.70610  Biso   1.000  H
  H4       1.0000 0.34650  0.72870  0.79390  Biso   1.000  H
  C13      1.0000 0.25765  0.79206  0.33170  Biso   1.000  C
  C14      1.0000 0.74235  0.29206  0.16830  Biso   1.000  C
  C15      1.0000 0.74235  0.20794  0.66830  Biso   1.000  C
  C16      1.0000 0.25765  0.70794  0.83170  Biso   1.000  C
  H5       1.0000 0.26080  0.84840  0.33580  Biso   1.000  H
  H6       1.0000 0.73920  0.34840  0.16420  Biso   1.000  H
  H7       1.0000 0.73920  0.15160  0.66420  Biso   1.000  H
  H8       1.0000 0.26080  0.65160  0.83580  Biso   1.000  H
  C17      1.0000 0.20120  0.75546  0.35140  Biso   1.000  C
  C18      1.0000 0.79880  0.25546  0.14860  Biso   1.000  C
  C19      1.0000 0.79880  0.24454  0.64860  Biso   1.000  C
  C20      1.0000 0.20120  0.74454  0.85140  Biso   1.000  C
  C21      1.0000 0.19814  0.67055  0.34210  Biso   1.000  C
  C22      1.0000 0.80186  0.17055  0.15790  Biso   1.000  C
  C23      1.0000 0.80186  0.32945  0.65790  Biso   1.000  C
  C24      1.0000 0.19814  0.82945  0.84210  Biso   1.000  C
  H9       1.0000 0.16100  0.64490  0.35410  Biso   1.000  H
  H10      1.0000 0.83900  0.14490  0.14590  Biso   1.000  H
  H11      1.0000 0.83900  0.35510  0.64590  Biso   1.000  H
  H12      1.0000 0.16100  0.85510  0.85410  Biso   1.000  H
  C25      1.0000 0.14811  0.80587  0.38180  Biso   1.000  C
  C26      1.0000 0.85189  0.30587  0.11820  Biso   1.000  C
  C27      1.0000 0.85189  0.19413  0.61820  Biso   1.000  C
  C28      1.0000 0.14811  0.69413  0.88180  Biso   1.000  C
  H13      1.0000 0.15460  0.86170  0.38360  Biso   1.000  H
  H14      1.0000 0.84540  0.36170  0.11640  Biso   1.000  H
  H15      1.0000 0.84540  0.13830  0.61640  Biso   1.000  H
  H16      1.0000 0.15460  0.63830  0.88360  Biso   1.000  H
  C29      1.0000 0.09159  0.78140  0.40720  Biso   1.000  C
  C30      1.0000 0.90841  0.28140  0.09280  Biso   1.000  C
  C31      1.0000 0.90841  0.21860  0.59280  Biso   1.000  C
  C32      1.0000 0.09159  0.71860  0.90720  Biso   1.000  C
  H17      1.0000 0.08290  0.72610  0.39930  Biso   1.000  H
  H18      1.0000 0.91710  0.22610  0.10070  Biso   1.000  H
  H19      1.0000 0.91710  0.27390  0.60070  Biso   1.000  H
  H20      1.0000 0.08290  0.77390  0.89930  Biso   1.000  H
  C33      1.0000 0.04231  0.83728  0.44720  Biso   1.000  C
  C34      1.0000 0.95769  0.33728  0.05280  Biso   1.000  C
  C35      1.0000 0.95769  0.16272  0.55280  Biso   1.000  C
  C36      1.0000 0.04231  0.66272  0.94720  Biso   1.000  C
  C37      1.0000 0.98457  0.80487  0.47470  Biso   1.000  C
  C38      1.0000 0.01543  0.30487  0.02530  Biso   1.000  C
  C39      1.0000 0.01543  0.19513  0.52530  Biso   1.000  C
  C40      1.0000 0.98457  0.69513  0.97470  Biso   1.000  C
  H21      1.0000 0.97960  0.74890  0.46350  Biso   1.000  H
  H22      1.0000 0.02040  0.24890  0.03650  Biso   1.000  H
  H23      1.0000 0.02040  0.25110  0.53650  Biso   1.000  H
  H24      1.0000 0.97960  0.75110  0.96350  Biso   1.000  H
  C41      1.0000 0.93404  0.85034  0.51750  Biso   1.000  C
  C42      1.0000 0.06596  0.35034  0.98250  Biso   1.000  C
  C43      1.0000 0.06596  0.14966  0.48250  Biso   1.000  C
  C44      1.0000 0.93404  0.64966  0.01750  Biso   1.000  C
  C45      1.0000 0.87710  0.80896  0.55360  Biso   1.000  C
  C46      1.0000 0.12290  0.30896  0.94640  Biso   1.000  C
  C47      1.0000 0.12290  0.19104  0.44640  Biso   1.000  C
  C48      1.0000 0.87710  0.69104  0.05360  Biso   1.000  C
  H25      1.0000 0.87410  0.75280  0.53970  Biso   1.000  H
  H26      1.0000 0.12590  0.25280  0.96030  Biso   1.000  H
  H27      1.0000 0.12590  0.24720  0.46030  Biso   1.000  H
  H28      1.0000 0.87410  0.74720  0.03970  Biso   1.000  H
  C49      1.0000 0.82937  0.85044  0.60610  Biso   1.000  C
  C50      1.0000 0.17063  0.35044  0.89390  Biso   1.000  C
  C51      1.0000 0.17063  0.14956  0.39390  Biso   1.000  C
  C52      1.0000 0.82937  0.64956  0.10610  Biso   1.000  C
  H29      1.0000 0.83520  0.90620  0.61890  Biso   1.000  H
  H30      1.0000 0.16480  0.40620  0.88110  Biso   1.000  H
  H31      1.0000 0.16480  0.09380  0.38110  Biso   1.000  H
  H32      1.0000 0.83520  0.59380  0.11890  Biso   1.000  H
  C53      1.0000 0.76944  0.82053  0.64610  Biso   1.000  C
  C54      1.0000 0.23056  0.32053  0.85390  Biso   1.000  C
  C55      1.0000 0.23056  0.17947  0.35390  Biso   1.000  C
  C56      1.0000 0.76944  0.67947  0.14610  Biso   1.000  C
  C57      1.0000 0.72475  0.87746  0.68400  Biso   1.000  C
  C58      1.0000 0.27525  0.37746  0.81600  Biso   1.000  C
  C59      1.0000 0.27525  0.12254  0.31600  Biso   1.000  C
  C60      1.0000 0.72475  0.62254  0.18400  Biso   1.000  C
  H33      1.0000 0.73480  0.93240  0.68750  Biso   1.000  H
  H34      1.0000 0.26520  0.43240  0.81250  Biso   1.000  H
  H35      1.0000 0.26520  0.06760  0.31250  Biso   1.000  H
  H36      1.0000 0.73480  0.56760  0.18750  Biso   1.000  H
  C61      1.0000 0.66620  0.85398  0.71620  Biso   1.000  C
  C62      1.0000 0.33380  0.35398  0.78380  Biso   1.000  C
  C63      1.0000 0.33380  0.14602  0.28380  Biso   1.000  C
  C64      1.0000 0.66620  0.64602  0.21620  Biso   1.000  C
  C65      1.0000 0.65053  0.77084  0.71170  Biso   1.000  C
  C66      1.0000 0.34947  0.27084  0.78830  Biso   1.000  C
  C67      1.0000 0.34947  0.22916  0.28830  Biso   1.000  C
  C68      1.0000 0.65053  0.72916  0.21170  Biso   1.000  C
  C69      1.0000 0.69482  0.71406  0.67470  Biso   1.000  C
  C70      1.0000 0.30518  0.21406  0.82530  Biso   1.000  C
  C71      1.0000 0.30518  0.28594  0.32530  Biso   1.000  C
  C72      1.0000 0.69482  0.78594  0.17470  Biso   1.000  C
  H37      1.0000 0.68510  0.65900  0.67190  Biso   1.000  H
  H38      1.0000 0.31490  0.15900  0.82810  Biso   1.000  H
  H39      1.0000 0.31490  0.34100  0.32810  Biso   1.000  H
  H40      1.0000 0.68510  0.84100  0.17190  Biso   1.000  H
  C73      1.0000 0.75318  0.73867  0.64200  Biso   1.000  C
  C74      1.0000 0.24682  0.23867  0.85800  Biso   1.000  C
  C75      1.0000 0.24682  0.26133  0.35800  Biso   1.000  C
  C76      1.0000 0.75318  0.76133  0.14200  Biso   1.000  C
  H41      1.0000 0.78190  0.69980  0.61680  Biso   1.000  H
  H42      1.0000 0.21810  0.19980  0.88320  Biso   1.000  H
  H43      1.0000 0.21810  0.30020  0.38320  Biso   1.000  H
  H44      1.0000 0.78190  0.80020  0.11680  Biso   1.000  H
  C77      1.0000 0.19255  0.50020  0.30700  Biso   1.000  C
  C78      1.0000 0.80745  0.00020  0.19300  Biso   1.000  C
  C79      1.0000 0.80745  0.49980  0.69300  Biso   1.000  C
  C80      1.0000 0.19255  0.99980  0.80700  Biso   1.000  C
  H45      1.0000 0.17850  0.50980  0.42620  Biso   1.000  H
  H46      1.0000 0.82150  0.00980  0.07380  Biso   1.000  H
  H47      1.0000 0.82150  0.49020  0.57380  Biso   1.000  H
  H48      1.0000 0.17850  0.99020  0.92620  Biso   1.000  H
  H49      1.0000 0.19830  0.44290  0.29050  Biso   1.000  H
  H50      1.0000 0.80170  0.94290  0.20950  Biso   1.000  H
  H51      1.0000 0.80170  0.55710  0.70950  Biso   1.000  H
  H52      1.0000 0.19830  0.05710  0.79050  Biso   1.000  H
  H53      1.0000 0.16240  0.52010  0.20830  Biso   1.000  H
  H54      1.0000 0.83760  0.02010  0.29170  Biso   1.000  H
  H55      1.0000 0.83760  0.47990  0.79170  Biso   1.000  H
  H56      1.0000 0.16240  0.97990  0.70830  Biso   1.000  H
  C81      1.0000 0.41134  0.64290  0.26060  Biso   1.000  C
  C82      1.0000 0.58866  0.14290  0.23940  Biso   1.000  C
  C83      1.0000 0.58866  0.35710  0.73940  Biso   1.000  C
  C84      1.0000 0.41134  0.85710  0.76060  Biso   1.000  C
  H57      1.0000 0.42430  0.67680  0.36920  Biso   1.000  H
  H58      1.0000 0.57570  0.17680  0.13080  Biso   1.000  H
  H59      1.0000 0.57570  0.32320  0.63080  Biso   1.000  H
  H60      1.0000 0.42430  0.82320  0.86920  Biso   1.000  H
  H61      1.0000 0.40990  0.67620  0.14860  Biso   1.000  H
  H62      1.0000 0.59010  0.17620  0.35140  Biso   1.000  H
  H63      1.0000 0.59010  0.32380  0.85140  Biso   1.000  H
  H64      1.0000 0.40990  0.82380  0.64860  Biso   1.000  H
  C85      1.0000 0.45618  0.57310  0.25230  Biso   1.000  C
  C86      1.0000 0.54382  0.07310  0.24770  Biso   1.000  C
  C87      1.0000 0.54382  0.42690  0.74770  Biso   1.000  C
  C88      1.0000 0.45618  0.92690  0.75230  Biso   1.000  C
  H65      1.0000 0.45690  0.54030  0.36310  Biso   1.000  H
  H66      1.0000 0.54310  0.04030  0.13690  Biso   1.000  H
  H67      1.0000 0.54310  0.45970  0.63690  Biso   1.000  H
  H68      1.0000 0.45690  0.95970  0.86310  Biso   1.000  H
  H69      1.0000 0.49670  0.59430  0.24530  Biso   1.000  H
  H70      1.0000 0.50330  0.09430  0.25470  Biso   1.000  H
  H71      1.0000 0.50330  0.40570  0.75470  Biso   1.000  H
  H72      1.0000 0.49670  0.90570  0.74530  Biso   1.000  H
  H73      1.0000 0.44330  0.54060  0.14330  Biso   1.000  H
  H74      1.0000 0.55670  0.04060  0.35670  Biso   1.000  H
  H75      1.0000 0.55670  0.45940  0.85670  Biso   1.000  H
  H76      1.0000 0.44330  0.95940  0.64330  Biso   1.000  H
  C89      1.0000 0.63579  0.98960  0.77880  Biso   1.000  C
  C90      1.0000 0.36421  0.48960  0.72120  Biso   1.000  C
  C91      1.0000 0.36421  0.01040  0.22120  Biso   1.000  C
  C92      1.0000 0.63579  0.51040  0.27880  Biso   1.000  C
  H77      1.0000 0.67130  0.99520  0.87200  Biso   1.000  H
  H78      1.0000 0.32870  0.49520  0.62800  Biso   1.000  H
  H79      1.0000 0.32870  0.00480  0.12800  Biso   1.000  H
  H80      1.0000 0.67130  0.50480  0.37200  Biso   1.000  H
  H81      1.0000 0.60170  0.01860  0.81840  Biso   1.000  H
  H82      1.0000 0.39830  0.51860  0.68160  Biso   1.000  H
  H83      1.0000 0.39830  0.98140  0.18160  Biso   1.000  H
  H84      1.0000 0.60170  0.48140  0.31840  Biso   1.000  H
  H85      1.0000 0.64490  0.01140  0.66160  Biso   1.000  H
  H86      1.0000 0.35510  0.51140  0.83840  Biso   1.000  H
  H87      1.0000 0.35510  0.98860  0.33840  Biso   1.000  H
  H88      1.0000 0.64490  0.48860  0.16160  Biso   1.000  H
  C93      1.0000 0.57431  0.66860  0.73980  Biso   1.000  C
  C94      1.0000 0.42569  0.16860  0.76020  Biso   1.000  C
  C95      1.0000 0.42569  0.33140  0.26020  Biso   1.000  C
  C96      1.0000 0.57431  0.83140  0.23980  Biso   1.000  C
  H89      1.0000 0.60270  0.63730  0.82710  Biso   1.000  H
  H90      1.0000 0.39730  0.13730  0.67290  Biso   1.000  H
  H91      1.0000 0.39730  0.36270  0.17290  Biso   1.000  H
  H92      1.0000 0.60270  0.86270  0.32710  Biso   1.000  H
  H93      1.0000 0.57480  0.64680  0.61450  Biso   1.000  H
  H94      1.0000 0.42520  0.14680  0.88550  Biso   1.000  H
  H95      1.0000 0.42520  0.35320  0.38550  Biso   1.000  H
  H96      1.0000 0.57480  0.85320  0.11450  Biso   1.000  H
  C97      1.0000 0.50995  0.66460  0.79400  Biso   1.000  C
  C98      1.0000 0.49005  0.16460  0.70600  Biso   1.000  C
  C99      1.0000 0.49005  0.33540  0.20600  Biso   1.000  C
  C100     1.0000 0.50995  0.83540  0.29400  Biso   1.000  C
  H97      1.0000 0.51010  0.68680  0.91760  Biso   1.000  H
  H98      1.0000 0.48990  0.18680  0.58240  Biso   1.000  H
  H99      1.0000 0.48990  0.31320  0.08240  Biso   1.000  H
  H100     1.0000 0.51010  0.81320  0.41760  Biso   1.000  H
  H101     1.0000 0.49650  0.60900  0.79310  Biso   1.000  H
  H102     1.0000 0.50350  0.10900  0.70690  Biso   1.000  H
  H103     1.0000 0.50350  0.39100  0.20690  Biso   1.000  H
  H104     1.0000 0.49650  0.89100  0.29310  Biso   1.000  H
  H105     1.0000 0.48230  0.69540  0.70590  Biso   1.000  H
  H106     1.0000 0.51770  0.19540  0.79410  Biso   1.000  H
  H107     1.0000 0.51770  0.30460  0.29410  Biso   1.000  H
  H108     1.0000 0.48230  0.80460  0.20590  Biso   1.000  H
  Cu1      1.0000 0.00000  0.00000  0.50000  Biso   1.000  Cu
  Cu2      1.0000 0.00000  0.50000  0.00000  Biso   1.000  Cu
  O1       1.0000 0.24863  0.54058  0.30100  Biso   1.000  O
  O2       1.0000 0.75137  0.04058  0.19900  Biso   1.000  O
  O3       1.0000 0.75137  0.45942  0.69900  Biso   1.000  O
  O4       1.0000 0.24863  0.95942  0.80100  Biso   1.000  O
  O5       1.0000 0.35290  0.60964  0.27310  Biso   1.000  O
  O6       1.0000 0.64710  0.10964  0.22690  Biso   1.000  O
  O7       1.0000 0.64710  0.39036  0.72690  Biso   1.000  O
  O8       1.0000 0.35290  0.89036  0.77310  Biso   1.000  O
  O9       1.0000 0.05562  0.91304  0.45700  Biso   1.000  O
  O10      1.0000 0.94438  0.41304  0.04300  Biso   1.000  O
  O11      1.0000 0.94438  0.08696  0.54300  Biso   1.000  O
  O12      1.0000 0.05562  0.58696  0.95700  Biso   1.000  O
  O13      1.0000 0.93378  0.92830  0.53080  Biso   1.000  O
  O14      1.0000 0.06622  0.42830  0.96920  Biso   1.000  O
  O15      1.0000 0.06622  0.07170  0.46920  Biso   1.000  O
  O16      1.0000 0.93378  0.57170  0.03080  Biso   1.000  O
  O17      1.0000 0.62026  0.90596  0.75560  Biso   1.000  O
  O18      1.0000 0.37974  0.40596  0.74440  Biso   1.000  O
  O19      1.0000 0.37974  0.09404  0.24440  Biso   1.000  O
  O20      1.0000 0.62026  0.59404  0.25560  Biso   1.000  O
  O21      1.0000 0.59191  0.75310  0.74570  Biso   1.000  O
  O22      1.0000 0.40809  0.25310  0.75430  Biso   1.000  O
  O23      1.0000 0.40809  0.24690  0.25430  Biso   1.000  O
  O24      1.0000 0.59191  0.74690  0.24570  Biso   1.000  O
  C101     1.0000 0.96300  0.94670  0.01790  Biso   1.000  C
  C102     1.0000 0.03700  0.44670  0.48210  Biso   1.000  C
  C103     1.0000 0.03700  0.05330  0.98210  Biso   1.000  C
  C104     1.0000 0.96300  0.55330  0.51790  Biso   1.000  C
  H109     1.0000 0.93440  0.95390  0.90380  Biso   1.000  H
  H110     1.0000 0.06560  0.45390  0.59620  Biso   1.000  H
  H111     1.0000 0.06560  0.04610  0.09620  Biso   1.000  H
  H112     1.0000 0.93440  0.54610  0.40380  Biso   1.000  H
  H113     1.0000 0.95090  0.89780  0.07910  Biso   1.000  H
  H114     1.0000 0.04910  0.39780  0.42090  Biso   1.000  H
  H115     1.0000 0.04910  0.10220  0.92090  Biso   1.000  H
  H116     1.0000 0.95090  0.60220  0.57910  Biso   1.000  H
  C105     1.0000 0.97840  0.06520  0.03110  Biso   1.000  C
  C106     1.0000 0.02160  0.56520  0.46890  Biso   1.000  C
  C107     1.0000 0.02160  0.93480  0.96890  Biso   1.000  C
  C108     1.0000 0.97840  0.43480  0.53110  Biso   1.000  C
  H117     1.0000 0.97880  0.11480  0.10420  Biso   1.000  H
  H118     1.0000 0.02120  0.61480  0.39580  Biso   1.000  H
  H119     1.0000 0.02120  0.88520  0.89580  Biso   1.000  H
  H120     1.0000 0.97880  0.38520  0.60420  Biso   1.000  H
  H121     1.0000 0.95000  0.07330  0.91710  Biso   1.000  H
  H122     1.0000 0.05000  0.57330  0.58290  Biso   1.000  H
  H123     1.0000 0.05000  0.92670  0.08290  Biso   1.000  H
  H124     1.0000 0.95000  0.42670  0.41710  Biso   1.000  H
  O25      1.0000 0.95750  0.00710  0.12600  Biso   1.000  O
  O26      1.0000 0.04250  0.50710  0.37400  Biso   1.000  O
  O27      1.0000 0.04250  0.99290  0.87400  Biso   1.000  O
  O28      1.0000 0.95750  0.49290  0.62600  Biso   1.000  O
