data_image0
_cell_length_a       37.542
_cell_length_b       7.6994
_cell_length_c       7.7667
_cell_angle_alpha    90
_cell_angle_beta     90.332
_cell_angle_gamma    90

_symmetry_space_group_name_H-M    "P 1"
_symmetry_int_tables_number       1

loop_
  _symmetry_equiv_pos_as_xyz
  'x, y, z'

loop_
  _atom_site_label
  _atom_site_occupancy
  _atom_site_fract_x
  _atom_site_fract_y
  _atom_site_fract_z
  _atom_site_thermal_displace_type
  _atom_site_B_iso_or_equiv
  _atom_site_type_symbol
  Cu1      1.0000 0.24374  0.05358  0.07204  Biso   1.000  Cu
  Cu2      1.0000 0.75626  0.05358  0.42796  Biso   1.000  Cu
  Cu3      1.0000 0.74374  0.55358  0.07204  Biso   1.000  Cu
  Cu4      1.0000 0.25626  0.55358  0.42796  Biso   1.000  Cu
  Cu5      1.0000 0.75626  0.94642  0.92796  Biso   1.000  Cu
  Cu6      1.0000 0.24374  0.94642  0.57204  Biso   1.000  Cu
  Cu7      1.0000 0.25626  0.44642  0.92796  Biso   1.000  Cu
  Cu8      1.0000 0.74374  0.44642  0.57204  Biso   1.000  Cu
  P1       1.0000 0.29331  0.19378  0.32600  Biso   1.000  P
  P2       1.0000 0.70669  0.19378  0.17400  Biso   1.000  P
  P3       1.0000 0.79331  0.69378  0.32600  Biso   1.000  P
  P4       1.0000 0.20669  0.69378  0.17400  Biso   1.000  P
  P5       1.0000 0.70669  0.80622  0.67400  Biso   1.000  P
  P6       1.0000 0.29331  0.80622  0.82600  Biso   1.000  P
  P7       1.0000 0.20669  0.30622  0.67400  Biso   1.000  P
  P8       1.0000 0.79331  0.30622  0.82600  Biso   1.000  P
  C1       1.0000 0.34117  0.15160  0.33000  Biso   1.000  C
  C2       1.0000 0.65883  0.15160  0.17000  Biso   1.000  C
  C3       1.0000 0.84117  0.65160  0.33000  Biso   1.000  C
  C4       1.0000 0.15883  0.65160  0.17000  Biso   1.000  C
  C5       1.0000 0.65883  0.84840  0.67000  Biso   1.000  C
  C6       1.0000 0.34117  0.84840  0.83000  Biso   1.000  C
  C7       1.0000 0.15883  0.34840  0.67000  Biso   1.000  C
  C8       1.0000 0.84117  0.34840  0.83000  Biso   1.000  C
  C9       1.0000 0.35291  0.99440  0.39670  Biso   1.000  C
  C10      1.0000 0.64709  0.99440  0.10330  Biso   1.000  C
  C11      1.0000 0.85291  0.49440  0.39670  Biso   1.000  C
  C12      1.0000 0.14709  0.49440  0.10330  Biso   1.000  C
  C13      1.0000 0.64709  0.00560  0.60330  Biso   1.000  C
  C14      1.0000 0.35291  0.00560  0.89670  Biso   1.000  C
  C15      1.0000 0.14709  0.50560  0.60330  Biso   1.000  C
  C16      1.0000 0.85291  0.50560  0.89670  Biso   1.000  C
  H1       1.0000 0.33650  0.91050  0.42970  Biso   1.000  H
  H2       1.0000 0.66350  0.91050  0.07030  Biso   1.000  H
  H3       1.0000 0.83650  0.41050  0.42970  Biso   1.000  H
  H4       1.0000 0.16350  0.41050  0.07030  Biso   1.000  H
  H5       1.0000 0.66350  0.08950  0.57030  Biso   1.000  H
  H6       1.0000 0.33650  0.08950  0.92970  Biso   1.000  H
  H7       1.0000 0.16350  0.58950  0.57030  Biso   1.000  H
  H8       1.0000 0.83650  0.58950  0.92970  Biso   1.000  H
  C17      1.0000 0.38945  0.96190  0.41450  Biso   1.000  C
  C18      1.0000 0.61055  0.96190  0.08550  Biso   1.000  C
  C19      1.0000 0.88945  0.46190  0.41450  Biso   1.000  C
  C20      1.0000 0.11055  0.46190  0.08550  Biso   1.000  C
  C21      1.0000 0.61055  0.03810  0.58550  Biso   1.000  C
  C22      1.0000 0.38945  0.03810  0.91450  Biso   1.000  C
  C23      1.0000 0.11055  0.53810  0.58550  Biso   1.000  C
  C24      1.0000 0.88945  0.53810  0.91450  Biso   1.000  C
  H9       1.0000 0.39700  0.85440  0.45510  Biso   1.000  H
  H10      1.0000 0.60300  0.85440  0.04490  Biso   1.000  H
  H11      1.0000 0.89700  0.35440  0.45510  Biso   1.000  H
  H12      1.0000 0.10300  0.35440  0.04490  Biso   1.000  H
  H13      1.0000 0.60300  0.14560  0.54490  Biso   1.000  H
  H14      1.0000 0.39700  0.14560  0.95510  Biso   1.000  H
  H15      1.0000 0.10300  0.64560  0.54490  Biso   1.000  H
  H16      1.0000 0.89700  0.64560  0.95510  Biso   1.000  H
  C25      1.0000 0.41424  0.08530  0.37330  Biso   1.000  C
  C26      1.0000 0.58576  0.08530  0.12670  Biso   1.000  C
  C27      1.0000 0.91424  0.58530  0.37330  Biso   1.000  C
  C28      1.0000 0.08576  0.58530  0.12670  Biso   1.000  C
  C29      1.0000 0.58576  0.91470  0.62670  Biso   1.000  C
  C30      1.0000 0.41424  0.91470  0.87330  Biso   1.000  C
  C31      1.0000 0.08576  0.41470  0.62670  Biso   1.000  C
  C32      1.0000 0.91424  0.41470  0.87330  Biso   1.000  C
  C33      1.0000 0.40382  0.25000  0.30460  Biso   1.000  C
  C34      1.0000 0.59618  0.25000  0.19540  Biso   1.000  C
  C35      1.0000 0.90382  0.75000  0.30460  Biso   1.000  C
  C36      1.0000 0.09618  0.75000  0.19540  Biso   1.000  C
  C37      1.0000 0.59618  0.75000  0.69540  Biso   1.000  C
  C38      1.0000 0.40382  0.75000  0.80460  Biso   1.000  C
  C39      1.0000 0.09618  0.25000  0.69540  Biso   1.000  C
  C40      1.0000 0.90382  0.25000  0.80460  Biso   1.000  C
  C41      1.0000 0.42790  0.38340  0.26130  Biso   1.000  C
  C42      1.0000 0.57210  0.38340  0.23870  Biso   1.000  C
  C43      1.0000 0.92790  0.88340  0.26130  Biso   1.000  C
  C44      1.0000 0.07210  0.88340  0.23870  Biso   1.000  C
  C45      1.0000 0.57210  0.61660  0.73870  Biso   1.000  C
  C46      1.0000 0.42790  0.61660  0.76130  Biso   1.000  C
  C47      1.0000 0.07210  0.11660  0.73870  Biso   1.000  C
  C48      1.0000 0.92790  0.11660  0.76130  Biso   1.000  C
  H17      1.0000 0.45220  0.36510  0.27630  Biso   1.000  H
  H18      1.0000 0.54780  0.36510  0.22370  Biso   1.000  H
  H19      1.0000 0.95220  0.86510  0.27630  Biso   1.000  H
  H20      1.0000 0.04780  0.86510  0.22370  Biso   1.000  H
  H21      1.0000 0.54780  0.63490  0.72370  Biso   1.000  H
  H22      1.0000 0.45220  0.63490  0.77630  Biso   1.000  H
  H23      1.0000 0.04780  0.13490  0.72370  Biso   1.000  H
  H24      1.0000 0.95220  0.13490  0.77630  Biso   1.000  H
  C49      1.0000 0.41628  0.53880  0.19770  Biso   1.000  C
  C50      1.0000 0.58372  0.53880  0.30230  Biso   1.000  C
  C51      1.0000 0.91628  0.03880  0.19770  Biso   1.000  C
  C52      1.0000 0.08372  0.03880  0.30230  Biso   1.000  C
  C53      1.0000 0.58372  0.46120  0.80230  Biso   1.000  C
  C54      1.0000 0.41628  0.46120  0.69770  Biso   1.000  C
  C55      1.0000 0.08372  0.96120  0.80230  Biso   1.000  C
  C56      1.0000 0.91628  0.96120  0.69770  Biso   1.000  C
  H25      1.0000 0.43260  0.62520  0.17090  Biso   1.000  H
  H26      1.0000 0.56740  0.62520  0.32910  Biso   1.000  H
  H27      1.0000 0.93260  0.12520  0.17090  Biso   1.000  H
  H28      1.0000 0.06740  0.12520  0.32910  Biso   1.000  H
  H29      1.0000 0.56740  0.37480  0.82910  Biso   1.000  H
  H30      1.0000 0.43260  0.37480  0.67090  Biso   1.000  H
  H31      1.0000 0.06740  0.87480  0.82910  Biso   1.000  H
  H32      1.0000 0.93260  0.87480  0.67090  Biso   1.000  H
  C57      1.0000 0.37964  0.56840  0.17270  Biso   1.000  C
  C58      1.0000 0.62036  0.56840  0.32730  Biso   1.000  C
  C59      1.0000 0.87964  0.06840  0.17270  Biso   1.000  C
  C60      1.0000 0.12036  0.06840  0.32730  Biso   1.000  C
  C61      1.0000 0.62036  0.43160  0.82730  Biso   1.000  C
  C62      1.0000 0.37964  0.43160  0.67270  Biso   1.000  C
  C63      1.0000 0.12036  0.93160  0.82730  Biso   1.000  C
  C64      1.0000 0.87964  0.93160  0.67270  Biso   1.000  C
  H33      1.0000 0.37180  0.67540  0.13190  Biso   1.000  H
  H34      1.0000 0.62820  0.67540  0.36810  Biso   1.000  H
  H35      1.0000 0.87180  0.17540  0.13190  Biso   1.000  H
  H36      1.0000 0.12820  0.17540  0.36810  Biso   1.000  H
  H37      1.0000 0.62820  0.32460  0.86810  Biso   1.000  H
  H38      1.0000 0.37180  0.32460  0.63190  Biso   1.000  H
  H39      1.0000 0.12820  0.82460  0.86810  Biso   1.000  H
  H40      1.0000 0.87180  0.82460  0.63190  Biso   1.000  H
  C65      1.0000 0.35552  0.44020  0.20820  Biso   1.000  C
  C66      1.0000 0.64448  0.44020  0.29180  Biso   1.000  C
  C67      1.0000 0.85552  0.94020  0.20820  Biso   1.000  C
  C68      1.0000 0.14448  0.94020  0.29180  Biso   1.000  C
  C69      1.0000 0.64448  0.55980  0.79180  Biso   1.000  C
  C70      1.0000 0.35552  0.55980  0.70820  Biso   1.000  C
  C71      1.0000 0.14448  0.05980  0.79180  Biso   1.000  C
  C72      1.0000 0.85552  0.05980  0.70820  Biso   1.000  C
  H41      1.0000 0.33150  0.45970  0.18600  Biso   1.000  H
  H42      1.0000 0.66850  0.45970  0.31400  Biso   1.000  H
  H43      1.0000 0.83150  0.95970  0.18600  Biso   1.000  H
  H44      1.0000 0.16850  0.95970  0.31400  Biso   1.000  H
  H45      1.0000 0.66850  0.54030  0.81400  Biso   1.000  H
  H46      1.0000 0.33150  0.54030  0.68600  Biso   1.000  H
  H47      1.0000 0.16850  0.04030  0.81400  Biso   1.000  H
  H48      1.0000 0.83150  0.04030  0.68600  Biso   1.000  H
  C73      1.0000 0.36629  0.27970  0.27770  Biso   1.000  C
  C74      1.0000 0.63371  0.27970  0.22230  Biso   1.000  C
  C75      1.0000 0.86629  0.77970  0.27770  Biso   1.000  C
  C76      1.0000 0.13371  0.77970  0.22230  Biso   1.000  C
  C77      1.0000 0.63371  0.72030  0.72230  Biso   1.000  C
  C78      1.0000 0.36629  0.72030  0.77770  Biso   1.000  C
  C79      1.0000 0.13371  0.22030  0.72230  Biso   1.000  C
  C80      1.0000 0.86629  0.22030  0.77770  Biso   1.000  C
  C81      1.0000 0.45240  0.04800  0.42040  Biso   1.000  C
  C82      1.0000 0.54760  0.04800  0.07960  Biso   1.000  C
  C83      1.0000 0.95240  0.54800  0.42040  Biso   1.000  C
  C84      1.0000 0.04760  0.54800  0.07960  Biso   1.000  C
  C85      1.0000 0.54760  0.95200  0.57960  Biso   1.000  C
  C86      1.0000 0.45240  0.95200  0.92040  Biso   1.000  C
  C87      1.0000 0.04760  0.45200  0.57960  Biso   1.000  C
  C88      1.0000 0.95240  0.45200  0.92040  Biso   1.000  C
  O1       1.0000 0.28019  0.22770  0.14180  Biso   1.000  O
  O2       1.0000 0.71981  0.22770  0.35820  Biso   1.000  O
  O3       1.0000 0.78019  0.72770  0.14180  Biso   1.000  O
  O4       1.0000 0.21981  0.72770  0.35820  Biso   1.000  O
  O5       1.0000 0.71981  0.77230  0.85820  Biso   1.000  O
  O6       1.0000 0.28019  0.77230  0.64180  Biso   1.000  O
  O7       1.0000 0.21981  0.27230  0.85820  Biso   1.000  O
  O8       1.0000 0.78019  0.27230  0.64180  Biso   1.000  O
  O9       1.0000 0.27555  0.02660  0.39180  Biso   1.000  O
  O10      1.0000 0.72445  0.02660  0.10820  Biso   1.000  O
  O11      1.0000 0.77555  0.52660  0.39180  Biso   1.000  O
  O12      1.0000 0.22445  0.52660  0.10820  Biso   1.000  O
  O13      1.0000 0.72445  0.97340  0.60820  Biso   1.000  O
  O14      1.0000 0.27555  0.97340  0.89180  Biso   1.000  O
  O15      1.0000 0.22445  0.47340  0.60820  Biso   1.000  O
  O16      1.0000 0.77555  0.47340  0.89180  Biso   1.000  O
  O17      1.0000 0.28672  0.35020  0.44320  Biso   1.000  O
  O18      1.0000 0.71328  0.35020  0.05680  Biso   1.000  O
  O19      1.0000 0.78672  0.85020  0.44320  Biso   1.000  O
  O20      1.0000 0.21328  0.85020  0.05680  Biso   1.000  O
  O21      1.0000 0.71328  0.64980  0.55680  Biso   1.000  O
  O22      1.0000 0.28672  0.64980  0.94320  Biso   1.000  O
  O23      1.0000 0.21328  0.14980  0.55680  Biso   1.000  O
  O24      1.0000 0.78672  0.14980  0.94320  Biso   1.000  O
  O25      1.0000 0.46170  0.88580  0.39800  Biso   1.000  O
  O26      1.0000 0.53830  0.88580  0.10200  Biso   1.000  O
  O27      1.0000 0.96170  0.38580  0.39800  Biso   1.000  O
  O28      1.0000 0.03830  0.38580  0.10200  Biso   1.000  O
  O29      1.0000 0.53830  0.11420  0.60200  Biso   1.000  O
  O30      1.0000 0.46170  0.11420  0.89800  Biso   1.000  O
  O31      1.0000 0.03830  0.61420  0.60200  Biso   1.000  O
  O32      1.0000 0.96170  0.61420  0.89800  Biso   1.000  O
  H49      1.0000 0.48200  0.87110  0.43470  Biso   1.000  H
  H50      1.0000 0.51800  0.87110  0.06530  Biso   1.000  H
  H51      1.0000 0.98200  0.37110  0.43470  Biso   1.000  H
  H52      1.0000 0.01800  0.37110  0.06530  Biso   1.000  H
  H53      1.0000 0.51800  0.12890  0.56530  Biso   1.000  H
  H54      1.0000 0.48200  0.12890  0.93470  Biso   1.000  H
  H55      1.0000 0.01800  0.62890  0.56530  Biso   1.000  H
  H56      1.0000 0.98200  0.62890  0.93470  Biso   1.000  H
  O33      1.0000 0.47240  0.16060  0.48200  Biso   1.000  O
  O34      1.0000 0.52760  0.16060  0.01800  Biso   1.000  O
  O35      1.0000 0.97240  0.66060  0.48200  Biso   1.000  O
  O36      1.0000 0.02760  0.66060  0.01800  Biso   1.000  O
  O37      1.0000 0.52760  0.83940  0.51800  Biso   1.000  O
  O38      1.0000 0.47240  0.83940  0.98200  Biso   1.000  O
  O39      1.0000 0.02760  0.33940  0.51800  Biso   1.000  O
  O40      1.0000 0.97240  0.33940  0.98200  Biso   1.000  O
  O41      1.0000 0.20881  0.18580  0.20890  Biso   1.000  O
  O42      1.0000 0.79119  0.18580  0.29110  Biso   1.000  O
  O43      1.0000 0.70881  0.68580  0.20890  Biso   1.000  O
  O44      1.0000 0.29119  0.68580  0.29110  Biso   1.000  O
  O45      1.0000 0.79119  0.81420  0.79110  Biso   1.000  O
  O46      1.0000 0.20881  0.81420  0.70890  Biso   1.000  O
  O47      1.0000 0.29119  0.31420  0.79110  Biso   1.000  O
  O48      1.0000 0.70881  0.31420  0.70890  Biso   1.000  O
  H57      1.0000 0.20690  0.29110  0.17740  Biso   1.000  H
  H58      1.0000 0.79310  0.29110  0.32260  Biso   1.000  H
  H59      1.0000 0.70690  0.79110  0.17740  Biso   1.000  H
  H60      1.0000 0.29310  0.79110  0.32260  Biso   1.000  H
  H61      1.0000 0.79310  0.70890  0.82260  Biso   1.000  H
  H62      1.0000 0.20690  0.70890  0.67740  Biso   1.000  H
  H63      1.0000 0.29310  0.20890  0.82260  Biso   1.000  H
  H64      1.0000 0.70690  0.20890  0.67740  Biso   1.000  H
  H65      1.0000 0.21580  0.17960  0.31300  Biso   1.000  H
  H66      1.0000 0.78420  0.17960  0.18700  Biso   1.000  H
  H67      1.0000 0.71580  0.67960  0.31300  Biso   1.000  H
  H68      1.0000 0.28420  0.67960  0.18700  Biso   1.000  H
  H69      1.0000 0.78420  0.82040  0.68700  Biso   1.000  H
  H70      1.0000 0.21580  0.82040  0.81300  Biso   1.000  H
  H71      1.0000 0.28420  0.32040  0.68700  Biso   1.000  H
  H72      1.0000 0.71580  0.32040  0.81300  Biso   1.000  H
  O49      1.0000 0.45780  0.88710  0.46800  Biso   1.000  O
  O50      1.0000 0.54220  0.88710  0.03200  Biso   1.000  O
  O51      1.0000 0.95780  0.38710  0.46800  Biso   1.000  O
  O52      1.0000 0.04220  0.38710  0.03200  Biso   1.000  O
  O53      1.0000 0.54220  0.11290  0.53200  Biso   1.000  O
  O54      1.0000 0.45780  0.11290  0.96800  Biso   1.000  O
  O55      1.0000 0.04220  0.61290  0.53200  Biso   1.000  O
  O56      1.0000 0.95780  0.61290  0.96800  Biso   1.000  O
  H73      1.0000 0.47830  0.87640  0.50330  Biso   1.000  H
  H74      1.0000 0.52170  0.87640  0.99670  Biso   1.000  H
  H75      1.0000 0.97830  0.37640  0.50330  Biso   1.000  H
  H76      1.0000 0.02170  0.37640  0.99670  Biso   1.000  H
  H77      1.0000 0.52170  0.12360  0.49670  Biso   1.000  H
  H78      1.0000 0.47830  0.12360  0.00330  Biso   1.000  H
  H79      1.0000 0.02170  0.62360  0.49670  Biso   1.000  H
  H80      1.0000 0.97830  0.62360  0.00330  Biso   1.000  H
  O57      1.0000 0.47670  0.15700  0.41400  Biso   1.000  O
  O58      1.0000 0.52330  0.15700  0.08600  Biso   1.000  O
  O59      1.0000 0.97670  0.65700  0.41400  Biso   1.000  O
  O60      1.0000 0.02330  0.65700  0.08600  Biso   1.000  O
  O61      1.0000 0.52330  0.84300  0.58600  Biso   1.000  O
  O62      1.0000 0.47670  0.84300  0.91400  Biso   1.000  O
  O63      1.0000 0.02330  0.34300  0.58600  Biso   1.000  O
  O64      1.0000 0.97670  0.34300  0.91400  Biso   1.000  O
