data_image0
_cell_length_a       7.0084
_cell_length_b       10.1467
_cell_length_c       15.2168
_cell_angle_alpha    93.711
_cell_angle_beta     94.531
_cell_angle_gamma    104.345

_symmetry_space_group_name_H-M    "P 1"
_symmetry_int_tables_number       1

loop_
  _symmetry_equiv_pos_as_xyz
  'x, y, z'

loop_
  _atom_site_label
  _atom_site_occupancy
  _atom_site_fract_x
  _atom_site_fract_y
  _atom_site_fract_z
  _atom_site_thermal_displace_type
  _atom_site_B_iso_or_equiv
  _atom_site_type_symbol
  Cu1      1.0000 0.78788  0.90971  0.53234  Biso   1.000  Cu
  Cu2      1.0000 0.21212  0.09029  0.46766  Biso   1.000  Cu
  N1       1.0000 0.73300  0.79920  0.70640  Biso   1.000  N
  N2       1.0000 0.26700  0.20080  0.29360  Biso   1.000  N
  N3       1.0000 0.74840  0.77210  0.62160  Biso   1.000  N
  N4       1.0000 0.25160  0.22790  0.37840  Biso   1.000  N
  C1       1.0000 0.75060  0.64560  0.59000  Biso   1.000  C
  C2       1.0000 0.24940  0.35440  0.41000  Biso   1.000  C
  N5       1.0000 0.75760  0.54420  0.64070  Biso   1.000  N
  N6       1.0000 0.24240  0.45580  0.35930  Biso   1.000  N
  C3       1.0000 0.76200  0.57140  0.72760  Biso   1.000  C
  C4       1.0000 0.23800  0.42860  0.27240  Biso   1.000  C
  C5       1.0000 0.73260  0.70000  0.76070  Biso   1.000  C
  C6       1.0000 0.26740  0.30000  0.23930  Biso   1.000  C
  C7       1.0000 0.75810  0.62720  0.49390  Biso   1.000  C
  C8       1.0000 0.24190  0.37280  0.50610  Biso   1.000  C
  N7       1.0000 0.77330  0.74300  0.45240  Biso   1.000  N
  N8       1.0000 0.22670  0.25700  0.54760  Biso   1.000  N
  C9       1.0000 0.78750  0.73940  0.36460  Biso   1.000  C
  C10      1.0000 0.21250  0.26060  0.63540  Biso   1.000  C
  H1       1.0000 0.80020  0.81930  0.33640  Biso   1.000  H
  H2       1.0000 0.19980  0.18070  0.66360  Biso   1.000  H
  C11      1.0000 0.78370  0.61940  0.31590  Biso   1.000  C
  C12      1.0000 0.21630  0.38060  0.68410  Biso   1.000  C
  H3       1.0000 0.79160  0.61820  0.25510  Biso   1.000  H
  H4       1.0000 0.20840  0.38180  0.74490  Biso   1.000  H
  C13      1.0000 0.76790  0.50060  0.35770  Biso   1.000  C
  C14      1.0000 0.23210  0.49940  0.64230  Biso   1.000  C
  H5       1.0000 0.76690  0.41930  0.32560  Biso   1.000  H
  H6       1.0000 0.23310  0.58070  0.67440  Biso   1.000  H
  C15      1.0000 0.75350  0.50450  0.44860  Biso   1.000  C
  C16      1.0000 0.24650  0.49550  0.55140  Biso   1.000  C
  H7       1.0000 0.74090  0.42570  0.47800  Biso   1.000  H
  H8       1.0000 0.25910  0.57430  0.52200  Biso   1.000  H
  C17      1.0000 0.80620  0.46810  0.78340  Biso   1.000  C
  C18      1.0000 0.19380  0.53190  0.21660  Biso   1.000  C
  C19      1.0000 0.71890  0.33000  0.75950  Biso   1.000  C
  C20      1.0000 0.28110  0.67000  0.24050  Biso   1.000  C
  H9       1.0000 0.62750  0.30400  0.70980  Biso   1.000  H
  H10      1.0000 0.37250  0.69600  0.29020  Biso   1.000  H
  C21      1.0000 0.76780  0.23070  0.80970  Biso   1.000  C
  C22      1.0000 0.23220  0.76930  0.19030  Biso   1.000  C
  H11      1.0000 0.70480  0.13900  0.79510  Biso   1.000  H
  H12      1.0000 0.29520  0.86100  0.20490  Biso   1.000  H
  C23      1.0000 0.91000  0.26890  0.88120  Biso   1.000  C
  C24      1.0000 0.09000  0.73110  0.11880  Biso   1.000  C
  H13      1.0000 0.94430  0.20280  0.91430  Biso   1.000  H
  H14      1.0000 0.05570  0.79720  0.08570  Biso   1.000  H
  C25      1.0000 0.00120  0.40600  0.90330  Biso   1.000  C
  C26      1.0000 0.99880  0.59400  0.09670  Biso   1.000  C
  H15      1.0000 0.09960  0.43100  0.95040  Biso   1.000  H
  H16      1.0000 0.90040  0.56900  0.04960  Biso   1.000  H
  C27      1.0000 0.94890  0.50560  0.85700  Biso   1.000  C
  C28      1.0000 0.05110  0.49440  0.14300  Biso   1.000  C
  H17      1.0000 0.00750  0.59730  0.87420  Biso   1.000  H
  H18      1.0000 0.99250  0.40270  0.12580  Biso   1.000  H
  C29      1.0000 0.69380  0.73510  0.85250  Biso   1.000  C
  C30      1.0000 0.30620  0.26490  0.14750  Biso   1.000  C
  C31      1.0000 0.77940  0.86640  0.89270  Biso   1.000  C
  C32      1.0000 0.22060  0.13360  0.10730  Biso   1.000  C
  H19      1.0000 0.86660  0.92900  0.86340  Biso   1.000  H
  H20      1.0000 0.13340  0.07100  0.13660  Biso   1.000  H
  C33      1.0000 0.73480  0.90320  0.97580  Biso   1.000  C
  C34      1.0000 0.26520  0.09680  0.02420  Biso   1.000  C
  H21      1.0000 0.79350  0.99030  0.00270  Biso   1.000  H
  H22      1.0000 0.20650  0.00970  0.99730  Biso   1.000  H
  C35      1.0000 0.60340  0.81160  0.01950  Biso   1.000  C
  C36      1.0000 0.39660  0.18840  0.98050  Biso   1.000  C
  H23      1.0000 0.57200  0.83740  0.07520  Biso   1.000  H
  H24      1.0000 0.42800  0.16260  0.92480  Biso   1.000  H
  C37      1.0000 0.51900  0.68180  0.98020  Biso   1.000  C
  C38      1.0000 0.48100  0.31820  0.01980  Biso   1.000  C
  H25      1.0000 0.43160  0.62000  0.01000  Biso   1.000  H
  H26      1.0000 0.56840  0.38000  0.99000  Biso   1.000  H
  C39      1.0000 0.56250  0.64220  0.89700  Biso   1.000  C
  C40      1.0000 0.43750  0.35780  0.10300  Biso   1.000  C
  H27      1.0000 0.50460  0.55440  0.87100  Biso   1.000  H
  H28      1.0000 0.49540  0.44560  0.12900  Biso   1.000  H
  O1       1.0000 0.76470  0.06430  0.61020  Biso   1.000  O
  O2       1.0000 0.23530  0.93570  0.38980  Biso   1.000  O
  H29      1.0000 0.72220  0.11940  0.56580  Biso   1.000  H
  H30      1.0000 0.27780  0.88060  0.43420  Biso   1.000  H
  H31      1.0000 0.64360  0.03080  0.63970  Biso   1.000  H
  H32      1.0000 0.35640  0.96920  0.36030  Biso   1.000  H
  S1       1.0000 0.72099  0.10575  0.39318  Biso   1.000  S
  S2       1.0000 0.27901  0.89425  0.60682  Biso   1.000  S
  O3       1.0000 0.86300  0.03600  0.44100  Biso   1.000  O
  O4       1.0000 0.13700  0.96400  0.55900  Biso   1.000  O
  O5       1.0000 0.58190  0.00330  0.33130  Biso   1.000  O
  O6       1.0000 0.41810  0.99670  0.66870  Biso   1.000  O
  O7       1.0000 0.61900  0.16160  0.46070  Biso   1.000  O
  O8       1.0000 0.38100  0.83840  0.53930  Biso   1.000  O
  O9       1.0000 0.83990  0.21140  0.34580  Biso   1.000  O
  O10      1.0000 0.16010  0.78860  0.65420  Biso   1.000  O
  O11      1.0000 0.76860  0.14450  0.15430  Biso   1.000  O
  O12      1.0000 0.23140  0.85550  0.84570  Biso   1.000  O
  H33      1.0000 0.65530  0.15940  0.13860  Biso   1.000  H
  H34      1.0000 0.34470  0.84060  0.86140  Biso   1.000  H
  H35      1.0000 0.79010  0.16390  0.20990  Biso   1.000  H
  H36      1.0000 0.20990  0.83610  0.79010  Biso   1.000  H
