data_image0
_cell_length_a       10.278
_cell_length_b       10.969
_cell_length_c       11.716
_cell_angle_alpha    111.56
_cell_angle_beta     110.7
_cell_angle_gamma    101.12

_symmetry_space_group_name_H-M    "P 1"
_symmetry_int_tables_number       1

loop_
  _symmetry_equiv_pos_as_xyz
  'x, y, z'

loop_
  _atom_site_label
  _atom_site_occupancy
  _atom_site_fract_x
  _atom_site_fract_y
  _atom_site_fract_z
  _atom_site_thermal_displace_type
  _atom_site_B_iso_or_equiv
  _atom_site_type_symbol
  Cu1      1.0000 0.31761  0.26657  0.44497  Biso   1.000  Cu
  Cu2      1.0000 0.68239  0.73343  0.55503  Biso   1.000  Cu
  Cu3      1.0000 0.32197  0.98634  0.27057  Biso   1.000  Cu
  Cu4      1.0000 0.67803  0.01366  0.72943  Biso   1.000  Cu
  O1       1.0000 0.18350  0.08750  0.27270  Biso   1.000  O
  O2       1.0000 0.81650  0.91250  0.72730  Biso   1.000  O
  O3       1.0000 0.20650  0.35790  0.77660  Biso   1.000  O
  O4       1.0000 0.79350  0.64210  0.22340  Biso   1.000  O
  O5       1.0000 0.19360  0.54490  0.14670  Biso   1.000  O
  O6       1.0000 0.80640  0.45510  0.85330  Biso   1.000  O
  N1       1.0000 0.45510  0.18920  0.38130  Biso   1.000  N
  N2       1.0000 0.54490  0.81080  0.61870  Biso   1.000  N
  N3       1.0000 0.58050  0.23600  0.40150  Biso   1.000  N
  N4       1.0000 0.41950  0.76400  0.59850  Biso   1.000  N
  N5       1.0000 0.70040  0.27700  0.42070  Biso   1.000  N
  N6       1.0000 0.29960  0.72300  0.57930  Biso   1.000  N
  N7       1.0000 0.48310  0.41480  0.62320  Biso   1.000  N
  N8       1.0000 0.51690  0.58520  0.37680  Biso   1.000  N
  N9       1.0000 0.58540  0.49700  0.63240  Biso   1.000  N
  N10      1.0000 0.41460  0.50300  0.36760  Biso   1.000  N
  N11      1.0000 0.68880  0.57770  0.64750  Biso   1.000  N
  N12      1.0000 0.31120  0.42230  0.35250  Biso   1.000  N
  N13      1.0000 0.49380  0.92930  0.28930  Biso   1.000  N
  N14      1.0000 0.50620  0.07070  0.71070  Biso   1.000  N
  N15      1.0000 0.58840  0.96850  0.40390  Biso   1.000  N
  N16      1.0000 0.41160  0.03150  0.59610  Biso   1.000  N
  N17      1.0000 0.68390  0.00440  0.51270  Biso   1.000  N
  N18      1.0000 0.31610  0.99560  0.48730  Biso   1.000  N
  N19      1.0000 0.14220  0.28310  0.49180  Biso   1.000  N
  N20      1.0000 0.85780  0.71690  0.50820  Biso   1.000  N
  N21      1.0000 0.16010  0.79340  0.12320  Biso   1.000  N
  N22      1.0000 0.83990  0.20660  0.87680  Biso   1.000  N
  C1       1.0000 0.16930  0.42720  0.59620  Biso   1.000  C
  C2       1.0000 0.83070  0.57280  0.40380  Biso   1.000  C
  C3       1.0000 0.26630  0.46190  0.74440  Biso   1.000  C
  C4       1.0000 0.73370  0.53810  0.25560  Biso   1.000  C
  C5       1.0000 0.19960  0.22540  0.68550  Biso   1.000  C
  C6       1.0000 0.80040  0.77460  0.31450  Biso   1.000  C
  C7       1.0000 0.09260  0.17930  0.53620  Biso   1.000  C
  C8       1.0000 0.90740  0.82070  0.46380  Biso   1.000  C
  C9       1.0000 0.01530  0.25300  0.35800  Biso   1.000  C
  C10      1.0000 0.98470  0.74700  0.64200  Biso   1.000  C
  C11      1.0000 0.94640  0.10330  0.24440  Biso   1.000  C
  C12      1.0000 0.05360  0.89670  0.75560  Biso   1.000  C
  C13      1.0000 0.03200  0.03090  0.20170  Biso   1.000  C
  C14      1.0000 0.96800  0.96910  0.79830  Biso   1.000  C
  C15      1.0000 0.96200  0.90000  0.08230  Biso   1.000  C
  C16      1.0000 0.03800  0.10000  0.91770  Biso   1.000  C
  C17      1.0000 0.80570  0.83910  0.01080  Biso   1.000  C
  C18      1.0000 0.19430  0.16090  0.98920  Biso   1.000  C
  C19      1.0000 0.71820  0.90650  0.05530  Biso   1.000  C
  C20      1.0000 0.28180  0.09350  0.94470  Biso   1.000  C
  C21      1.0000 0.78950  0.03800  0.17110  Biso   1.000  C
  C22      1.0000 0.21050  0.96200  0.82890  Biso   1.000  C
  C23      1.0000 0.54940  0.83350  0.97960  Biso   1.000  C
  C24      1.0000 0.45060  0.16650  0.02040  Biso   1.000  C
  C25      1.0000 0.05090  0.82670  0.02520  Biso   1.000  C
  C26      1.0000 0.94910  0.17330  0.97480  Biso   1.000  C
  C27      1.0000 0.20930  0.69290  0.03670  Biso   1.000  C
  C28      1.0000 0.79070  0.30710  0.96330  Biso   1.000  C
  C29      1.0000 0.28540  0.61430  0.10480  Biso   1.000  C
  C30      1.0000 0.71460  0.38570  0.89520  Biso   1.000  C
  C31      1.0000 0.17030  0.64950  0.24530  Biso   1.000  C
  C32      1.0000 0.82970  0.35050  0.75470  Biso   1.000  C
  C33      1.0000 0.08020  0.72030  0.17820  Biso   1.000  C
  C34      1.0000 0.91980  0.27970  0.82180  Biso   1.000  C
  H1       1.0000 0.50500  0.88800  0.01400  Biso   1.000  H
  H2       1.0000 0.49500  0.11200  0.98600  Biso   1.000  H
  H3       1.0000 0.51900  0.81300  0.89200  Biso   1.000  H
  H4       1.0000 0.48100  0.18700  0.10800  Biso   1.000  H
  H5       1.0000 0.52400  0.75500  0.99600  Biso   1.000  H
  H6       1.0000 0.47600  0.24500  0.00400  Biso   1.000  H
  H7       1.0000 0.07340  0.43290  0.58700  Biso   1.000  H
  H8       1.0000 0.92660  0.56710  0.41300  Biso   1.000  H
  H9       1.0000 0.21850  0.49630  0.57680  Biso   1.000  H
  H10      1.0000 0.78150  0.50370  0.42320  Biso   1.000  H
  H11      1.0000 0.36590  0.46630  0.75700  Biso   1.000  H
  H12      1.0000 0.63410  0.53370  0.24300  Biso   1.000  H
  H13      1.0000 0.27230  0.55270  0.80670  Biso   1.000  H
  H14      1.0000 0.72770  0.44730  0.19330  Biso   1.000  H
  H15      1.0000 0.16530  0.15510  0.71070  Biso   1.000  H
  H16      1.0000 0.83470  0.84490  0.28930  Biso   1.000  H
  H17      1.0000 0.29870  0.23350  0.69430  Biso   1.000  H
  H18      1.0000 0.70130  0.76650  0.30570  Biso   1.000  H
  H19      1.0000 0.08900  0.08810  0.47690  Biso   1.000  H
  H20      1.0000 0.91100  0.91190  0.52310  Biso   1.000  H
  H21      1.0000 0.99360  0.17160  0.52750  Biso   1.000  H
  H22      1.0000 0.00640  0.82840  0.47250  Biso   1.000  H
  H23      1.0000 0.05310  0.31280  0.32420  Biso   1.000  H
  H24      1.0000 0.94690  0.68720  0.67580  Biso   1.000  H
  H25      1.0000 0.93720  0.27720  0.37820  Biso   1.000  H
  H26      1.0000 0.06280  0.72280  0.62180  Biso   1.000  H
  H27      1.0000 0.75720  0.74780  0.92840  Biso   1.000  H
  H28      1.0000 0.24280  0.25220  0.07160  Biso   1.000  H
  H29      1.0000 0.72960  0.08660  0.20260  Biso   1.000  H
  H30      1.0000 0.27040  0.91340  0.79740  Biso   1.000  H
  H31      1.0000 0.98140  0.73880  0.94200  Biso   1.000  H
  H32      1.0000 0.01860  0.26120  0.05800  Biso   1.000  H
  H33      1.0000 0.10670  0.88700  0.00160  Biso   1.000  H
  H34      1.0000 0.89330  0.11300  0.99840  Biso   1.000  H
  H35      1.0000 0.27900  0.74620  0.01830  Biso   1.000  H
  H36      1.0000 0.72100  0.25380  0.98170  Biso   1.000  H
  H37      1.0000 0.12180  0.62400  0.94980  Biso   1.000  H
  H38      1.0000 0.87820  0.37600  0.05020  Biso   1.000  H
  H39      1.0000 0.30400  0.54460  0.03930  Biso   1.000  H
  H40      1.0000 0.69600  0.45540  0.96070  Biso   1.000  H
  H41      1.0000 0.37980  0.68110  0.18560  Biso   1.000  H
  H42      1.0000 0.62020  0.31890  0.81440  Biso   1.000  H
  H43      1.0000 0.26660  0.72010  0.32040  Biso   1.000  H
  H44      1.0000 0.73340  0.27990  0.67960  Biso   1.000  H
  H45      1.0000 0.11650  0.60520  0.28170  Biso   1.000  H
  H46      1.0000 0.88350  0.39480  0.71830  Biso   1.000  H
  H47      1.0000 0.98450  0.64940  0.10250  Biso   1.000  H
  H48      1.0000 0.01550  0.35060  0.89750  Biso   1.000  H
  H49      1.0000 0.06380  0.78920  0.24660  Biso   1.000  H
  H50      1.0000 0.93620  0.21080  0.75340  Biso   1.000  H
