data_image0
_cell_length_a       10.1796
_cell_length_b       12.077
_cell_length_c       15.613
_cell_angle_alpha    67.474
_cell_angle_beta     80.87
_cell_angle_gamma    67.409

_symmetry_space_group_name_H-M    "P 1"
_symmetry_int_tables_number       1

loop_
  _symmetry_equiv_pos_as_xyz
  'x, y, z'

loop_
  _atom_site_label
  _atom_site_occupancy
  _atom_site_fract_x
  _atom_site_fract_y
  _atom_site_fract_z
  _atom_site_thermal_displace_type
  _atom_site_B_iso_or_equiv
  _atom_site_type_symbol
  Cu1      1.0000 0.31736  0.28526  0.24867  Biso   1.000  Cu
  Cu2      1.0000 0.68264  0.71474  0.75133  Biso   1.000  Cu
  Cu3      1.0000 0.50782  0.12974  0.40973  Biso   1.000  Cu
  Cu4      1.0000 0.49218  0.87026  0.59027  Biso   1.000  Cu
  N1       1.0000 0.44980  0.37690  0.17664  Biso   1.000  N
  N2       1.0000 0.55020  0.62310  0.82336  Biso   1.000  N
  N3       1.0000 0.41520  0.17300  0.17410  Biso   1.000  N
  N4       1.0000 0.58480  0.82700  0.82590  Biso   1.000  N
  C1       1.0000 0.46380  0.48020  0.17980  Biso   1.000  C
  C2       1.0000 0.53620  0.51980  0.82020  Biso   1.000  C
  H1       1.0000 0.40230  0.52240  0.21750  Biso   1.000  H
  H2       1.0000 0.59770  0.47760  0.78250  Biso   1.000  H
  C3       1.0000 0.56850  0.52710  0.12800  Biso   1.000  C
  C4       1.0000 0.43150  0.47290  0.87200  Biso   1.000  C
  H3       1.0000 0.57560  0.59980  0.13130  Biso   1.000  H
  H4       1.0000 0.42440  0.40020  0.86870  Biso   1.000  H
  C5       1.0000 0.66000  0.46680  0.07280  Biso   1.000  C
  C6       1.0000 0.34000  0.53320  0.92720  Biso   1.000  C
  H5       1.0000 0.73040  0.49750  0.03880  Biso   1.000  H
  H6       1.0000 0.26960  0.50250  0.96120  Biso   1.000  H
  C7       1.0000 0.64760  0.35830  0.06720  Biso   1.000  C
  C8       1.0000 0.35240  0.64170  0.93280  Biso   1.000  C
  C9       1.0000 0.73740  0.28440  0.01150  Biso   1.000  C
  C10      1.0000 0.26260  0.71560  0.98850  Biso   1.000  C
  H7       1.0000 0.80990  0.30970  0.97530  Biso   1.000  H
  H8       1.0000 0.19010  0.69030  0.02470  Biso   1.000  H
  C11      1.0000 0.71900  0.18150  0.01060  Biso   1.000  C
  C12      1.0000 0.28100  0.81850  0.98940  Biso   1.000  C
  H9       1.0000 0.77930  0.13610  0.97450  Biso   1.000  H
  H10      1.0000 0.22070  0.86390  0.02550  Biso   1.000  H
  C13      1.0000 0.60860  0.13990  0.06420  Biso   1.000  C
  C14      1.0000 0.39140  0.86010  0.93580  Biso   1.000  C
  C15      1.0000 0.58600  0.02960  0.06950  Biso   1.000  C
  C16      1.0000 0.41400  0.97040  0.93050  Biso   1.000  C
  H11      1.0000 0.64340  0.97990  0.03530  Biso   1.000  H
  H12      1.0000 0.35660  0.02010  0.96470  Biso   1.000  H
  C17      1.0000 0.48110  0.99620  0.12410  Biso   1.000  C
  C18      1.0000 0.51890  0.00380  0.87590  Biso   1.000  C
  H13      1.0000 0.46590  0.92360  0.12710  Biso   1.000  H
  H14      1.0000 0.53410  0.07640  0.87290  Biso   1.000  H
  C19      1.0000 0.39550  0.06920  0.17590  Biso   1.000  C
  C20      1.0000 0.60450  0.93080  0.82410  Biso   1.000  C
  H15      1.0000 0.32280  0.04520  0.21280  Biso   1.000  H
  H16      1.0000 0.67720  0.95480  0.78720  Biso   1.000  H
  C21      1.0000 0.52030  0.20760  0.11920  Biso   1.000  C
  C22      1.0000 0.47970  0.79240  0.88080  Biso   1.000  C
  C23      1.0000 0.53970  0.31750  0.12100  Biso   1.000  C
  C24      1.0000 0.46030  0.68250  0.87900  Biso   1.000  C
  N5       1.0000 0.63510  0.23240  0.36900  Biso   1.000  N
  N6       1.0000 0.36490  0.76760  0.63100  Biso   1.000  N
  N7       1.0000 0.65240  0.02430  0.34170  Biso   1.000  N
  N8       1.0000 0.34760  0.97570  0.65830  Biso   1.000  N
  C25      1.0000 0.62410  0.33500  0.38820  Biso   1.000  C
  C26      1.0000 0.37590  0.66500  0.61180  Biso   1.000  C
  H17      1.0000 0.54920  0.36710  0.42500  Biso   1.000  H
  H18      1.0000 0.45080  0.63290  0.57500  Biso   1.000  H
  C27      1.0000 0.72780  0.39420  0.35180  Biso   1.000  C
  C28      1.0000 0.27220  0.60580  0.64820  Biso   1.000  C
  H19      1.0000 0.72140  0.46430  0.36590  Biso   1.000  H
  H20      1.0000 0.27860  0.53570  0.63410  Biso   1.000  H
  C29      1.0000 0.83570  0.34960  0.29680  Biso   1.000  C
  C30      1.0000 0.16430  0.65040  0.70320  Biso   1.000  C
  H21      1.0000 0.90120  0.39060  0.27200  Biso   1.000  H
  H22      1.0000 0.09880  0.60940  0.72800  Biso   1.000  H
  C31      1.0000 0.84870  0.24340  0.27730  Biso   1.000  C
  C32      1.0000 0.15130  0.75660  0.72270  Biso   1.000  C
  C33      1.0000 0.96070  0.18560  0.22130  Biso   1.000  C
  C34      1.0000 0.03930  0.81440  0.77870  Biso   1.000  C
  H23      1.0000 0.02880  0.22300  0.19400  Biso   1.000  H
  H24      1.0000 0.97120  0.77700  0.80600  Biso   1.000  H
  C35      1.0000 0.96950  0.08160  0.20770  Biso   1.000  C
  C36      1.0000 0.03050  0.91840  0.79230  Biso   1.000  C
  H25      1.0000 0.04350  0.04790  0.17110  Biso   1.000  H
  H26      1.0000 0.95650  0.95210  0.82890  Biso   1.000  H
  C37      1.0000 0.86750  0.01900  0.24800  Biso   1.000  C
  C38      1.0000 0.13250  0.98100  0.75200  Biso   1.000  C
  C39      1.0000 0.87130  0.90820  0.23860  Biso   1.000  C
  C40      1.0000 0.12870  0.09180  0.76140  Biso   1.000  C
  H27      1.0000 0.94430  0.86780  0.20470  Biso   1.000  H
  H28      1.0000 0.05570  0.13220  0.79530  Biso   1.000  H
  C41      1.0000 0.76750  0.85880  0.27940  Biso   1.000  C
  C42      1.0000 0.23250  0.14120  0.72060  Biso   1.000  C
  H29      1.0000 0.76890  0.78510  0.27260  Biso   1.000  H
  H30      1.0000 0.23110  0.21490  0.72740  Biso   1.000  H
  C43      1.0000 0.65870  0.91850  0.33160  Biso   1.000  C
  C44      1.0000 0.34130  0.08150  0.66840  Biso   1.000  C
  H31      1.0000 0.58930  0.88300  0.35980  Biso   1.000  H
  H32      1.0000 0.41070  0.11700  0.64020  Biso   1.000  H
  C45      1.0000 0.75480  0.07520  0.30070  Biso   1.000  C
  C46      1.0000 0.24520  0.92480  0.69930  Biso   1.000  C
  C47      1.0000 0.74520  0.18730  0.31540  Biso   1.000  C
  C48      1.0000 0.25480  0.81270  0.68460  Biso   1.000  C
  O1       1.0000 0.13890  0.40680  0.15200  Biso   1.000  O
  O2       1.0000 0.86110  0.59320  0.84800  Biso   1.000  O
  H33      1.0000 0.14800  0.38330  0.11130  Biso   1.000  H
  H34      1.0000 0.85200  0.61670  0.88870  Biso   1.000  H
  H35      1.0000 0.08560  0.47470  0.13870  Biso   1.000  H
  H36      1.0000 0.91440  0.52530  0.86130  Biso   1.000  H
  O3       1.0000 0.23140  0.16170  0.33174  Biso   1.000  O
  O4       1.0000 0.76860  0.83830  0.66826  Biso   1.000  O
  O5       1.0000 0.38890  0.02390  0.44156  Biso   1.000  O
  O6       1.0000 0.61110  0.97610  0.55844  Biso   1.000  O
  C49      1.0000 0.27370  0.06150  0.40080  Biso   1.000  C
  C50      1.0000 0.72630  0.93850  0.59920  Biso   1.000  C
  C51      1.0000 0.18030  0.98210  0.43520  Biso   1.000  C
  C52      1.0000 0.81970  0.01790  0.56480  Biso   1.000  C
  H37      1.0000 0.23480  0.89740  0.47630  Biso   1.000  H
  H38      1.0000 0.76520  0.10260  0.52370  Biso   1.000  H
  H39      1.0000 0.15200  0.97240  0.38280  Biso   1.000  H
  H40      1.0000 0.84800  0.02760  0.61720  Biso   1.000  H
  C53      1.0000 0.04830  0.03950  0.48610  Biso   1.000  C
  C54      1.0000 0.95170  0.96050  0.51390  Biso   1.000  C
  H41      1.0000 0.99630  0.12630  0.44670  Biso   1.000  H
  H42      1.0000 0.00370  0.87370  0.55330  Biso   1.000  H
  H43      1.0000 0.07580  0.04350  0.54130  Biso   1.000  H
  H44      1.0000 0.92420  0.95650  0.45870  Biso   1.000  H
  O7       1.0000 0.24530  0.38940  0.32610  Biso   1.000  O
  O8       1.0000 0.75470  0.61060  0.67390  Biso   1.000  O
  O9       1.0000 0.36300  0.25310  0.45530  Biso   1.000  O
  O10      1.0000 0.63700  0.74690  0.54470  Biso   1.000  O
  C55      1.0000 0.26880  0.35300  0.41080  Biso   1.000  C
  C56      1.0000 0.73120  0.64700  0.58920  Biso   1.000  C
  C57      1.0000 0.17850  0.43630  0.46430  Biso   1.000  C
  C58      1.0000 0.82150  0.56370  0.53570  Biso   1.000  C
  H45      1.0000 0.21430  0.39810  0.52700  Biso   1.000  H
  H46      1.0000 0.78570  0.60190  0.47300  Biso   1.000  H
  H47      1.0000 0.18990  0.51900  0.43640  Biso   1.000  H
  H48      1.0000 0.81010  0.48100  0.56360  Biso   1.000  H
  Cl1      1.0000 0.64380  0.27346  0.67680  Biso   1.000  Cl
  Cl2      1.0000 0.35620  0.72654  0.32320  Biso   1.000  Cl
  O11      1.0000 0.59570  0.39080  0.65760  Biso   1.000  O
  O12      1.0000 0.40430  0.60920  0.34240  Biso   1.000  O
  O13      1.0000 0.73900  0.17000  0.73760  Biso   1.000  O
  O14      1.0000 0.26100  0.83000  0.26240  Biso   1.000  O
  O15      1.0000 0.67800  0.23400  0.77730  Biso   1.000  O
  O16      1.0000 0.32200  0.76600  0.22270  Biso   1.000  O
  O17      1.0000 0.80660  0.23660  0.64170  Biso   1.000  O
  O18      1.0000 0.19340  0.76340  0.35830  Biso   1.000  O
  O19      1.0000 0.70500  0.32900  0.58100  Biso   1.000  O
  O20      1.0000 0.29500  0.67100  0.41900  Biso   1.000  O
  O21      1.0000 0.60090  0.18670  0.66970  Biso   1.000  O
  O22      1.0000 0.39910  0.81330  0.33030  Biso   1.000  O
  O23      1.0000 0.56690  0.23110  0.62920  Biso   1.000  O
  O24      1.0000 0.43310  0.76890  0.37080  Biso   1.000  O
  Cl3      1.0000 0.13546  0.28478  0.94588  Biso   1.000  Cl
  Cl4      1.0000 0.86454  0.71522  0.05412  Biso   1.000  Cl
  O25      1.0000 0.09860  0.36030  0.85200  Biso   1.000  O
  O26      1.0000 0.90140  0.63970  0.14800  Biso   1.000  O
  O27      1.0000 0.04540  0.33060  0.86900  Biso   1.000  O
  O28      1.0000 0.95460  0.66940  0.13100  Biso   1.000  O
  O29      1.0000 0.28250  0.25760  0.95680  Biso   1.000  O
  O30      1.0000 0.71750  0.74240  0.04320  Biso   1.000  O
  O31      1.0000 0.27750  0.26540  0.90960  Biso   1.000  O
  O32      1.0000 0.72250  0.73460  0.09040  Biso   1.000  O
  O33      1.0000 0.12800  0.16070  0.00770  Biso   1.000  O
  O34      1.0000 0.87200  0.83930  0.99230  Biso   1.000  O
  O35      1.0000 0.10160  0.17310  0.96800  Biso   1.000  O
  O36      1.0000 0.89840  0.82690  0.03200  Biso   1.000  O
  O37      1.0000 0.06690  0.36470  0.99860  Biso   1.000  O
  O38      1.0000 0.93310  0.63530  0.00140  Biso   1.000  O
  C59      1.0000 0.04570  0.45490  0.46900  Biso   1.000  C
  C60      1.0000 0.95430  0.54510  0.53100  Biso   1.000  C
  H49      1.0000 0.03310  0.37270  0.49620  Biso   1.000  H
  H50      1.0000 0.96690  0.62730  0.50380  Biso   1.000  H
  H51      1.0000 0.00810  0.49570  0.40670  Biso   1.000  H
  H52      1.0000 0.99190  0.50430  0.59330  Biso   1.000  H
