data_image0
_cell_length_a       7.8583
_cell_length_b       11.4586
_cell_length_c       12.488
_cell_angle_alpha    103.624
_cell_angle_beta     91.611
_cell_angle_gamma    100.448

_symmetry_space_group_name_H-M    "P 1"
_symmetry_int_tables_number       1

loop_
  _symmetry_equiv_pos_as_xyz
  'x, y, z'

loop_
  _atom_site_label
  _atom_site_occupancy
  _atom_site_fract_x
  _atom_site_fract_y
  _atom_site_fract_z
  _atom_site_thermal_displace_type
  _atom_site_B_iso_or_equiv
  _atom_site_type_symbol
  Cu1      1.0000 0.50000  0.50000  0.50000  Biso   1.000  Cu
  Cl1      1.0000 0.02763  0.21269  0.76892  Biso   1.000  Cl
  Cl2      1.0000 0.97237  0.78731  0.23108  Biso   1.000  Cl
  O1       1.0000 0.47930  0.64340  0.44862  Biso   1.000  O
  O2       1.0000 0.52070  0.35660  0.55138  Biso   1.000  O
  O3       1.0000 0.05180  0.12360  0.24880  Biso   1.000  O
  O4       1.0000 0.94820  0.87640  0.75120  Biso   1.000  O
  O5       1.0000 0.68830  0.76780  0.57030  Biso   1.000  O
  O6       1.0000 0.31170  0.23220  0.42970  Biso   1.000  O
  O7       1.0000 0.92810  0.27530  0.49990  Biso   1.000  O
  O8       1.0000 0.07190  0.72470  0.50010  Biso   1.000  O
  O9       1.0000 0.44120  0.59500  0.71121  Biso   1.000  O
  O10      1.0000 0.55880  0.40500  0.28879  Biso   1.000  O
  O11      1.0000 0.26860  0.49870  0.55967  Biso   1.000  O
  O12      1.0000 0.73140  0.50130  0.44033  Biso   1.000  O
  O13      1.0000 0.91340  0.28060  0.82860  Biso   1.000  O
  O14      1.0000 0.08660  0.71940  0.17140  Biso   1.000  O
  O15      1.0000 0.11400  0.15190  0.83370  Biso   1.000  O
  O16      1.0000 0.88600  0.84810  0.16630  Biso   1.000  O
  O17      1.0000 0.16070  0.29560  0.73220  Biso   1.000  O
  O18      1.0000 0.83930  0.70440  0.26780  Biso   1.000  O
  O19      1.0000 0.93750  0.12420  0.67700  Biso   1.000  O
  O20      1.0000 0.06250  0.87580  0.32300  Biso   1.000  O
  N1       1.0000 0.57860  0.00860  0.30020  Biso   1.000  N
  N2       1.0000 0.42140  0.99140  0.69980  Biso   1.000  N
  N3       1.0000 0.86770  0.63200  0.84560  Biso   1.000  N
  N4       1.0000 0.13230  0.36800  0.15440  Biso   1.000  N
  C1       1.0000 0.58160  0.83870  0.42230  Biso   1.000  C
  C2       1.0000 0.41840  0.16130  0.57770  Biso   1.000  C
  C3       1.0000 0.45740  0.82020  0.33680  Biso   1.000  C
  C4       1.0000 0.54260  0.17980  0.66320  Biso   1.000  C
  H1       1.0000 0.37300  0.74900  0.31980  Biso   1.000  H
  H2       1.0000 0.62700  0.25100  0.68020  Biso   1.000  H
  C5       1.0000 0.45710  0.90560  0.27660  Biso   1.000  C
  C6       1.0000 0.54290  0.09440  0.72340  Biso   1.000  C
  H3       1.0000 0.37250  0.89230  0.21920  Biso   1.000  H
  H4       1.0000 0.62750  0.10770  0.78080  Biso   1.000  H
  C7       1.0000 0.70000  0.03030  0.38420  Biso   1.000  C
  C8       1.0000 0.30000  0.96970  0.61580  Biso   1.000  C
  H5       1.0000 0.78210  0.10270  0.40040  Biso   1.000  H
  H6       1.0000 0.21790  0.89730  0.59960  Biso   1.000  H
  C9       1.0000 0.70370  0.94650  0.44620  Biso   1.000  C
  C10      1.0000 0.29630  0.05350  0.55380  Biso   1.000  C
  H7       1.0000 0.78810  0.96210  0.50420  Biso   1.000  H
  H8       1.0000 0.21190  0.03790  0.49580  Biso   1.000  H
  C11      1.0000 0.58650  0.74300  0.48770  Biso   1.000  C
  C12      1.0000 0.41350  0.25700  0.51230  Biso   1.000  C
  C13      1.0000 0.57520  0.10410  0.23580  Biso   1.000  C
  C14      1.0000 0.42480  0.89590  0.76420  Biso   1.000  C
  H9       1.0000 0.48820  0.15160  0.26330  Biso   1.000  H
  H10      1.0000 0.51180  0.84840  0.73670  Biso   1.000  H
  H11      1.0000 0.68690  0.15940  0.24810  Biso   1.000  H
  H12      1.0000 0.31310  0.84060  0.75190  Biso   1.000  H
  C15      1.0000 0.53580  0.05000  0.11390  Biso   1.000  C
  C16      1.0000 0.46420  0.95000  0.88610  Biso   1.000  C
  C17      1.0000 0.66850  0.02260  0.04640  Biso   1.000  C
  C18      1.0000 0.33150  0.97740  0.95360  Biso   1.000  C
  H13      1.0000 0.78190  0.03740  0.07700  Biso   1.000  H
  H14      1.0000 0.21810  0.96260  0.92300  Biso   1.000  H
  C19      1.0000 0.36750  0.02630  0.06540  Biso   1.000  C
  C20      1.0000 0.63250  0.97370  0.93460  Biso   1.000  C
  H15      1.0000 0.27740  0.04380  0.10950  Biso   1.000  H
  H16      1.0000 0.72260  0.95620  0.89050  Biso   1.000  H
  C21      1.0000 0.13830  0.57030  0.72580  Biso   1.000  C
  C22      1.0000 0.86170  0.42970  0.27420  Biso   1.000  C
  C23      1.0000 0.97910  0.56210  0.67460  Biso   1.000  C
  C24      1.0000 0.02090  0.43790  0.32540  Biso   1.000  C
  H17      1.0000 0.96140  0.53490  0.59810  Biso   1.000  H
  H18      1.0000 0.03860  0.46510  0.40190  Biso   1.000  H
  C25      1.0000 0.84490  0.59420  0.73640  Biso   1.000  C
  C26      1.0000 0.15510  0.40580  0.26360  Biso   1.000  C
  H19      1.0000 0.73710  0.58930  0.70120  Biso   1.000  H
  H20      1.0000 0.26290  0.41070  0.29880  Biso   1.000  H
  C27      1.0000 0.02030  0.63500  0.89840  Biso   1.000  C
  C28      1.0000 0.97970  0.36500  0.10160  Biso   1.000  C
  H21      1.0000 0.03300  0.65760  0.97520  Biso   1.000  H
  H22      1.0000 0.96700  0.34240  0.02480  Biso   1.000  H
  C29      1.0000 0.15710  0.60510  0.84000  Biso   1.000  C
  C30      1.0000 0.84290  0.39490  0.16000  Biso   1.000  C
  H23      1.0000 0.26280  0.60810  0.87690  Biso   1.000  H
  H24      1.0000 0.73720  0.39190  0.12310  Biso   1.000  H
  C31      1.0000 0.29640  0.55220  0.66150  Biso   1.000  C
  C32      1.0000 0.70360  0.44780  0.33850  Biso   1.000  C
  C33      1.0000 0.72630  0.67710  0.90990  Biso   1.000  C
  C34      1.0000 0.27370  0.32290  0.09010  Biso   1.000  C
  H25      1.0000 0.65310  0.70640  0.86250  Biso   1.000  H
  H26      1.0000 0.34690  0.29360  0.13750  Biso   1.000  H
  H27      1.0000 0.77750  0.74600  0.97030  Biso   1.000  H
  H28      1.0000 0.22250  0.25400  0.02970  Biso   1.000  H
  C35      1.0000 0.61480  0.58260  0.95670  Biso   1.000  C
  C36      1.0000 0.38520  0.41740  0.04330  Biso   1.000  C
  C37      1.0000 0.53090  0.62180  0.05000  Biso   1.000  C
  C38      1.0000 0.46910  0.37820  0.95000  Biso   1.000  C
  H29      1.0000 0.55190  0.70460  0.08540  Biso   1.000  H
  H30      1.0000 0.44810  0.29540  0.91460  Biso   1.000  H
  C39      1.0000 0.58420  0.45980  0.90770  Biso   1.000  C
  C40      1.0000 0.41580  0.54020  0.09230  Biso   1.000  C
  H31      1.0000 0.64120  0.43080  0.84550  Biso   1.000  H
  H32      1.0000 0.35880  0.56920  0.15450  Biso   1.000  H
