data_image0
_cell_length_a       7.2988
_cell_length_b       9.507
_cell_length_c       12.95
_cell_angle_alpha    77.055
_cell_angle_beta     77.445
_cell_angle_gamma    75.94

_symmetry_space_group_name_H-M    "P 1"
_symmetry_int_tables_number       1

loop_
  _symmetry_equiv_pos_as_xyz
  'x, y, z'

loop_
  _atom_site_label
  _atom_site_occupancy
  _atom_site_fract_x
  _atom_site_fract_y
  _atom_site_fract_z
  _atom_site_thermal_displace_type
  _atom_site_B_iso_or_equiv
  _atom_site_type_symbol
  Cu1      1.0000 0.00000  0.00000  0.00000  Biso   1.000  Cu
  Cl1      1.0000 0.38025  0.33048  0.62773  Biso   1.000  Cl
  Cl2      1.0000 0.61975  0.66952  0.37227  Biso   1.000  Cl
  O1       1.0000 0.02570  0.95050  0.15112  Biso   1.000  O
  O2       1.0000 0.97430  0.04950  0.84888  Biso   1.000  O
  O3       1.0000 0.37670  0.07890  0.19720  Biso   1.000  O
  O4       1.0000 0.62330  0.92110  0.80280  Biso   1.000  O
  O5       1.0000 0.76540  0.11350  0.20580  Biso   1.000  O
  O6       1.0000 0.23460  0.88650  0.79420  Biso   1.000  O
  O7       1.0000 0.23110  0.08660  0.96816  Biso   1.000  O
  O8       1.0000 0.76890  0.91340  0.03184  Biso   1.000  O
  O9       1.0000 0.01150  0.29240  0.98160  Biso   1.000  O
  O10      1.0000 0.98850  0.70760  0.01840  Biso   1.000  O
  O11      1.0000 0.49700  0.23840  0.55420  Biso   1.000  O
  O12      1.0000 0.50300  0.76160  0.44580  Biso   1.000  O
  O13      1.0000 0.23570  0.40900  0.57340  Biso   1.000  O
  O14      1.0000 0.76430  0.59100  0.42660  Biso   1.000  O
  O15      1.0000 0.30640  0.24560  0.72020  Biso   1.000  O
  O16      1.0000 0.69360  0.75440  0.27980  Biso   1.000  O
  O17      1.0000 0.49830  0.41760  0.64700  Biso   1.000  O
  O18      1.0000 0.50170  0.58240  0.35300  Biso   1.000  O
  N1       1.0000 0.93470  0.79660  0.54580  Biso   1.000  N
  N2       1.0000 0.06530  0.20340  0.45420  Biso   1.000  N
  N3       1.0000 0.61550  0.47880  0.85370  Biso   1.000  N
  N4       1.0000 0.38450  0.52120  0.14630  Biso   1.000  N
  C1       1.0000 0.89860  0.00960  0.22220  Biso   1.000  C
  C2       1.0000 0.10140  0.99040  0.77780  Biso   1.000  C
  C3       1.0000 0.91840  0.93850  0.33730  Biso   1.000  C
  C4       1.0000 0.08160  0.06150  0.66270  Biso   1.000  C
  C5       1.0000 0.78480  0.98830  0.42180  Biso   1.000  C
  C6       1.0000 0.21520  0.01170  0.57820  Biso   1.000  C
  H1       1.0000 0.68790  0.07040  0.40820  Biso   1.000  H
  H2       1.0000 0.31210  0.92960  0.59180  Biso   1.000  H
  C7       1.0000 0.79500  0.91710  0.52500  Biso   1.000  C
  C8       1.0000 0.20500  0.08290  0.47500  Biso   1.000  C
  H3       1.0000 0.70550  0.95160  0.58150  Biso   1.000  H
  H4       1.0000 0.29450  0.04840  0.41850  Biso   1.000  H
  C9       1.0000 0.07020  0.74890  0.46510  Biso   1.000  C
  C10      1.0000 0.92980  0.25110  0.53490  Biso   1.000  C
  H5       1.0000 0.16670  0.66720  0.48030  Biso   1.000  H
  H6       1.0000 0.83330  0.33280  0.51970  Biso   1.000  H
  C11      1.0000 0.06670  0.81950  0.36140  Biso   1.000  C
  C12      1.0000 0.93330  0.18050  0.63860  Biso   1.000  C
  H7       1.0000 0.16340  0.78820  0.30670  Biso   1.000  H
  H8       1.0000 0.83660  0.21180  0.69330  Biso   1.000  H
  C13      1.0000 0.93660  0.71570  0.65730  Biso   1.000  C
  C14      1.0000 0.06340  0.28430  0.34270  Biso   1.000  C
  H9       1.0000 0.91320  0.78530  0.70550  Biso   1.000  H
  H10      1.0000 0.08680  0.21470  0.29450  Biso   1.000  H
  H11      1.0000 0.06180  0.65260  0.66250  Biso   1.000  H
  H12      1.0000 0.93820  0.34740  0.33750  Biso   1.000  H
  C15      1.0000 0.78310  0.62190  0.69130  Biso   1.000  C
  C16      1.0000 0.21690  0.37810  0.30870  Biso   1.000  C
  H13      1.0000 0.66100  0.68050  0.67450  Biso   1.000  H
  H14      1.0000 0.33900  0.31950  0.32550  Biso   1.000  H
  H15      1.0000 0.81890  0.53940  0.65330  Biso   1.000  H
  H16      1.0000 0.18110  0.46060  0.34670  Biso   1.000  H
  C17      1.0000 0.76750  0.56650  0.81140  Biso   1.000  C
  C18      1.0000 0.23250  0.43350  0.18860  Biso   1.000  C
  H17      1.0000 0.88960  0.50600  0.82670  Biso   1.000  H
  H18      1.0000 0.11040  0.49400  0.17330  Biso   1.000  H
  H19      1.0000 0.73920  0.64990  0.84790  Biso   1.000  H
  H20      1.0000 0.26080  0.35010  0.15210  Biso   1.000  H
  C19      1.0000 0.42830  0.54700  0.86700  Biso   1.000  C
  C20      1.0000 0.57170  0.45300  0.13300  Biso   1.000  C
  H21      1.0000 0.39500  0.64930  0.85070  Biso   1.000  H
  H22      1.0000 0.60500  0.35070  0.14930  Biso   1.000  H
  C21      1.0000 0.28940  0.46700  0.90400  Biso   1.000  C
  C22      1.0000 0.71060  0.53300  0.09600  Biso   1.000  C
  H23      1.0000 0.16130  0.51500  0.91360  Biso   1.000  H
  H24      1.0000 0.83870  0.48500  0.08640  Biso   1.000  H
  C23      1.0000 0.33640  0.31310  0.92780  Biso   1.000  C
  C24      1.0000 0.66360  0.68690  0.07220  Biso   1.000  C
  C25      1.0000 0.52790  0.24650  0.91680  Biso   1.000  C
  C26      1.0000 0.47210  0.75350  0.08320  Biso   1.000  C
  H25      1.0000 0.56420  0.14450  0.93470  Biso   1.000  H
  H26      1.0000 0.43580  0.85550  0.06530  Biso   1.000  H
  C27      1.0000 0.66510  0.33090  0.87930  Biso   1.000  C
  C28      1.0000 0.33490  0.66910  0.12070  Biso   1.000  C
  H27      1.0000 0.79410  0.28530  0.87150  Biso   1.000  H
  H28      1.0000 0.20590  0.71470  0.12850  Biso   1.000  H
  C29      1.0000 0.17890  0.22580  0.96250  Biso   1.000  C
  C30      1.0000 0.82110  0.77420  0.03750  Biso   1.000  C
