data_image0
_cell_length_a       11.454
_cell_length_b       22.598
_cell_length_c       17.805
_cell_angle_alpha    90
_cell_angle_beta     100.28
_cell_angle_gamma    90

_symmetry_space_group_name_H-M    "P 1"
_symmetry_int_tables_number       1

loop_
  _symmetry_equiv_pos_as_xyz
  'x, y, z'

loop_
  _atom_site_label
  _atom_site_occupancy
  _atom_site_fract_x
  _atom_site_fract_y
  _atom_site_fract_z
  _atom_site_thermal_displace_type
  _atom_site_B_iso_or_equiv
  _atom_site_type_symbol
  Cu1      1.0000 0.72910  0.06858  0.12402  Biso   1.000  Cu
  Cu2      1.0000 0.27090  0.56858  0.37598  Biso   1.000  Cu
  Cu3      1.0000 0.27090  0.93142  0.87598  Biso   1.000  Cu
  Cu4      1.0000 0.72910  0.43142  0.62402  Biso   1.000  Cu
  O1       1.0000 0.78080  0.09600  0.22670  Biso   1.000  O
  O2       1.0000 0.21920  0.59600  0.27330  Biso   1.000  O
  O3       1.0000 0.21920  0.90400  0.77330  Biso   1.000  O
  O4       1.0000 0.78080  0.40400  0.72670  Biso   1.000  O
  N1       1.0000 0.59050  0.12360  0.10940  Biso   1.000  N
  N2       1.0000 0.40950  0.62360  0.39060  Biso   1.000  N
  N3       1.0000 0.40950  0.87640  0.89060  Biso   1.000  N
  N4       1.0000 0.59050  0.37640  0.60940  Biso   1.000  N
  C1       1.0000 0.53940  0.14240  0.03960  Biso   1.000  C
  C2       1.0000 0.46060  0.64240  0.46040  Biso   1.000  C
  C3       1.0000 0.46060  0.85760  0.96040  Biso   1.000  C
  C4       1.0000 0.53940  0.35760  0.53960  Biso   1.000  C
  Cu5      1.0000 0.33679  0.07239  0.42887  Biso   1.000  Cu
  Cu6      1.0000 0.66321  0.57239  0.07113  Biso   1.000  Cu
  Cu7      1.0000 0.66321  0.92761  0.57113  Biso   1.000  Cu
  Cu8      1.0000 0.33679  0.42761  0.92887  Biso   1.000  Cu
  O5       1.0000 0.85600  0.01150  0.13870  Biso   1.000  O
  O6       1.0000 0.14400  0.51150  0.36130  Biso   1.000  O
  O7       1.0000 0.14400  0.98850  0.86130  Biso   1.000  O
  O8       1.0000 0.85600  0.48850  0.63870  Biso   1.000  O
  N5       1.0000 0.56640  0.11550  0.97520  Biso   1.000  N
  N6       1.0000 0.43360  0.61550  0.52480  Biso   1.000  N
  N7       1.0000 0.43360  0.88450  0.02480  Biso   1.000  N
  N8       1.0000 0.56640  0.38450  0.47520  Biso   1.000  N
  H1       1.0000 0.55360  0.13700  0.93470  Biso   1.000  H
  H2       1.0000 0.44640  0.63700  0.56530  Biso   1.000  H
  H3       1.0000 0.44640  0.86300  0.06530  Biso   1.000  H
  H4       1.0000 0.55360  0.36300  0.43470  Biso   1.000  H
  C5       1.0000 0.46150  0.19040  0.02880  Biso   1.000  C
  C6       1.0000 0.53850  0.69040  0.47120  Biso   1.000  C
  C7       1.0000 0.53850  0.80960  0.97120  Biso   1.000  C
  C8       1.0000 0.46150  0.30960  0.52880  Biso   1.000  C
  H5       1.0000 0.42970  0.20370  0.98000  Biso   1.000  H
  H6       1.0000 0.57030  0.70370  0.52000  Biso   1.000  H
  H7       1.0000 0.57030  0.79630  0.02000  Biso   1.000  H
  H8       1.0000 0.42970  0.29630  0.48000  Biso   1.000  H
  O9       1.0000 0.28950  0.09500  0.32190  Biso   1.000  O
  O10      1.0000 0.71050  0.59500  0.17810  Biso   1.000  O
  O11      1.0000 0.71050  0.90500  0.67810  Biso   1.000  O
  O12      1.0000 0.28950  0.40500  0.82190  Biso   1.000  O
  N9       1.0000 0.66280  0.02940  0.02480  Biso   1.000  N
  N10      1.0000 0.33720  0.52940  0.47520  Biso   1.000  N
  N11      1.0000 0.33720  0.97060  0.97520  Biso   1.000  N
  N12      1.0000 0.66280  0.47060  0.52480  Biso   1.000  N
  C9       1.0000 0.43360  0.21720  0.09140  Biso   1.000  C
  C10      1.0000 0.56640  0.71720  0.40860  Biso   1.000  C
  C11      1.0000 0.56640  0.78280  0.90860  Biso   1.000  C
  C12      1.0000 0.43360  0.28280  0.59140  Biso   1.000  C
  H9       1.0000 0.38260  0.24950  0.08510  Biso   1.000  H
  H10      1.0000 0.61740  0.74950  0.41490  Biso   1.000  H
  H11      1.0000 0.61740  0.75050  0.91490  Biso   1.000  H
  H12      1.0000 0.38260  0.25050  0.58510  Biso   1.000  H
  O13      1.0000 0.21250  0.01420  0.41110  Biso   1.000  O
  O14      1.0000 0.78750  0.51420  0.08890  Biso   1.000  O
  O15      1.0000 0.78750  0.98580  0.58890  Biso   1.000  O
  O16      1.0000 0.21250  0.48580  0.91110  Biso   1.000  O
  N13      1.0000 0.48180  0.12420  0.43970  Biso   1.000  N
  N14      1.0000 0.51820  0.62420  0.06030  Biso   1.000  N
  N15      1.0000 0.51820  0.87580  0.56030  Biso   1.000  N
  N16      1.0000 0.48180  0.37580  0.93970  Biso   1.000  N
  C13      1.0000 0.47890  0.19770  0.16400  Biso   1.000  C
  C14      1.0000 0.52110  0.69770  0.33600  Biso   1.000  C
  C15      1.0000 0.52110  0.80230  0.83600  Biso   1.000  C
  C16      1.0000 0.47890  0.30230  0.66400  Biso   1.000  C
  H13      1.0000 0.45730  0.21490  0.20700  Biso   1.000  H
  H14      1.0000 0.54270  0.71490  0.29300  Biso   1.000  H
  H15      1.0000 0.54270  0.78510  0.79300  Biso   1.000  H
  H16      1.0000 0.45730  0.28510  0.70700  Biso   1.000  H
  N17      1.0000 0.55220  0.10020  0.56840  Biso   1.000  N
  N18      1.0000 0.44780  0.60020  0.93160  Biso   1.000  N
  N19      1.0000 0.44780  0.89980  0.43160  Biso   1.000  N
  N20      1.0000 0.55220  0.39980  0.06840  Biso   1.000  N
  H17      1.0000 0.60560  0.10980  0.60680  Biso   1.000  H
  H18      1.0000 0.39440  0.60980  0.89320  Biso   1.000  H
  H19      1.0000 0.39440  0.89020  0.39320  Biso   1.000  H
  H20      1.0000 0.60560  0.39020  0.10680  Biso   1.000  H
  C17      1.0000 0.55790  0.15130  0.16940  Biso   1.000  C
  C18      1.0000 0.44210  0.65130  0.33060  Biso   1.000  C
  C19      1.0000 0.44210  0.84870  0.83060  Biso   1.000  C
  C20      1.0000 0.55790  0.34870  0.66940  Biso   1.000  C
  H21      1.0000 0.59110  0.13810  0.21800  Biso   1.000  H
  H22      1.0000 0.40890  0.63810  0.28200  Biso   1.000  H
  H23      1.0000 0.40890  0.86190  0.78200  Biso   1.000  H
  H24      1.0000 0.59110  0.36190  0.71800  Biso   1.000  H
  N21      1.0000 0.38920  0.03760  0.53400  Biso   1.000  N
  N22      1.0000 0.61080  0.53760  0.96600  Biso   1.000  N
  N23      1.0000 0.61080  0.96240  0.46600  Biso   1.000  N
  N24      1.0000 0.38920  0.46240  0.03400  Biso   1.000  N
  C21      1.0000 0.69720  0.97380  0.01120  Biso   1.000  C
  C22      1.0000 0.30280  0.47380  0.48880  Biso   1.000  C
  C23      1.0000 0.30280  0.02620  0.98880  Biso   1.000  C
  C24      1.0000 0.69720  0.52620  0.51120  Biso   1.000  C
  H25      1.0000 0.73070  0.95070  0.05270  Biso   1.000  H
  H26      1.0000 0.26930  0.45070  0.44730  Biso   1.000  H
  H27      1.0000 0.26930  0.04930  0.94730  Biso   1.000  H
  H28      1.0000 0.73070  0.54930  0.55270  Biso   1.000  H
  N25      1.0000 0.84460  0.13540  0.07520  Biso   1.000  N
  N26      1.0000 0.15540  0.63540  0.42480  Biso   1.000  N
  N27      1.0000 0.15540  0.86460  0.92480  Biso   1.000  N
  N28      1.0000 0.84460  0.36460  0.57520  Biso   1.000  N
  C25      1.0000 0.68580  0.94940  0.94010  Biso   1.000  C
  C26      1.0000 0.31420  0.44940  0.55990  Biso   1.000  C
  C27      1.0000 0.31420  0.05060  0.05990  Biso   1.000  C
  C28      1.0000 0.68580  0.55060  0.44010  Biso   1.000  C
  H29      1.0000 0.71000  0.91080  0.93320  Biso   1.000  H
  H30      1.0000 0.29000  0.41080  0.56680  Biso   1.000  H
  H31      1.0000 0.29000  0.08920  0.06680  Biso   1.000  H
  H32      1.0000 0.71000  0.58920  0.43320  Biso   1.000  H
  C29      1.0000 0.63650  0.98460  0.87860  Biso   1.000  C
  C30      1.0000 0.36350  0.48460  0.62140  Biso   1.000  C
  C31      1.0000 0.36350  0.01540  0.12140  Biso   1.000  C
  C32      1.0000 0.63650  0.51540  0.37860  Biso   1.000  C
  H33      1.0000 0.62980  0.97030  0.82910  Biso   1.000  H
  H34      1.0000 0.37020  0.47030  0.67090  Biso   1.000  H
  H35      1.0000 0.37020  0.02970  0.17090  Biso   1.000  H
  H36      1.0000 0.62980  0.52970  0.32910  Biso   1.000  H
  N29      1.0000 0.22430  0.35470  0.96770  Biso   1.000  N
  N30      1.0000 0.77570  0.85470  0.53230  Biso   1.000  N
  N31      1.0000 0.77570  0.64530  0.03230  Biso   1.000  N
  N32      1.0000 0.22430  0.14530  0.46770  Biso   1.000  N
  C33      1.0000 0.59890  0.03910  0.89110  Biso   1.000  C
  C34      1.0000 0.40110  0.53910  0.60890  Biso   1.000  C
  C35      1.0000 0.40110  0.96090  0.10890  Biso   1.000  C
  C36      1.0000 0.59890  0.46090  0.39110  Biso   1.000  C
  H37      1.0000 0.56530  0.06250  0.85000  Biso   1.000  H
  H38      1.0000 0.43470  0.56250  0.65000  Biso   1.000  H
  H39      1.0000 0.43470  0.93750  0.15000  Biso   1.000  H
  H40      1.0000 0.56530  0.43750  0.35000  Biso   1.000  H
  C37      1.0000 0.60950  0.06110  0.96540  Biso   1.000  C
  C38      1.0000 0.39050  0.56110  0.53460  Biso   1.000  C
  C39      1.0000 0.39050  0.93890  0.03460  Biso   1.000  C
  C40      1.0000 0.60950  0.43890  0.46540  Biso   1.000  C
  C41      1.0000 0.49690  0.15730  0.37980  Biso   1.000  C
  C42      1.0000 0.50310  0.65730  0.12020  Biso   1.000  C
  C43      1.0000 0.50310  0.84270  0.62020  Biso   1.000  C
  C44      1.0000 0.49690  0.34270  0.87980  Biso   1.000  C
  H41      1.0000 0.44320  0.15280  0.33440  Biso   1.000  H
  H42      1.0000 0.55680  0.65280  0.16560  Biso   1.000  H
  H43      1.0000 0.55680  0.84720  0.66560  Biso   1.000  H
  H44      1.0000 0.44320  0.34720  0.83440  Biso   1.000  H
  C45      1.0000 0.58660  0.19730  0.38150  Biso   1.000  C
  C46      1.0000 0.41340  0.69730  0.11850  Biso   1.000  C
  C47      1.0000 0.41340  0.80270  0.61850  Biso   1.000  C
  C48      1.0000 0.58660  0.30270  0.88150  Biso   1.000  C
  H45      1.0000 0.59060  0.22080  0.33910  Biso   1.000  H
  H46      1.0000 0.40940  0.72080  0.16090  Biso   1.000  H
  H47      1.0000 0.40940  0.77920  0.66090  Biso   1.000  H
  H48      1.0000 0.59060  0.27920  0.83910  Biso   1.000  H
  C49      1.0000 0.67010  0.20250  0.44580  Biso   1.000  C
  C50      1.0000 0.32990  0.70250  0.05420  Biso   1.000  C
  C51      1.0000 0.32990  0.79750  0.55420  Biso   1.000  C
  C52      1.0000 0.67010  0.29750  0.94580  Biso   1.000  C
  H49      1.0000 0.73380  0.22830  0.44750  Biso   1.000  H
  H50      1.0000 0.26620  0.72830  0.05250  Biso   1.000  H
  H51      1.0000 0.26620  0.77170  0.55250  Biso   1.000  H
  H52      1.0000 0.73380  0.27170  0.94750  Biso   1.000  H
  C53      1.0000 0.65860  0.16990  0.50640  Biso   1.000  C
  C54      1.0000 0.34140  0.66990  0.99360  Biso   1.000  C
  C55      1.0000 0.34140  0.83010  0.49360  Biso   1.000  C
  C56      1.0000 0.65860  0.33010  0.00640  Biso   1.000  C
  H53      1.0000 0.71500  0.17280  0.55090  Biso   1.000  H
  H54      1.0000 0.28500  0.67280  0.94910  Biso   1.000  H
  H55      1.0000 0.28500  0.82720  0.44910  Biso   1.000  H
  H56      1.0000 0.71500  0.32720  0.05090  Biso   1.000  H
  C57      1.0000 0.56180  0.13120  0.50350  Biso   1.000  C
  C58      1.0000 0.43820  0.63120  0.99650  Biso   1.000  C
  C59      1.0000 0.43820  0.86880  0.49650  Biso   1.000  C
  C60      1.0000 0.56180  0.36880  0.00350  Biso   1.000  C
  C61      1.0000 0.47730  0.05780  0.58560  Biso   1.000  C
  C62      1.0000 0.52270  0.55780  0.91440  Biso   1.000  C
  C63      1.0000 0.52270  0.94220  0.41440  Biso   1.000  C
  C64      1.0000 0.47730  0.44220  0.08560  Biso   1.000  C
  C65      1.0000 0.49880  0.03670  0.66130  Biso   1.000  C
  C66      1.0000 0.50120  0.53670  0.83870  Biso   1.000  C
  C67      1.0000 0.50120  0.96330  0.33870  Biso   1.000  C
  C68      1.0000 0.49880  0.46330  0.16130  Biso   1.000  C
  H57      1.0000 0.56310  0.05120  0.69580  Biso   1.000  H
  H58      1.0000 0.43690  0.55120  0.80420  Biso   1.000  H
  H59      1.0000 0.43690  0.94880  0.30420  Biso   1.000  H
  H60      1.0000 0.56310  0.44880  0.19580  Biso   1.000  H
  C69      1.0000 0.42860  0.99680  0.68360  Biso   1.000  C
  C70      1.0000 0.57140  0.49680  0.81640  Biso   1.000  C
  C71      1.0000 0.57140  0.00320  0.31640  Biso   1.000  C
  C72      1.0000 0.42860  0.50320  0.18360  Biso   1.000  C
  H61      1.0000 0.44050  0.98440  0.73420  Biso   1.000  H
  H62      1.0000 0.55950  0.48440  0.76580  Biso   1.000  H
  H63      1.0000 0.55950  0.01560  0.26580  Biso   1.000  H
  H64      1.0000 0.44050  0.51560  0.23420  Biso   1.000  H
  C73      1.0000 0.33910  0.97410  0.63180  Biso   1.000  C
  C74      1.0000 0.66090  0.47410  0.86820  Biso   1.000  C
  C75      1.0000 0.66090  0.02590  0.36820  Biso   1.000  C
  C76      1.0000 0.33910  0.52590  0.13180  Biso   1.000  C
  H65      1.0000 0.28990  0.94480  0.64550  Biso   1.000  H
  H66      1.0000 0.71010  0.44480  0.85450  Biso   1.000  H
  H67      1.0000 0.71010  0.05520  0.35450  Biso   1.000  H
  H68      1.0000 0.28990  0.55520  0.14550  Biso   1.000  H
  C77      1.0000 0.32250  0.99530  0.55870  Biso   1.000  C
  C78      1.0000 0.67750  0.49530  0.94130  Biso   1.000  C
  C79      1.0000 0.67750  0.00470  0.44130  Biso   1.000  C
  C80      1.0000 0.32250  0.50470  0.05870  Biso   1.000  C
  H69      1.0000 0.26070  0.97940  0.52350  Biso   1.000  H
  H70      1.0000 0.73930  0.47940  0.97650  Biso   1.000  H
  H71      1.0000 0.73930  0.02060  0.47650  Biso   1.000  H
  H72      1.0000 0.26070  0.52060  0.02350  Biso   1.000  H
  C81      1.0000 0.04390  0.97000  0.17200  Biso   1.000  C
  C82      1.0000 0.95610  0.47000  0.32800  Biso   1.000  C
  C83      1.0000 0.95610  0.03000  0.82800  Biso   1.000  C
  C84      1.0000 0.04390  0.53000  0.67200  Biso   1.000  C
  H73      1.0000 0.01270  0.94650  0.12810  Biso   1.000  H
  H74      1.0000 0.98730  0.44650  0.37190  Biso   1.000  H
  H75      1.0000 0.98730  0.05350  0.87190  Biso   1.000  H
  H76      1.0000 0.01270  0.55350  0.62810  Biso   1.000  H
  H77      1.0000 0.06540  0.94470  0.21560  Biso   1.000  H
  H78      1.0000 0.93460  0.44470  0.28440  Biso   1.000  H
  H79      1.0000 0.93460  0.05530  0.78440  Biso   1.000  H
  H80      1.0000 0.06540  0.55530  0.71560  Biso   1.000  H
  H81      1.0000 0.11270  0.99110  0.16280  Biso   1.000  H
  H82      1.0000 0.88730  0.49110  0.33720  Biso   1.000  H
  H83      1.0000 0.88730  0.00890  0.83720  Biso   1.000  H
  H84      1.0000 0.11270  0.50890  0.66280  Biso   1.000  H
  C85      1.0000 0.95100  0.01360  0.18700  Biso   1.000  C
  C86      1.0000 0.04900  0.51360  0.31300  Biso   1.000  C
  C87      1.0000 0.04900  0.98640  0.81300  Biso   1.000  C
  C88      1.0000 0.95100  0.48640  0.68700  Biso   1.000  C
  C89      1.0000 0.97380  0.05380  0.24880  Biso   1.000  C
  C90      1.0000 0.02620  0.55380  0.25120  Biso   1.000  C
  C91      1.0000 0.02620  0.94620  0.75120  Biso   1.000  C
  C92      1.0000 0.97380  0.44620  0.74880  Biso   1.000  C
  C93      1.0000 0.88640  0.09190  0.26570  Biso   1.000  C
  C94      1.0000 0.11360  0.59190  0.23430  Biso   1.000  C
  C95      1.0000 0.11360  0.90810  0.73430  Biso   1.000  C
  C96      1.0000 0.88640  0.40810  0.76570  Biso   1.000  C
  C97      1.0000 0.91090  0.13140  0.33470  Biso   1.000  C
  C98      1.0000 0.08910  0.63140  0.16530  Biso   1.000  C
  C99      1.0000 0.08910  0.86860  0.66530  Biso   1.000  C
  C100     1.0000 0.91090  0.36860  0.83470  Biso   1.000  C
  H85      1.0000 0.84150  0.15460  0.33760  Biso   1.000  H
  H86      1.0000 0.15850  0.65460  0.16240  Biso   1.000  H
  H87      1.0000 0.15850  0.84540  0.66240  Biso   1.000  H
  H88      1.0000 0.84150  0.34540  0.83760  Biso   1.000  H
  H89      1.0000 0.97590  0.15730  0.33060  Biso   1.000  H
  H90      1.0000 0.02410  0.65730  0.16940  Biso   1.000  H
  H91      1.0000 0.02410  0.84270  0.66940  Biso   1.000  H
  H92      1.0000 0.97590  0.34270  0.83060  Biso   1.000  H
  H93      1.0000 0.93070  0.10770  0.37990  Biso   1.000  H
  H94      1.0000 0.06930  0.60770  0.12010  Biso   1.000  H
  H95      1.0000 0.06930  0.89230  0.62010  Biso   1.000  H
  H96      1.0000 0.93070  0.39230  0.87990  Biso   1.000  H
  C101     1.0000 0.16420  0.12940  0.21280  Biso   1.000  C
  C102     1.0000 0.83580  0.62940  0.28720  Biso   1.000  C
  C103     1.0000 0.83580  0.87060  0.78720  Biso   1.000  C
  C104     1.0000 0.16420  0.37060  0.71280  Biso   1.000  C
  H97      1.0000 0.23590  0.15060  0.21000  Biso   1.000  H
  H98      1.0000 0.76410  0.65060  0.29000  Biso   1.000  H
  H99      1.0000 0.76410  0.84940  0.79000  Biso   1.000  H
  H100     1.0000 0.23590  0.34940  0.71000  Biso   1.000  H
  H101     1.0000 0.10160  0.15700  0.21610  Biso   1.000  H
  H102     1.0000 0.89840  0.65700  0.28390  Biso   1.000  H
  H103     1.0000 0.89840  0.84300  0.78390  Biso   1.000  H
  H104     1.0000 0.10160  0.34300  0.71610  Biso   1.000  H
  H105     1.0000 0.14270  0.10550  0.16790  Biso   1.000  H
  H106     1.0000 0.85730  0.60550  0.33210  Biso   1.000  H
  H107     1.0000 0.85730  0.89450  0.83210  Biso   1.000  H
  H108     1.0000 0.14270  0.39450  0.66790  Biso   1.000  H
  C105     1.0000 0.18370  0.09040  0.28210  Biso   1.000  C
  C106     1.0000 0.81630  0.59040  0.21790  Biso   1.000  C
  C107     1.0000 0.81630  0.90960  0.71790  Biso   1.000  C
  C108     1.0000 0.18370  0.40960  0.78210  Biso   1.000  C
  C109     1.0000 0.09450  0.05470  0.30000  Biso   1.000  C
  C110     1.0000 0.90550  0.55470  0.20000  Biso   1.000  C
  C111     1.0000 0.90550  0.94530  0.70000  Biso   1.000  C
  C112     1.0000 0.09450  0.44530  0.80000  Biso   1.000  C
  C113     1.0000 0.11600  0.01600  0.36210  Biso   1.000  C
  C114     1.0000 0.88400  0.51600  0.13790  Biso   1.000  C
  C115     1.0000 0.88400  0.98400  0.63790  Biso   1.000  C
  C116     1.0000 0.11600  0.48400  0.86210  Biso   1.000  C
  C117     1.0000 0.02600  0.97200  0.37730  Biso   1.000  C
  C118     1.0000 0.97400  0.47200  0.12270  Biso   1.000  C
  C119     1.0000 0.97400  0.02800  0.62270  Biso   1.000  C
  C120     1.0000 0.02600  0.52800  0.87730  Biso   1.000  C
  H109     1.0000 0.05720  0.94980  0.42230  Biso   1.000  H
  H110     1.0000 0.94280  0.44980  0.07770  Biso   1.000  H
  H111     1.0000 0.94280  0.05020  0.57770  Biso   1.000  H
  H112     1.0000 0.05720  0.55020  0.92230  Biso   1.000  H
  H113     1.0000 0.00740  0.94560  0.33460  Biso   1.000  H
  H114     1.0000 0.99260  0.44560  0.16540  Biso   1.000  H
  H115     1.0000 0.99260  0.05440  0.66540  Biso   1.000  H
  H116     1.0000 0.00740  0.55440  0.83460  Biso   1.000  H
  H117     1.0000 0.95530  0.99240  0.38470  Biso   1.000  H
  H118     1.0000 0.04470  0.49240  0.11530  Biso   1.000  H
  H119     1.0000 0.04470  0.00760  0.61530  Biso   1.000  H
  H120     1.0000 0.95530  0.50760  0.88470  Biso   1.000  H
  C121     1.0000 0.91640  0.12350  0.02690  Biso   1.000  C
  C122     1.0000 0.08360  0.62350  0.47310  Biso   1.000  C
  C123     1.0000 0.08360  0.87650  0.97310  Biso   1.000  C
  C124     1.0000 0.91640  0.37650  0.52690  Biso   1.000  C
  H121     1.0000 0.91500  0.08530  0.00720  Biso   1.000  H
  H122     1.0000 0.08500  0.58530  0.49280  Biso   1.000  H
  H123     1.0000 0.08500  0.91470  0.99280  Biso   1.000  H
  H124     1.0000 0.91500  0.41470  0.50720  Biso   1.000  H
  C125     1.0000 0.99250  0.16320  0.00390  Biso   1.000  C
  C126     1.0000 0.00750  0.66320  0.49610  Biso   1.000  C
  C127     1.0000 0.00750  0.83680  0.99610  Biso   1.000  C
  C128     1.0000 0.99250  0.33680  0.50390  Biso   1.000  C
  H125     1.0000 0.03910  0.15230  0.96840  Biso   1.000  H
  H126     1.0000 0.96090  0.65230  0.53160  Biso   1.000  H
  H127     1.0000 0.96090  0.84770  0.03160  Biso   1.000  H
  H128     1.0000 0.03910  0.34770  0.46840  Biso   1.000  H
  C129     1.0000 0.99980  0.22000  0.03360  Biso   1.000  C
  C130     1.0000 0.00020  0.72000  0.46640  Biso   1.000  C
  C131     1.0000 0.00020  0.78000  0.96640  Biso   1.000  C
  C132     1.0000 0.99980  0.28000  0.53360  Biso   1.000  C
  C133     1.0000 0.92630  0.23210  0.08550  Biso   1.000  C
  C134     1.0000 0.07370  0.73210  0.41450  Biso   1.000  C
  C135     1.0000 0.07370  0.76790  0.91450  Biso   1.000  C
  C136     1.0000 0.92630  0.26790  0.58550  Biso   1.000  C
  H129     1.0000 0.92720  0.26920  0.10800  Biso   1.000  H
  H130     1.0000 0.07280  0.76920  0.39200  Biso   1.000  H
  H131     1.0000 0.07280  0.73080  0.89200  Biso   1.000  H
  H132     1.0000 0.92720  0.23080  0.60800  Biso   1.000  H
  C137     1.0000 0.85230  0.18880  0.10360  Biso   1.000  C
  C138     1.0000 0.14770  0.68880  0.39640  Biso   1.000  C
  C139     1.0000 0.14770  0.81120  0.89640  Biso   1.000  C
  C140     1.0000 0.85230  0.31120  0.60360  Biso   1.000  C
  H133     1.0000 0.80390  0.19820  0.13860  Biso   1.000  H
  H134     1.0000 0.19610  0.69820  0.36140  Biso   1.000  H
  H135     1.0000 0.19610  0.80180  0.86140  Biso   1.000  H
  H136     1.0000 0.80390  0.30180  0.63860  Biso   1.000  H
  C141     1.0000 0.21290  0.30270  0.93430  Biso   1.000  C
  C142     1.0000 0.78710  0.80270  0.56570  Biso   1.000  C
  C143     1.0000 0.78710  0.69730  0.06570  Biso   1.000  C
  C144     1.0000 0.21290  0.19730  0.43430  Biso   1.000  C
  H137     1.0000 0.25630  0.29560  0.89580  Biso   1.000  H
  H138     1.0000 0.74370  0.79560  0.60420  Biso   1.000  H
  H139     1.0000 0.74370  0.70440  0.10420  Biso   1.000  H
  H140     1.0000 0.25630  0.20440  0.39580  Biso   1.000  H
  C145     1.0000 0.14120  0.25810  0.95250  Biso   1.000  C
  C146     1.0000 0.85880  0.75810  0.54750  Biso   1.000  C
  C147     1.0000 0.85880  0.74190  0.04750  Biso   1.000  C
  C148     1.0000 0.14120  0.24190  0.45250  Biso   1.000  C
  H141     1.0000 0.13510  0.22260  0.92570  Biso   1.000  H
  H142     1.0000 0.86490  0.72260  0.57430  Biso   1.000  H
  H143     1.0000 0.86490  0.77740  0.07430  Biso   1.000  H
  H144     1.0000 0.13510  0.27740  0.42570  Biso   1.000  H
  C149     1.0000 0.07800  0.26670  0.01140  Biso   1.000  C
  C150     1.0000 0.92200  0.76670  0.48860  Biso   1.000  C
  C151     1.0000 0.92200  0.73330  0.98860  Biso   1.000  C
  C152     1.0000 0.07800  0.23330  0.51140  Biso   1.000  C
  C153     1.0000 0.09160  0.32070  0.04620  Biso   1.000  C
  C154     1.0000 0.90840  0.82070  0.45380  Biso   1.000  C
  C155     1.0000 0.90840  0.67930  0.95380  Biso   1.000  C
  C156     1.0000 0.09160  0.17930  0.54620  Biso   1.000  C
  H145     1.0000 0.05090  0.32910  0.08570  Biso   1.000  H
  H146     1.0000 0.94910  0.82910  0.41430  Biso   1.000  H
  H147     1.0000 0.94910  0.67090  0.91430  Biso   1.000  H
  H148     1.0000 0.05090  0.17090  0.58570  Biso   1.000  H
  C157     1.0000 0.16380  0.36220  0.02400  Biso   1.000  C
  C158     1.0000 0.83620  0.86220  0.47600  Biso   1.000  C
  C159     1.0000 0.83620  0.63780  0.97600  Biso   1.000  C
  C160     1.0000 0.16380  0.13780  0.52400  Biso   1.000  C
  H149     1.0000 0.17130  0.39820  0.04970  Biso   1.000  H
  H150     1.0000 0.82870  0.89820  0.45030  Biso   1.000  H
  H151     1.0000 0.82870  0.60180  0.95030  Biso   1.000  H
  H152     1.0000 0.17130  0.10180  0.54970  Biso   1.000  H
  F1       1.0000 0.20460  0.11550  0.72600  Biso   1.000  F
  F2       1.0000 0.79540  0.61550  0.77400  Biso   1.000  F
  F3       1.0000 0.79540  0.88450  0.27400  Biso   1.000  F
  F4       1.0000 0.20460  0.38450  0.22600  Biso   1.000  F
  F5       1.0000 0.16540  0.20910  0.74630  Biso   1.000  F
  F6       1.0000 0.83460  0.70910  0.75370  Biso   1.000  F
  F7       1.0000 0.83460  0.79090  0.25370  Biso   1.000  F
  F8       1.0000 0.16540  0.29090  0.24630  Biso   1.000  F
  F9       1.0000 0.33230  0.16970  0.69720  Biso   1.000  F
  F10      1.0000 0.66770  0.66970  0.80280  Biso   1.000  F
  F11      1.0000 0.66770  0.83030  0.30280  Biso   1.000  F
  F12      1.0000 0.33230  0.33030  0.19720  Biso   1.000  F
  O17      1.0000 0.42840  0.15230  0.84150  Biso   1.000  O
  O18      1.0000 0.57160  0.65230  0.65850  Biso   1.000  O
  O19      1.0000 0.57160  0.84770  0.15850  Biso   1.000  O
  O20      1.0000 0.42840  0.34770  0.34150  Biso   1.000  O
  O21      1.0000 0.25650  0.14330  0.87140  Biso   1.000  O
  O22      1.0000 0.74350  0.64330  0.62860  Biso   1.000  O
  O23      1.0000 0.74350  0.85670  0.12860  Biso   1.000  O
  O24      1.0000 0.25650  0.35670  0.37140  Biso   1.000  O
  C161     1.0000 0.34230  0.17090  0.82430  Biso   1.000  C
  C162     1.0000 0.65770  0.67090  0.67570  Biso   1.000  C
  C163     1.0000 0.65770  0.82910  0.17570  Biso   1.000  C
  C164     1.0000 0.34230  0.32910  0.32430  Biso   1.000  C
  C165     1.0000 0.25330  0.16650  0.74080  Biso   1.000  C
  C166     1.0000 0.74670  0.66650  0.75920  Biso   1.000  C
  C167     1.0000 0.74670  0.83350  0.25920  Biso   1.000  C
  C168     1.0000 0.25330  0.33350  0.24080  Biso   1.000  C
  F13      1.0000 0.92280  0.19010  0.80990  Biso   1.000  F
  F14      1.0000 0.07720  0.69010  0.69010  Biso   1.000  F
  F15      1.0000 0.07720  0.80990  0.19010  Biso   1.000  F
  F16      1.0000 0.92280  0.30990  0.30990  Biso   1.000  F
  F17      1.0000 0.77430  0.23910  0.78570  Biso   1.000  F
  F18      1.0000 0.22570  0.73910  0.71430  Biso   1.000  F
  F19      1.0000 0.22570  0.76090  0.21430  Biso   1.000  F
  F20      1.0000 0.77430  0.26090  0.28570  Biso   1.000  F
  F21      1.0000 0.78260  0.15810  0.84380  Biso   1.000  F
  F22      1.0000 0.21740  0.65810  0.65620  Biso   1.000  F
  F23      1.0000 0.21740  0.84190  0.15620  Biso   1.000  F
  F24      1.0000 0.78260  0.34190  0.34380  Biso   1.000  F
  O25      1.0000 0.85410  0.15560  0.67640  Biso   1.000  O
  O26      1.0000 0.14590  0.65560  0.82360  Biso   1.000  O
  O27      1.0000 0.14590  0.84440  0.32360  Biso   1.000  O
  O28      1.0000 0.85410  0.34440  0.17640  Biso   1.000  O
  O29      1.0000 0.70570  0.12890  0.70120  Biso   1.000  O
  O30      1.0000 0.29430  0.62890  0.79880  Biso   1.000  O
  O31      1.0000 0.29430  0.87110  0.29880  Biso   1.000  O
  O32      1.0000 0.70570  0.37110  0.20120  Biso   1.000  O
  C169     1.0000 0.77870  0.15410  0.71710  Biso   1.000  C
  C170     1.0000 0.22130  0.65410  0.78290  Biso   1.000  C
  C171     1.0000 0.22130  0.84590  0.28290  Biso   1.000  C
  C172     1.0000 0.77870  0.34590  0.21710  Biso   1.000  C
  C173     1.0000 0.81070  0.18550  0.78750  Biso   1.000  C
  C174     1.0000 0.18930  0.68550  0.71250  Biso   1.000  C
  C175     1.0000 0.18930  0.81450  0.21250  Biso   1.000  C
  C176     1.0000 0.81070  0.31450  0.28750  Biso   1.000  C
  F25      1.0000 0.14660  0.14290  0.74030  Biso   1.000  F
  F26      1.0000 0.85340  0.64290  0.75970  Biso   1.000  F
  F27      1.0000 0.85340  0.85710  0.25970  Biso   1.000  F
  F28      1.0000 0.14660  0.35710  0.24030  Biso   1.000  F
  F29      1.0000 0.27210  0.22400  0.73530  Biso   1.000  F
  F30      1.0000 0.72790  0.72400  0.76470  Biso   1.000  F
  F31      1.0000 0.72790  0.77600  0.26470  Biso   1.000  F
  F32      1.0000 0.27210  0.27600  0.23530  Biso   1.000  F
  F33      1.0000 0.28420  0.11700  0.70270  Biso   1.000  F
  F34      1.0000 0.71580  0.61700  0.79730  Biso   1.000  F
  F35      1.0000 0.71580  0.88300  0.29730  Biso   1.000  F
  F36      1.0000 0.28420  0.38300  0.20270  Biso   1.000  F
