data_image0
_cell_length_a       15.9791
_cell_length_b       10.5512
_cell_length_c       18.6344
_cell_angle_alpha    90
_cell_angle_beta     107.725
_cell_angle_gamma    90

_symmetry_space_group_name_H-M    "P 1"
_symmetry_int_tables_number       1

loop_
  _symmetry_equiv_pos_as_xyz
  'x, y, z'

loop_
  _atom_site_label
  _atom_site_occupancy
  _atom_site_fract_x
  _atom_site_fract_y
  _atom_site_fract_z
  _atom_site_thermal_displace_type
  _atom_site_B_iso_or_equiv
  _atom_site_type_symbol
  Cu1      1.0000 0.21965  0.50225  0.31227  Biso   1.000  Cu
  Cu2      1.0000 0.78035  0.00225  0.18773  Biso   1.000  Cu
  Cu3      1.0000 0.78035  0.49775  0.68773  Biso   1.000  Cu
  Cu4      1.0000 0.21965  0.99775  0.81227  Biso   1.000  Cu
  S1       1.0000 0.46147  0.31925  0.10289  Biso   1.000  S
  S2       1.0000 0.53853  0.81925  0.39711  Biso   1.000  S
  S3       1.0000 0.53853  0.68075  0.89711  Biso   1.000  S
  S4       1.0000 0.46147  0.18075  0.60289  Biso   1.000  S
  S5       1.0000 0.96715  0.77946  0.00428  Biso   1.000  S
  S6       1.0000 0.03285  0.27946  0.49572  Biso   1.000  S
  S7       1.0000 0.03285  0.22054  0.99572  Biso   1.000  S
  S8       1.0000 0.96715  0.72054  0.50428  Biso   1.000  S
  P1       1.0000 0.38969  0.87973  0.14182  Biso   1.000  P
  P2       1.0000 0.61031  0.37973  0.35818  Biso   1.000  P
  P3       1.0000 0.61031  0.12027  0.85818  Biso   1.000  P
  P4       1.0000 0.38969  0.62027  0.64182  Biso   1.000  P
  F1       1.0000 0.37390  0.89990  0.05474  Biso   1.000  F
  F2       1.0000 0.62610  0.39990  0.44526  Biso   1.000  F
  F3       1.0000 0.62610  0.10010  0.94526  Biso   1.000  F
  F4       1.0000 0.37390  0.60010  0.55474  Biso   1.000  F
  F5       1.0000 0.31460  0.97530  0.13670  Biso   1.000  F
  F6       1.0000 0.68540  0.47530  0.36330  Biso   1.000  F
  F7       1.0000 0.68540  0.02470  0.86330  Biso   1.000  F
  F8       1.0000 0.31460  0.52470  0.63670  Biso   1.000  F
  F9       1.0000 0.41060  0.85170  0.22640  Biso   1.000  F
  F10      1.0000 0.58940  0.35170  0.27360  Biso   1.000  F
  F11      1.0000 0.58940  0.14830  0.77360  Biso   1.000  F
  F12      1.0000 0.41060  0.64830  0.72640  Biso   1.000  F
  F13      1.0000 0.46630  0.78370  0.14140  Biso   1.000  F
  F14      1.0000 0.53370  0.28370  0.35860  Biso   1.000  F
  F15      1.0000 0.53370  0.21630  0.85860  Biso   1.000  F
  F16      1.0000 0.46630  0.71630  0.64140  Biso   1.000  F
  F17      1.0000 0.31980  0.76920  0.12360  Biso   1.000  F
  F18      1.0000 0.68020  0.26920  0.37640  Biso   1.000  F
  F19      1.0000 0.68020  0.23080  0.87640  Biso   1.000  F
  F20      1.0000 0.31980  0.73080  0.62360  Biso   1.000  F
  F21      1.0000 0.46000  0.98960  0.15670  Biso   1.000  F
  F22      1.0000 0.54000  0.48960  0.34330  Biso   1.000  F
  F23      1.0000 0.54000  0.01040  0.84330  Biso   1.000  F
  F24      1.0000 0.46000  0.51040  0.65670  Biso   1.000  F
  O1       1.0000 0.94260  0.40330  0.15660  Biso   1.000  O
  O2       1.0000 0.05740  0.90330  0.34340  Biso   1.000  O
  O3       1.0000 0.05740  0.59670  0.84340  Biso   1.000  O
  O4       1.0000 0.94260  0.09670  0.65660  Biso   1.000  O
  O5       1.0000 0.89110  0.55920  0.19860  Biso   1.000  O
  O6       1.0000 0.10890  0.05920  0.30140  Biso   1.000  O
  O7       1.0000 0.10890  0.44080  0.80140  Biso   1.000  O
  O8       1.0000 0.89110  0.94080  0.69860  Biso   1.000  O
  O9       1.0000 0.87040  0.54780  0.08140  Biso   1.000  O
  O10      1.0000 0.12960  0.04780  0.41860  Biso   1.000  O
  O11      1.0000 0.12960  0.45220  0.91860  Biso   1.000  O
  O12      1.0000 0.87040  0.95220  0.58140  Biso   1.000  O
  O13      1.0000 0.11190  0.31940  0.26420  Biso   1.000  O
  O14      1.0000 0.88810  0.81940  0.23580  Biso   1.000  O
  O15      1.0000 0.88810  0.68060  0.73580  Biso   1.000  O
  O16      1.0000 0.11190  0.18060  0.76420  Biso   1.000  O
  O17      1.0000 0.30410  0.68900  0.35860  Biso   1.000  O
  O18      1.0000 0.69590  0.18900  0.14140  Biso   1.000  O
  O19      1.0000 0.69590  0.31100  0.64140  Biso   1.000  O
  O20      1.0000 0.30410  0.81100  0.85860  Biso   1.000  O
  N1       1.0000 0.30000  0.44100  0.25350  Biso   1.000  N
  N2       1.0000 0.70000  0.94100  0.24650  Biso   1.000  N
  N3       1.0000 0.70000  0.55900  0.74650  Biso   1.000  N
  N4       1.0000 0.30000  0.05900  0.75350  Biso   1.000  N
  N5       1.0000 0.29080  0.10100  0.90161  Biso   1.000  N
  N6       1.0000 0.70920  0.60100  0.59839  Biso   1.000  N
  N7       1.0000 0.70920  0.89900  0.09839  Biso   1.000  N
  N8       1.0000 0.29080  0.39900  0.40161  Biso   1.000  N
  N9       1.0000 0.14610  0.59240  0.21603  Biso   1.000  N
  N10      1.0000 0.85390  0.09240  0.28397  Biso   1.000  N
  N11      1.0000 0.85390  0.40760  0.78397  Biso   1.000  N
  N12      1.0000 0.14610  0.90760  0.71603  Biso   1.000  N
  N13      1.0000 0.14110  0.93550  0.87218  Biso   1.000  N
  N14      1.0000 0.85890  0.43550  0.62782  Biso   1.000  N
  N15      1.0000 0.85890  0.06450  0.12782  Biso   1.000  N
  N16      1.0000 0.14110  0.56450  0.37218  Biso   1.000  N
  N17      1.0000 0.90120  0.50260  0.14350  Biso   1.000  N
  N18      1.0000 0.09880  0.00260  0.35650  Biso   1.000  N
  N19      1.0000 0.09880  0.49740  0.85650  Biso   1.000  N
  N20      1.0000 0.90120  0.99740  0.64350  Biso   1.000  N
  N21      1.0000 0.32360  0.89980  0.38190  Biso   1.000  N
  N22      1.0000 0.67640  0.39980  0.11810  Biso   1.000  N
  N23      1.0000 0.67640  0.10020  0.61810  Biso   1.000  N
  N24      1.0000 0.32360  0.60020  0.88190  Biso   1.000  N
  C1       1.0000 0.30060  0.31940  0.23300  Biso   1.000  C
  C2       1.0000 0.69940  0.81940  0.26700  Biso   1.000  C
  C3       1.0000 0.69940  0.68060  0.76700  Biso   1.000  C
  C4       1.0000 0.30060  0.18060  0.73300  Biso   1.000  C
  C5       1.0000 0.34680  0.27700  0.18600  Biso   1.000  C
  C6       1.0000 0.65320  0.77700  0.31400  Biso   1.000  C
  C7       1.0000 0.65320  0.72300  0.81400  Biso   1.000  C
  C8       1.0000 0.34680  0.22300  0.68600  Biso   1.000  C
  C9       1.0000 0.39430  0.36460  0.15870  Biso   1.000  C
  C10      1.0000 0.60570  0.86460  0.34130  Biso   1.000  C
  C11      1.0000 0.60570  0.63540  0.84130  Biso   1.000  C
  C12      1.0000 0.39430  0.13540  0.65870  Biso   1.000  C
  C13      1.0000 0.39530  0.48910  0.18040  Biso   1.000  C
  C14      1.0000 0.60470  0.98910  0.31960  Biso   1.000  C
  C15      1.0000 0.60470  0.51090  0.81960  Biso   1.000  C
  C16      1.0000 0.39530  0.01090  0.68040  Biso   1.000  C
  C17      1.0000 0.34780  0.52360  0.22800  Biso   1.000  C
  C18      1.0000 0.65220  0.02360  0.27200  Biso   1.000  C
  C19      1.0000 0.65220  0.47640  0.77200  Biso   1.000  C
  C20      1.0000 0.34780  0.97640  0.72800  Biso   1.000  C
  C21      1.0000 0.39040  0.23550  0.02710  Biso   1.000  C
  C22      1.0000 0.60960  0.73550  0.47290  Biso   1.000  C
  C23      1.0000 0.60960  0.76450  0.97290  Biso   1.000  C
  C24      1.0000 0.39040  0.26450  0.52710  Biso   1.000  C
  C25      1.0000 0.43040  0.15740  0.98700  Biso   1.000  C
  C26      1.0000 0.56960  0.65740  0.51300  Biso   1.000  C
  C27      1.0000 0.56960  0.84260  0.01300  Biso   1.000  C
  C28      1.0000 0.43040  0.34260  0.48700  Biso   1.000  C
  C29      1.0000 0.37880  0.09240  0.92550  Biso   1.000  C
  C30      1.0000 0.62120  0.59240  0.57450  Biso   1.000  C
  C31      1.0000 0.62120  0.90760  0.07450  Biso   1.000  C
  C32      1.0000 0.37880  0.40760  0.42550  Biso   1.000  C
  C33      1.0000 0.25250  0.17850  0.94040  Biso   1.000  C
  C34      1.0000 0.74750  0.67850  0.55960  Biso   1.000  C
  C35      1.0000 0.74750  0.82150  0.05960  Biso   1.000  C
  C36      1.0000 0.25250  0.32150  0.44040  Biso   1.000  C
  C37      1.0000 0.29980  0.24650  0.00220  Biso   1.000  C
  C38      1.0000 0.70020  0.74650  0.49780  Biso   1.000  C
  C39      1.0000 0.70020  0.75350  0.99780  Biso   1.000  C
  C40      1.0000 0.29980  0.25350  0.50220  Biso   1.000  C
  C41      1.0000 0.12950  0.53680  0.14800  Biso   1.000  C
  C42      1.0000 0.87050  0.03680  0.35200  Biso   1.000  C
  C43      1.0000 0.87050  0.46320  0.85200  Biso   1.000  C
  C44      1.0000 0.12950  0.96320  0.64800  Biso   1.000  C
  C45      1.0000 0.07890  0.59260  0.08210  Biso   1.000  C
  C46      1.0000 0.92110  0.09260  0.41790  Biso   1.000  C
  C47      1.0000 0.92110  0.40740  0.91790  Biso   1.000  C
  C48      1.0000 0.07890  0.90740  0.58210  Biso   1.000  C
  C49      1.0000 0.04190  0.70990  0.08610  Biso   1.000  C
  C50      1.0000 0.95810  0.20990  0.41390  Biso   1.000  C
  C51      1.0000 0.95810  0.29010  0.91390  Biso   1.000  C
  C52      1.0000 0.04190  0.79010  0.58610  Biso   1.000  C
  C53      1.0000 0.05940  0.76790  0.15480  Biso   1.000  C
  C54      1.0000 0.94060  0.26790  0.34520  Biso   1.000  C
  C55      1.0000 0.94060  0.23210  0.84520  Biso   1.000  C
  C56      1.0000 0.05940  0.73210  0.65480  Biso   1.000  C
  C57      1.0000 0.11170  0.70680  0.21850  Biso   1.000  C
  C58      1.0000 0.88830  0.20680  0.28150  Biso   1.000  C
  C59      1.0000 0.88830  0.29320  0.78150  Biso   1.000  C
  C60      1.0000 0.11170  0.79320  0.71850  Biso   1.000  C
  C61      1.0000 0.17780  0.89030  0.94260  Biso   1.000  C
  C62      1.0000 0.82220  0.39030  0.55740  Biso   1.000  C
  C63      1.0000 0.82220  0.10970  0.05740  Biso   1.000  C
  C64      1.0000 0.17780  0.60970  0.44260  Biso   1.000  C
  C65      1.0000 0.12910  0.84320  0.98620  Biso   1.000  C
  C66      1.0000 0.87090  0.34320  0.51380  Biso   1.000  C
  C67      1.0000 0.87090  0.15680  0.01380  Biso   1.000  C
  C68      1.0000 0.12910  0.65680  0.48620  Biso   1.000  C
  C69      1.0000 0.03840  0.83910  0.95690  Biso   1.000  C
  C70      1.0000 0.96160  0.33910  0.54310  Biso   1.000  C
  C71      1.0000 0.96160  0.16090  0.04310  Biso   1.000  C
  C72      1.0000 0.03840  0.66090  0.45690  Biso   1.000  C
  C73      1.0000 0.99960  0.88710  0.88460  Biso   1.000  C
  C74      1.0000 0.00040  0.38710  0.61540  Biso   1.000  C
  C75      1.0000 0.00040  0.11290  0.11540  Biso   1.000  C
  C76      1.0000 0.99960  0.61290  0.38460  Biso   1.000  C
  C77      1.0000 0.05270  0.93360  0.84480  Biso   1.000  C
  C78      1.0000 0.94730  0.43360  0.65520  Biso   1.000  C
  C79      1.0000 0.94730  0.06640  0.15520  Biso   1.000  C
  C80      1.0000 0.05270  0.56640  0.34480  Biso   1.000  C
  C81      1.0000 0.30650  0.79920  0.33790  Biso   1.000  C
  C82      1.0000 0.69350  0.29920  0.16210  Biso   1.000  C
  C83      1.0000 0.69350  0.20080  0.66210  Biso   1.000  C
  C84      1.0000 0.30650  0.70080  0.83790  Biso   1.000  C
  C85      1.0000 0.32870  0.02620  0.35160  Biso   1.000  C
  C86      1.0000 0.67130  0.52620  0.14840  Biso   1.000  C
  C87      1.0000 0.67130  0.97380  0.64840  Biso   1.000  C
  C88      1.0000 0.32870  0.47380  0.85160  Biso   1.000  C
  C89      1.0000 0.34190  0.88810  0.46260  Biso   1.000  C
  C90      1.0000 0.65810  0.38810  0.03740  Biso   1.000  C
  C91      1.0000 0.65810  0.11190  0.53740  Biso   1.000  C
  C92      1.0000 0.34190  0.61190  0.96260  Biso   1.000  C
  H1       1.0000 0.93600  0.89100  0.86100  Biso   1.000  H
  H2       1.0000 0.06400  0.39100  0.63900  Biso   1.000  H
  H3       1.0000 0.06400  0.10900  0.13900  Biso   1.000  H
  H4       1.0000 0.93600  0.60900  0.36100  Biso   1.000  H
  H5       1.0000 0.02500  0.96800  0.79300  Biso   1.000  H
  H6       1.0000 0.97500  0.46800  0.70700  Biso   1.000  H
  H7       1.0000 0.97500  0.03200  0.20700  Biso   1.000  H
  H8       1.0000 0.02500  0.53200  0.29300  Biso   1.000  H
  H9       1.0000 0.34800  0.61100  0.24600  Biso   1.000  H
  H10      1.0000 0.65200  0.11100  0.25400  Biso   1.000  H
  H11      1.0000 0.65200  0.38900  0.75400  Biso   1.000  H
  H12      1.0000 0.34800  0.88900  0.74600  Biso   1.000  H
  H13      1.0000 0.49000  0.14700  0.00200  Biso   1.000  H
  H14      1.0000 0.51000  0.64700  0.49800  Biso   1.000  H
  H15      1.0000 0.51000  0.85300  0.99800  Biso   1.000  H
  H16      1.0000 0.49000  0.35300  0.50200  Biso   1.000  H
  H17      1.0000 0.34900  0.18600  0.17300  Biso   1.000  H
  H18      1.0000 0.65100  0.68600  0.32700  Biso   1.000  H
  H19      1.0000 0.65100  0.81400  0.82700  Biso   1.000  H
  H20      1.0000 0.34900  0.31400  0.67300  Biso   1.000  H
  H21      1.0000 0.40500  0.03700  0.89600  Biso   1.000  H
  H22      1.0000 0.59500  0.53700  0.60400  Biso   1.000  H
  H23      1.0000 0.59500  0.96300  0.10400  Biso   1.000  H
  H24      1.0000 0.40500  0.46300  0.39600  Biso   1.000  H
  H25      1.0000 0.23700  0.89200  0.95700  Biso   1.000  H
  H26      1.0000 0.76300  0.39200  0.54300  Biso   1.000  H
  H27      1.0000 0.76300  0.10800  0.04300  Biso   1.000  H
  H28      1.0000 0.23700  0.60800  0.45700  Biso   1.000  H
  H29      1.0000 0.19400  0.18100  0.92100  Biso   1.000  H
  H30      1.0000 0.80600  0.68100  0.57900  Biso   1.000  H
  H31      1.0000 0.80600  0.81900  0.07900  Biso   1.000  H
  H32      1.0000 0.19400  0.31900  0.42100  Biso   1.000  H
  H33      1.0000 0.15000  0.44900  0.14600  Biso   1.000  H
  H34      1.0000 0.85000  0.94900  0.35400  Biso   1.000  H
  H35      1.0000 0.85000  0.55100  0.85400  Biso   1.000  H
  H36      1.0000 0.15000  0.05100  0.64600  Biso   1.000  H
  H37      1.0000 0.27300  0.29700  0.02900  Biso   1.000  H
  H38      1.0000 0.72700  0.79700  0.47100  Biso   1.000  H
  H39      1.0000 0.72700  0.70300  0.97100  Biso   1.000  H
  H40      1.0000 0.27300  0.20300  0.52900  Biso   1.000  H
  H41      1.0000 0.06800  0.54700  0.03900  Biso   1.000  H
  H42      1.0000 0.93200  0.04700  0.46100  Biso   1.000  H
  H43      1.0000 0.93200  0.45300  0.96100  Biso   1.000  H
  H44      1.0000 0.06800  0.95300  0.53900  Biso   1.000  H
  H45      1.0000 0.12400  0.73800  0.26300  Biso   1.000  H
  H46      1.0000 0.87600  0.23800  0.23700  Biso   1.000  H
  H47      1.0000 0.87600  0.26200  0.73700  Biso   1.000  H
  H48      1.0000 0.12400  0.76200  0.76300  Biso   1.000  H
  H49      1.0000 0.15800  0.81100  0.03300  Biso   1.000  H
  H50      1.0000 0.84200  0.31100  0.46700  Biso   1.000  H
  H51      1.0000 0.84200  0.18900  0.96700  Biso   1.000  H
  H52      1.0000 0.15800  0.68900  0.53300  Biso   1.000  H
  H53      1.0000 0.03800  0.84700  0.16000  Biso   1.000  H
  H54      1.0000 0.96200  0.34700  0.34000  Biso   1.000  H
  H55      1.0000 0.96200  0.15300  0.84000  Biso   1.000  H
  H56      1.0000 0.03800  0.65300  0.66000  Biso   1.000  H
  H57      1.0000 0.26000  0.26100  0.25300  Biso   1.000  H
  H58      1.0000 0.74000  0.76100  0.24700  Biso   1.000  H
  H59      1.0000 0.74000  0.73900  0.74700  Biso   1.000  H
  H60      1.0000 0.26000  0.23900  0.75300  Biso   1.000  H
  H61      1.0000 0.42900  0.54700  0.16500  Biso   1.000  H
  H62      1.0000 0.57100  0.04700  0.33500  Biso   1.000  H
  H63      1.0000 0.57100  0.45300  0.83500  Biso   1.000  H
  H64      1.0000 0.42900  0.95300  0.66500  Biso   1.000  H
  H65      1.0000 0.29350  0.81600  0.28650  Biso   1.000  H
  H66      1.0000 0.70650  0.31600  0.21350  Biso   1.000  H
  H67      1.0000 0.70650  0.18400  0.71350  Biso   1.000  H
  H68      1.0000 0.29350  0.68400  0.78650  Biso   1.000  H
  H69      1.0000 0.38720  0.05650  0.37380  Biso   1.000  H
  H70      1.0000 0.61280  0.55650  0.12620  Biso   1.000  H
  H71      1.0000 0.61280  0.94350  0.62620  Biso   1.000  H
  H72      1.0000 0.38720  0.44350  0.87380  Biso   1.000  H
  H73      1.0000 0.31300  0.02600  0.29750  Biso   1.000  H
  H74      1.0000 0.68700  0.52600  0.20250  Biso   1.000  H
  H75      1.0000 0.68700  0.97400  0.70250  Biso   1.000  H
  H76      1.0000 0.31300  0.47400  0.79750  Biso   1.000  H
  H77      1.0000 0.29960  0.94200  0.47510  Biso   1.000  H
  H78      1.0000 0.70040  0.44200  0.02490  Biso   1.000  H
  H79      1.0000 0.70040  0.05800  0.52490  Biso   1.000  H
  H80      1.0000 0.29960  0.55800  0.97510  Biso   1.000  H
  H81      1.0000 0.28930  0.08350  0.36610  Biso   1.000  H
  H82      1.0000 0.71070  0.58350  0.13390  Biso   1.000  H
  H83      1.0000 0.71070  0.91650  0.63390  Biso   1.000  H
  H84      1.0000 0.28930  0.41650  0.86610  Biso   1.000  H
  H85      1.0000 0.39390  0.93040  0.48910  Biso   1.000  H
  H86      1.0000 0.60610  0.43040  0.01090  Biso   1.000  H
  H87      1.0000 0.60610  0.06960  0.51090  Biso   1.000  H
  H88      1.0000 0.39390  0.56960  0.98910  Biso   1.000  H
  H89      1.0000 0.06100  0.33100  0.23600  Biso   1.000  H
  H90      1.0000 0.93900  0.83100  0.26400  Biso   1.000  H
  H91      1.0000 0.93900  0.66900  0.76400  Biso   1.000  H
  H92      1.0000 0.06100  0.16900  0.73600  Biso   1.000  H
  H93      1.0000 0.11100  0.24700  0.28200  Biso   1.000  H
  H94      1.0000 0.88900  0.74700  0.21800  Biso   1.000  H
  H95      1.0000 0.88900  0.75300  0.71800  Biso   1.000  H
  H96      1.0000 0.11100  0.25300  0.78200  Biso   1.000  H
  H97      1.0000 0.33800  0.80200  0.47800  Biso   1.000  H
  H98      1.0000 0.66200  0.30200  0.02200  Biso   1.000  H
  H99      1.0000 0.66200  0.19800  0.52200  Biso   1.000  H
  H100     1.0000 0.33800  0.69800  0.97800  Biso   1.000  H
