data_image0
_cell_length_a       12.94
_cell_length_b       12.7
_cell_length_c       10.4
_cell_angle_alpha    90
_cell_angle_beta     96
_cell_angle_gamma    90

_symmetry_space_group_name_H-M    "P 1"
_symmetry_int_tables_number       1

loop_
  _symmetry_equiv_pos_as_xyz
  'x, y, z'

loop_
  _atom_site_label
  _atom_site_occupancy
  _atom_site_fract_x
  _atom_site_fract_y
  _atom_site_fract_z
  _atom_site_thermal_displace_type
  _atom_site_B_iso_or_equiv
  _atom_site_type_symbol
  Cu1      1.0000 0.00000  0.00000  0.00000  Biso   1.000  Cu
  Cu2      1.0000 0.50000  0.50000  0.00000  Biso   1.000  Cu
  Cu3      1.0000 0.00000  0.00000  0.50000  Biso   1.000  Cu
  Cu4      1.0000 0.50000  0.50000  0.50000  Biso   1.000  Cu
  O1       1.0000 0.92230  0.12720  0.04920  Biso   1.000  O
  O2       1.0000 0.42230  0.62720  0.04920  Biso   1.000  O
  O3       1.0000 0.07770  0.12720  0.45080  Biso   1.000  O
  O4       1.0000 0.57770  0.62720  0.45080  Biso   1.000  O
  O5       1.0000 0.07770  0.87280  0.95080  Biso   1.000  O
  O6       1.0000 0.57770  0.37280  0.95080  Biso   1.000  O
  O7       1.0000 0.92230  0.87280  0.54920  Biso   1.000  O
  O8       1.0000 0.42230  0.37280  0.54920  Biso   1.000  O
  O9       1.0000 0.85450  0.18590  0.85230  Biso   1.000  O
  O10      1.0000 0.35450  0.68590  0.85230  Biso   1.000  O
  O11      1.0000 0.14550  0.18590  0.64770  Biso   1.000  O
  O12      1.0000 0.64550  0.68590  0.64770  Biso   1.000  O
  O13      1.0000 0.14550  0.81410  0.14770  Biso   1.000  O
  O14      1.0000 0.64550  0.31410  0.14770  Biso   1.000  O
  O15      1.0000 0.85450  0.81410  0.35230  Biso   1.000  O
  O16      1.0000 0.35450  0.31410  0.35230  Biso   1.000  O
  O17      1.0000 0.00000  0.97160  0.25000  Biso   1.000  O
  O18      1.0000 0.50000  0.47160  0.25000  Biso   1.000  O
  O19      1.0000 0.00000  0.02840  0.75000  Biso   1.000  O
  O20      1.0000 0.50000  0.52840  0.75000  Biso   1.000  O
  C1       1.0000 0.14620  0.14020  0.15420  Biso   1.000  C
  C2       1.0000 0.64620  0.64020  0.15420  Biso   1.000  C
  C3       1.0000 0.85380  0.14020  0.34580  Biso   1.000  C
  C4       1.0000 0.35380  0.64020  0.34580  Biso   1.000  C
  C5       1.0000 0.85380  0.85980  0.84580  Biso   1.000  C
  C6       1.0000 0.35380  0.35980  0.84580  Biso   1.000  C
  C7       1.0000 0.14620  0.85980  0.65420  Biso   1.000  C
  C8       1.0000 0.64620  0.35980  0.65420  Biso   1.000  C
  C9       1.0000 0.40200  0.15710  0.05050  Biso   1.000  C
  C10      1.0000 0.90200  0.65710  0.05050  Biso   1.000  C
  C11      1.0000 0.59800  0.15710  0.44950  Biso   1.000  C
  C12      1.0000 0.09800  0.65710  0.44950  Biso   1.000  C
  C13      1.0000 0.59800  0.84290  0.94950  Biso   1.000  C
  C14      1.0000 0.09800  0.34290  0.94950  Biso   1.000  C
  C15      1.0000 0.40200  0.84290  0.55050  Biso   1.000  C
  C16      1.0000 0.90200  0.34290  0.55050  Biso   1.000  C
  C17      1.0000 0.43190  0.10990  0.94700  Biso   1.000  C
  C18      1.0000 0.93190  0.60990  0.94700  Biso   1.000  C
  C19      1.0000 0.56810  0.10990  0.55300  Biso   1.000  C
  C20      1.0000 0.06810  0.60990  0.55300  Biso   1.000  C
  C21      1.0000 0.56810  0.89010  0.05300  Biso   1.000  C
  C22      1.0000 0.06810  0.39010  0.05300  Biso   1.000  C
  C23      1.0000 0.43190  0.89010  0.44700  Biso   1.000  C
  C24      1.0000 0.93190  0.39010  0.44700  Biso   1.000  C
  C25      1.0000 0.36020  0.04850  0.86390  Biso   1.000  C
  C26      1.0000 0.86020  0.54850  0.86390  Biso   1.000  C
  C27      1.0000 0.63980  0.04850  0.63610  Biso   1.000  C
  C28      1.0000 0.13980  0.54850  0.63610  Biso   1.000  C
  C29      1.0000 0.63980  0.95150  0.13610  Biso   1.000  C
  C30      1.0000 0.13980  0.45150  0.13610  Biso   1.000  C
  C31      1.0000 0.36020  0.95150  0.36390  Biso   1.000  C
  C32      1.0000 0.86020  0.45150  0.36390  Biso   1.000  C
  C33      1.0000 0.25940  0.03130  0.89370  Biso   1.000  C
  C34      1.0000 0.75940  0.53130  0.89370  Biso   1.000  C
  C35      1.0000 0.74060  0.03130  0.60630  Biso   1.000  C
  C36      1.0000 0.24060  0.53130  0.60630  Biso   1.000  C
  C37      1.0000 0.74060  0.96870  0.10630  Biso   1.000  C
  C38      1.0000 0.24060  0.46870  0.10630  Biso   1.000  C
  C39      1.0000 0.25940  0.96870  0.39370  Biso   1.000  C
  C40      1.0000 0.75940  0.46870  0.39370  Biso   1.000  C
  C41      1.0000 0.23120  0.07530  0.99800  Biso   1.000  C
  C42      1.0000 0.73120  0.57530  0.99800  Biso   1.000  C
  C43      1.0000 0.76880  0.07530  0.50200  Biso   1.000  C
  C44      1.0000 0.26880  0.57530  0.50200  Biso   1.000  C
  C45      1.0000 0.76880  0.92470  0.00200  Biso   1.000  C
  C46      1.0000 0.26880  0.42470  0.00200  Biso   1.000  C
  C47      1.0000 0.23120  0.92470  0.49800  Biso   1.000  C
  C48      1.0000 0.73120  0.42470  0.49800  Biso   1.000  C
  C49      1.0000 0.30030  0.14480  0.08270  Biso   1.000  C
  C50      1.0000 0.80030  0.64480  0.08270  Biso   1.000  C
  C51      1.0000 0.69970  0.14480  0.41730  Biso   1.000  C
  C52      1.0000 0.19970  0.64480  0.41730  Biso   1.000  C
  C53      1.0000 0.69970  0.85520  0.91730  Biso   1.000  C
  C54      1.0000 0.19970  0.35520  0.91730  Biso   1.000  C
  C55      1.0000 0.30030  0.85520  0.58270  Biso   1.000  C
  C56      1.0000 0.80030  0.35520  0.58270  Biso   1.000  C
  C57      1.0000 0.87140  0.19070  0.97610  Biso   1.000  C
  C58      1.0000 0.37140  0.69070  0.97610  Biso   1.000  C
  C59      1.0000 0.12860  0.19070  0.52390  Biso   1.000  C
  C60      1.0000 0.62860  0.69070  0.52390  Biso   1.000  C
  C61      1.0000 0.12860  0.80930  0.02390  Biso   1.000  C
  C62      1.0000 0.62860  0.30930  0.02390  Biso   1.000  C
  C63      1.0000 0.87140  0.80930  0.47610  Biso   1.000  C
  C64      1.0000 0.37140  0.30930  0.47610  Biso   1.000  C
  N1       1.0000 0.13180  0.08130  0.05090  Biso   1.000  N
  N2       1.0000 0.63180  0.58130  0.05090  Biso   1.000  N
  N3       1.0000 0.86820  0.08130  0.44910  Biso   1.000  N
  N4       1.0000 0.36820  0.58130  0.44910  Biso   1.000  N
  N5       1.0000 0.86820  0.91870  0.94910  Biso   1.000  N
  N6       1.0000 0.36820  0.41870  0.94910  Biso   1.000  N
  N7       1.0000 0.13180  0.91870  0.55090  Biso   1.000  N
  N8       1.0000 0.63180  0.41870  0.55090  Biso   1.000  N
  N9       1.0000 0.24330  0.17880  0.17500  Biso   1.000  N
  N10      1.0000 0.74330  0.67880  0.17500  Biso   1.000  N
  N11      1.0000 0.75670  0.17880  0.32500  Biso   1.000  N
  N12      1.0000 0.25670  0.67880  0.32500  Biso   1.000  N
  N13      1.0000 0.75670  0.82120  0.82500  Biso   1.000  N
  N14      1.0000 0.25670  0.32120  0.82500  Biso   1.000  N
  N15      1.0000 0.24330  0.82120  0.67500  Biso   1.000  N
  N16      1.0000 0.74330  0.32120  0.67500  Biso   1.000  N
  H1       1.0000 0.08600  0.15600  0.21400  Biso   1.000  H
  H2       1.0000 0.58600  0.65600  0.21400  Biso   1.000  H
  H3       1.0000 0.91400  0.15600  0.28600  Biso   1.000  H
  H4       1.0000 0.41400  0.65600  0.28600  Biso   1.000  H
  H5       1.0000 0.91400  0.84400  0.78600  Biso   1.000  H
  H6       1.0000 0.41400  0.34400  0.78600  Biso   1.000  H
  H7       1.0000 0.08600  0.84400  0.71400  Biso   1.000  H
  H8       1.0000 0.58600  0.34400  0.71400  Biso   1.000  H
  H9       1.0000 0.45000  0.19990  0.10500  Biso   1.000  H
  H10      1.0000 0.95000  0.69990  0.10500  Biso   1.000  H
  H11      1.0000 0.55000  0.19990  0.39500  Biso   1.000  H
  H12      1.0000 0.05000  0.69990  0.39500  Biso   1.000  H
  H13      1.0000 0.55000  0.80010  0.89500  Biso   1.000  H
  H14      1.0000 0.05000  0.30010  0.89500  Biso   1.000  H
  H15      1.0000 0.45000  0.80010  0.60500  Biso   1.000  H
  H16      1.0000 0.95000  0.30010  0.60500  Biso   1.000  H
  H17      1.0000 0.50700  0.11400  0.92200  Biso   1.000  H
  H18      1.0000 0.00700  0.61400  0.92200  Biso   1.000  H
  H19      1.0000 0.49300  0.11400  0.57800  Biso   1.000  H
  H20      1.0000 0.99300  0.61400  0.57800  Biso   1.000  H
  H21      1.0000 0.49300  0.88600  0.07800  Biso   1.000  H
  H22      1.0000 0.99300  0.38600  0.07800  Biso   1.000  H
  H23      1.0000 0.50700  0.88600  0.42200  Biso   1.000  H
  H24      1.0000 0.00700  0.38600  0.42200  Biso   1.000  H
  H25      1.0000 0.38700  0.01900  0.78200  Biso   1.000  H
  H26      1.0000 0.88700  0.51900  0.78200  Biso   1.000  H
  H27      1.0000 0.61300  0.01900  0.71800  Biso   1.000  H
  H28      1.0000 0.11300  0.51900  0.71800  Biso   1.000  H
  H29      1.0000 0.61300  0.98100  0.21800  Biso   1.000  H
  H30      1.0000 0.11300  0.48100  0.21800  Biso   1.000  H
  H31      1.0000 0.38700  0.98100  0.28200  Biso   1.000  H
  H32      1.0000 0.88700  0.48100  0.28200  Biso   1.000  H
  H33      1.0000 0.21100  0.98900  0.83800  Biso   1.000  H
  H34      1.0000 0.71100  0.48900  0.83800  Biso   1.000  H
  H35      1.0000 0.78900  0.98900  0.66200  Biso   1.000  H
  H36      1.0000 0.28900  0.48900  0.66200  Biso   1.000  H
  H37      1.0000 0.78900  0.01100  0.16200  Biso   1.000  H
  H38      1.0000 0.28900  0.51100  0.16200  Biso   1.000  H
  H39      1.0000 0.21100  0.01100  0.33800  Biso   1.000  H
  H40      1.0000 0.71100  0.51100  0.33800  Biso   1.000  H
  H41      1.0000 0.26600  0.22400  0.24900  Biso   1.000  H
  H42      1.0000 0.76600  0.72400  0.24900  Biso   1.000  H
  H43      1.0000 0.73400  0.22400  0.25100  Biso   1.000  H
  H44      1.0000 0.23400  0.72400  0.25100  Biso   1.000  H
  H45      1.0000 0.73400  0.77600  0.75100  Biso   1.000  H
  H46      1.0000 0.23400  0.27600  0.75100  Biso   1.000  H
  H47      1.0000 0.26600  0.77600  0.74900  Biso   1.000  H
  H48      1.0000 0.76600  0.27600  0.74900  Biso   1.000  H
