data_image0
_cell_length_a       8.5157
_cell_length_b       10.8984
_cell_length_c       17.6615
_cell_angle_alpha    90
_cell_angle_beta     90
_cell_angle_gamma    90

_symmetry_space_group_name_H-M    "P 1"
_symmetry_int_tables_number       1

loop_
  _symmetry_equiv_pos_as_xyz
  'x, y, z'

loop_
  _atom_site_label
  _atom_site_occupancy
  _atom_site_fract_x
  _atom_site_fract_y
  _atom_site_fract_z
  _atom_site_thermal_displace_type
  _atom_site_B_iso_or_equiv
  _atom_site_type_symbol
  Cu1      1.0000 0.39330  0.22959  0.24939  Biso   1.000  Cu
  Cu2      1.0000 0.10670  0.77041  0.74939  Biso   1.000  Cu
  Cu3      1.0000 0.60670  0.72959  0.25061  Biso   1.000  Cu
  Cu4      1.0000 0.89330  0.27041  0.75061  Biso   1.000  Cu
  O1       1.0000 0.57320  0.18560  0.31630  Biso   1.000  O
  O2       1.0000 0.92680  0.81440  0.81630  Biso   1.000  O
  O3       1.0000 0.42680  0.68560  0.18370  Biso   1.000  O
  O4       1.0000 0.07320  0.31440  0.68370  Biso   1.000  O
  O5       1.0000 0.62540  0.08150  0.42100  Biso   1.000  O
  O6       1.0000 0.87460  0.91850  0.92100  Biso   1.000  O
  O7       1.0000 0.37460  0.58150  0.07900  Biso   1.000  O
  O8       1.0000 0.12540  0.41850  0.57900  Biso   1.000  O
  O9       1.0000 0.49780  0.86400  0.29860  Biso   1.000  O
  O10      1.0000 0.00220  0.13600  0.79860  Biso   1.000  O
  O11      1.0000 0.50220  0.36400  0.20140  Biso   1.000  O
  O12      1.0000 0.99780  0.63600  0.70140  Biso   1.000  O
  O13      1.0000 0.44530  0.73400  0.39260  Biso   1.000  O
  O14      1.0000 0.05470  0.26600  0.89260  Biso   1.000  O
  O15      1.0000 0.55470  0.23400  0.10740  Biso   1.000  O
  O16      1.0000 0.94530  0.76600  0.60740  Biso   1.000  O
  O17      1.0000 0.28660  0.35870  0.33700  Biso   1.000  O
  O18      1.0000 0.21340  0.64130  0.83700  Biso   1.000  O
  O19      1.0000 0.71340  0.85870  0.16300  Biso   1.000  O
  O20      1.0000 0.78660  0.14130  0.66300  Biso   1.000  O
  H1       1.0000 0.18080  0.38900  0.33080  Biso   1.000  H
  H2       1.0000 0.31920  0.61100  0.83080  Biso   1.000  H
  H3       1.0000 0.81920  0.88900  0.16920  Biso   1.000  H
  H4       1.0000 0.68080  0.11100  0.66920  Biso   1.000  H
  H5       1.0000 0.34830  0.38740  0.37920  Biso   1.000  H
  H6       1.0000 0.15170  0.61260  0.87920  Biso   1.000  H
  H7       1.0000 0.65170  0.88740  0.12080  Biso   1.000  H
  H8       1.0000 0.84830  0.11260  0.62080  Biso   1.000  H
  N1       1.0000 0.19790  0.22420  0.18650  Biso   1.000  N
  N2       1.0000 0.30210  0.77580  0.68650  Biso   1.000  N
  N3       1.0000 0.80210  0.72420  0.31350  Biso   1.000  N
  N4       1.0000 0.69790  0.27580  0.81350  Biso   1.000  N
  N5       1.0000 0.30190  0.07860  0.29300  Biso   1.000  N
  N6       1.0000 0.19810  0.92140  0.79300  Biso   1.000  N
  N7       1.0000 0.69810  0.57860  0.20700  Biso   1.000  N
  N8       1.0000 0.80190  0.42140  0.70700  Biso   1.000  N
  H9       1.0000 0.33670  0.01370  0.26520  Biso   1.000  H
  H10      1.0000 0.16330  0.98630  0.76520  Biso   1.000  H
  H11      1.0000 0.66330  0.51370  0.23480  Biso   1.000  H
  H12      1.0000 0.83670  0.48630  0.73480  Biso   1.000  H
  C1       1.0000 0.17170  0.28740  0.12290  Biso   1.000  C
  C2       1.0000 0.32830  0.71260  0.62290  Biso   1.000  C
  C3       1.0000 0.82830  0.78740  0.37710  Biso   1.000  C
  C4       1.0000 0.67170  0.21260  0.87710  Biso   1.000  C
  H13      1.0000 0.24290  0.34690  0.10720  Biso   1.000  H
  H14      1.0000 0.25710  0.65310  0.60720  Biso   1.000  H
  H15      1.0000 0.75710  0.84690  0.39280  Biso   1.000  H
  H16      1.0000 0.74290  0.15310  0.89280  Biso   1.000  H
  C5       1.0000 0.03920  0.26430  0.08030  Biso   1.000  C
  C6       1.0000 0.46080  0.73570  0.58030  Biso   1.000  C
  C7       1.0000 0.96080  0.76430  0.41970  Biso   1.000  C
  C8       1.0000 0.53920  0.23570  0.91970  Biso   1.000  C
  H17      1.0000 0.02320  0.30520  0.03480  Biso   1.000  H
  H18      1.0000 0.47680  0.69480  0.53480  Biso   1.000  H
  H19      1.0000 0.97680  0.80520  0.46520  Biso   1.000  H
  H20      1.0000 0.52320  0.19480  0.96520  Biso   1.000  H
  C9       1.0000 0.92860  0.17850  0.10640  Biso   1.000  C
  C10      1.0000 0.57140  0.82150  0.60640  Biso   1.000  C
  C11      1.0000 0.07140  0.67850  0.39360  Biso   1.000  C
  C12      1.0000 0.42860  0.32150  0.89360  Biso   1.000  C
  H21      1.0000 0.83950  0.16100  0.07790  Biso   1.000  H
  H22      1.0000 0.66050  0.83900  0.57790  Biso   1.000  H
  H23      1.0000 0.16050  0.66100  0.42210  Biso   1.000  H
  H24      1.0000 0.33950  0.33900  0.92210  Biso   1.000  H
  C13      1.0000 0.95360  0.12100  0.17450  Biso   1.000  C
  C14      1.0000 0.54640  0.87900  0.67450  Biso   1.000  C
  C15      1.0000 0.04640  0.62100  0.32550  Biso   1.000  C
  C16      1.0000 0.45360  0.37900  0.82550  Biso   1.000  C
  H25      1.0000 0.87910  0.06750  0.19440  Biso   1.000  H
  H26      1.0000 0.62090  0.93250  0.69440  Biso   1.000  H
  H27      1.0000 0.12090  0.56750  0.30560  Biso   1.000  H
  H28      1.0000 0.37910  0.43250  0.80560  Biso   1.000  H
  C17      1.0000 0.09000  0.14400  0.21230  Biso   1.000  C
  C18      1.0000 0.41000  0.85600  0.71230  Biso   1.000  C
  C19      1.0000 0.91000  0.64400  0.28770  Biso   1.000  C
  C20      1.0000 0.59000  0.35600  0.78770  Biso   1.000  C
  C21      1.0000 0.12960  0.08470  0.28530  Biso   1.000  C
  C22      1.0000 0.37040  0.91530  0.78530  Biso   1.000  C
  C23      1.0000 0.87040  0.58470  0.21470  Biso   1.000  C
  C24      1.0000 0.62960  0.41530  0.71470  Biso   1.000  C
  H29      1.0000 0.08540  0.13160  0.32690  Biso   1.000  H
  H30      1.0000 0.41460  0.86840  0.82690  Biso   1.000  H
  H31      1.0000 0.91460  0.63160  0.17310  Biso   1.000  H
  H32      1.0000 0.58540  0.36840  0.67310  Biso   1.000  H
  H33      1.0000 0.08560  0.00260  0.28690  Biso   1.000  H
  H34      1.0000 0.41440  0.99740  0.78690  Biso   1.000  H
  H35      1.0000 0.91440  0.50260  0.21310  Biso   1.000  H
  H36      1.0000 0.58560  0.49740  0.71310  Biso   1.000  H
  C25      1.0000 0.36720  0.06720  0.37020  Biso   1.000  C
  C26      1.0000 0.13280  0.93280  0.87020  Biso   1.000  C
  C27      1.0000 0.63280  0.56720  0.12980  Biso   1.000  C
  C28      1.0000 0.86720  0.43280  0.62980  Biso   1.000  C
  H37      1.0000 0.30780  0.12380  0.40240  Biso   1.000  H
  H38      1.0000 0.19220  0.87620  0.90240  Biso   1.000  H
  H39      1.0000 0.69220  0.62380  0.09760  Biso   1.000  H
  H40      1.0000 0.80780  0.37620  0.59760  Biso   1.000  H
  C29      1.0000 0.53620  0.11230  0.36950  Biso   1.000  C
  C30      1.0000 0.96380  0.88770  0.86950  Biso   1.000  C
  C31      1.0000 0.46380  0.61230  0.13050  Biso   1.000  C
  C32      1.0000 0.03620  0.38770  0.63050  Biso   1.000  C
  C33      1.0000 0.34760  0.94050  0.40390  Biso   1.000  C
  C34      1.0000 0.15240  0.05950  0.90390  Biso   1.000  C
  C35      1.0000 0.65240  0.44050  0.09610  Biso   1.000  C
  C36      1.0000 0.84760  0.55950  0.59610  Biso   1.000  C
  H41      1.0000 0.23690  0.91980  0.40380  Biso   1.000  H
  H42      1.0000 0.26310  0.08020  0.90380  Biso   1.000  H
  H43      1.0000 0.76310  0.41980  0.09620  Biso   1.000  H
  H44      1.0000 0.73690  0.58020  0.59620  Biso   1.000  H
  H45      1.0000 0.38230  0.94260  0.45620  Biso   1.000  H
  H46      1.0000 0.11770  0.05740  0.95620  Biso   1.000  H
  H47      1.0000 0.61770  0.44260  0.04380  Biso   1.000  H
  H48      1.0000 0.88230  0.55740  0.54380  Biso   1.000  H
  C37      1.0000 0.43820  0.83840  0.36230  Biso   1.000  C
  C38      1.0000 0.06180  0.16160  0.86230  Biso   1.000  C
  C39      1.0000 0.56180  0.33840  0.13770  Biso   1.000  C
  C40      1.0000 0.93820  0.66160  0.63770  Biso   1.000  C
  O21      1.0000 0.94370  0.10730  0.45250  Biso   1.000  O
  O22      1.0000 0.55630  0.89270  0.95250  Biso   1.000  O
  O23      1.0000 0.05630  0.60730  0.04750  Biso   1.000  O
  O24      1.0000 0.44370  0.39270  0.54750  Biso   1.000  O
  H49      1.0000 0.87850  0.12960  0.41000  Biso   1.000  H
  H50      1.0000 0.62150  0.87040  0.91000  Biso   1.000  H
  H51      1.0000 0.12150  0.62960  0.09000  Biso   1.000  H
  H52      1.0000 0.37850  0.37040  0.59000  Biso   1.000  H
  H53      1.0000 0.89380  0.08410  0.49950  Biso   1.000  H
  H54      1.0000 0.60620  0.91590  0.99950  Biso   1.000  H
  H55      1.0000 0.10620  0.58410  0.00050  Biso   1.000  H
  H56      1.0000 0.39380  0.41590  0.50050  Biso   1.000  H
  O25      1.0000 0.53260  0.16350  0.56540  Biso   1.000  O
  O26      1.0000 0.96740  0.83650  0.06540  Biso   1.000  O
  O27      1.0000 0.46740  0.66350  0.93460  Biso   1.000  O
  O28      1.0000 0.03260  0.33650  0.43460  Biso   1.000  O
  H57      1.0000 0.43710  0.20920  0.57180  Biso   1.000  H
  H58      1.0000 0.06290  0.79080  0.07180  Biso   1.000  H
  H59      1.0000 0.56290  0.70920  0.92820  Biso   1.000  H
  H60      1.0000 0.93710  0.29080  0.42820  Biso   1.000  H
  H61      1.0000 0.59360  0.14160  0.60960  Biso   1.000  H
  H62      1.0000 0.90640  0.85840  0.10960  Biso   1.000  H
  H63      1.0000 0.40640  0.64160  0.89040  Biso   1.000  H
  H64      1.0000 0.09360  0.35840  0.39040  Biso   1.000  H
  O29      1.0000 0.23070  0.88730  0.16240  Biso   1.000  O
  O30      1.0000 0.26930  0.11270  0.66240  Biso   1.000  O
  O31      1.0000 0.76930  0.38730  0.33760  Biso   1.000  O
  O32      1.0000 0.73070  0.61270  0.83760  Biso   1.000  O
  H65      1.0000 0.14570  0.91780  0.13160  Biso   1.000  H
  H66      1.0000 0.35430  0.08220  0.63160  Biso   1.000  H
  H67      1.0000 0.85430  0.41780  0.36840  Biso   1.000  H
  H68      1.0000 0.64570  0.58220  0.86840  Biso   1.000  H
  H69      1.0000 0.25030  0.80020  0.16400  Biso   1.000  H
  H70      1.0000 0.24970  0.19980  0.66400  Biso   1.000  H
  H71      1.0000 0.74970  0.30020  0.33600  Biso   1.000  H
  H72      1.0000 0.75030  0.69980  0.83600  Biso   1.000  H
  O33      1.0000 0.51970  0.49570  0.40830  Biso   1.000  O
  O34      1.0000 0.98030  0.50430  0.90830  Biso   1.000  O
  O35      1.0000 0.48030  0.99570  0.09170  Biso   1.000  O
  O36      1.0000 0.01970  0.00430  0.59170  Biso   1.000  O
  H73      1.0000 0.57840  0.45630  0.36940  Biso   1.000  H
  H74      1.0000 0.92160  0.54370  0.86940  Biso   1.000  H
  H75      1.0000 0.42160  0.95630  0.13060  Biso   1.000  H
  H76      1.0000 0.07840  0.04370  0.63060  Biso   1.000  H
  H77      1.0000 0.49080  0.45380  0.45350  Biso   1.000  H
  H78      1.0000 0.00920  0.54620  0.95350  Biso   1.000  H
  H79      1.0000 0.50920  0.95380  0.04650  Biso   1.000  H
  H80      1.0000 0.99080  0.04620  0.54650  Biso   1.000  H
