data_image0
_cell_length_a       12.5027
_cell_length_b       12.5027
_cell_length_c       26.6599
_cell_angle_alpha    90
_cell_angle_beta     90
_cell_angle_gamma    90

_symmetry_space_group_name_H-M    "P 1"
_symmetry_int_tables_number       1

loop_
  _symmetry_equiv_pos_as_xyz
  'x, y, z'

loop_
  _atom_site_label
  _atom_site_occupancy
  _atom_site_fract_x
  _atom_site_fract_y
  _atom_site_fract_z
  _atom_site_thermal_displace_type
  _atom_site_B_iso_or_equiv
  _atom_site_type_symbol
  Cu1      1.0000 0.25316  0.75812  0.95638  Biso   1.000  Cu
  Cu2      1.0000 0.74188  0.75316  0.20638  Biso   1.000  Cu
  Cu3      1.0000 0.74684  0.24188  0.45638  Biso   1.000  Cu
  Cu4      1.0000 0.25812  0.24684  0.70638  Biso   1.000  Cu
  Cu5      1.0000 0.75316  0.74188  0.79362  Biso   1.000  Cu
  Cu6      1.0000 0.75812  0.25316  0.04362  Biso   1.000  Cu
  Cu7      1.0000 0.24684  0.25812  0.29362  Biso   1.000  Cu
  Cu8      1.0000 0.24188  0.74684  0.54362  Biso   1.000  Cu
  O1       1.0000 0.09650  0.76280  0.96621  Biso   1.000  O
  O2       1.0000 0.73720  0.59650  0.21621  Biso   1.000  O
  O3       1.0000 0.90350  0.23720  0.46621  Biso   1.000  O
  O4       1.0000 0.26280  0.40350  0.71621  Biso   1.000  O
  O5       1.0000 0.59650  0.73720  0.78379  Biso   1.000  O
  O6       1.0000 0.76280  0.09650  0.03379  Biso   1.000  O
  O7       1.0000 0.40350  0.26280  0.28379  Biso   1.000  O
  O8       1.0000 0.23720  0.90350  0.53379  Biso   1.000  O
  O9       1.0000 0.94190  0.70720  0.93403  Biso   1.000  O
  O10      1.0000 0.79280  0.44190  0.18403  Biso   1.000  O
  O11      1.0000 0.05810  0.29280  0.43403  Biso   1.000  O
  O12      1.0000 0.20720  0.55810  0.68403  Biso   1.000  O
  O13      1.0000 0.44190  0.79280  0.81597  Biso   1.000  O
  O14      1.0000 0.70720  0.94190  0.06597  Biso   1.000  O
  O15      1.0000 0.55810  0.20720  0.31597  Biso   1.000  O
  O16      1.0000 0.29280  0.05810  0.56597  Biso   1.000  O
  O17      1.0000 0.90100  0.72760  0.81802  Biso   1.000  O
  O18      1.0000 0.77240  0.40100  0.06802  Biso   1.000  O
  O19      1.0000 0.09900  0.27240  0.31802  Biso   1.000  O
  O20      1.0000 0.22760  0.59900  0.56802  Biso   1.000  O
  O21      1.0000 0.40100  0.77240  0.93198  Biso   1.000  O
  O22      1.0000 0.72760  0.90100  0.18198  Biso   1.000  O
  O23      1.0000 0.59900  0.22760  0.43198  Biso   1.000  O
  O24      1.0000 0.27240  0.09900  0.68198  Biso   1.000  O
  O25      1.0000 0.88370  0.55510  0.83998  Biso   1.000  O
  O26      1.0000 0.94490  0.38370  0.08998  Biso   1.000  O
  O27      1.0000 0.11630  0.44490  0.33998  Biso   1.000  O
  O28      1.0000 0.05510  0.61630  0.58998  Biso   1.000  O
  O29      1.0000 0.38370  0.94490  0.91002  Biso   1.000  O
  O30      1.0000 0.55510  0.88370  0.16002  Biso   1.000  O
  O31      1.0000 0.61630  0.05510  0.41002  Biso   1.000  O
  O32      1.0000 0.44490  0.11630  0.66002  Biso   1.000  O
  N1       1.0000 0.27540  0.87200  0.00859  Biso   1.000  N
  N2       1.0000 0.62800  0.77540  0.25859  Biso   1.000  N
  N3       1.0000 0.72460  0.12800  0.50859  Biso   1.000  N
  N4       1.0000 0.37200  0.22460  0.75859  Biso   1.000  N
  N5       1.0000 0.77540  0.62800  0.74141  Biso   1.000  N
  N6       1.0000 0.87200  0.27540  0.99141  Biso   1.000  N
  N7       1.0000 0.22460  0.37200  0.24141  Biso   1.000  N
  N8       1.0000 0.12800  0.72460  0.49141  Biso   1.000  N
  N9       1.0000 0.28240  0.61750  0.00561  Biso   1.000  N
  N10      1.0000 0.88250  0.78240  0.25561  Biso   1.000  N
  N11      1.0000 0.71760  0.38250  0.50561  Biso   1.000  N
  N12      1.0000 0.11750  0.21760  0.75561  Biso   1.000  N
  N13      1.0000 0.78240  0.88250  0.74439  Biso   1.000  N
  N14      1.0000 0.61750  0.28240  0.99439  Biso   1.000  N
  N15      1.0000 0.21760  0.11750  0.24439  Biso   1.000  N
  N16      1.0000 0.38250  0.71760  0.49439  Biso   1.000  N
  C1       1.0000 0.37030  0.88580  0.03232  Biso   1.000  C
  C2       1.0000 0.61420  0.87030  0.28232  Biso   1.000  C
  C3       1.0000 0.62970  0.11420  0.53232  Biso   1.000  C
  C4       1.0000 0.38580  0.12970  0.78232  Biso   1.000  C
  C5       1.0000 0.87030  0.61420  0.71768  Biso   1.000  C
  C6       1.0000 0.88580  0.37030  0.96768  Biso   1.000  C
  C7       1.0000 0.12970  0.38580  0.21768  Biso   1.000  C
  C8       1.0000 0.11420  0.62970  0.46768  Biso   1.000  C
  H1       1.0000 0.42380  0.83530  0.02710  Biso   1.000  H
  H2       1.0000 0.66470  0.92380  0.27710  Biso   1.000  H
  H3       1.0000 0.57620  0.16470  0.52710  Biso   1.000  H
  H4       1.0000 0.33530  0.07620  0.77710  Biso   1.000  H
  H5       1.0000 0.92380  0.66470  0.72290  Biso   1.000  H
  H6       1.0000 0.83530  0.42380  0.97290  Biso   1.000  H
  H7       1.0000 0.07620  0.33530  0.22290  Biso   1.000  H
  H8       1.0000 0.16470  0.57620  0.47290  Biso   1.000  H
  C9       1.0000 0.32590  0.34910  0.10371  Biso   1.000  C
  C10      1.0000 0.15090  0.82590  0.35371  Biso   1.000  C
  C11      1.0000 0.67410  0.65090  0.60371  Biso   1.000  C
  C12      1.0000 0.84910  0.17410  0.85371  Biso   1.000  C
  C13      1.0000 0.82590  0.15090  0.64629  Biso   1.000  C
  C14      1.0000 0.34910  0.32590  0.89629  Biso   1.000  C
  C15      1.0000 0.17410  0.84910  0.14629  Biso   1.000  C
  C16      1.0000 0.65090  0.67410  0.39629  Biso   1.000  C
  H9       1.0000 0.26850  0.34550  0.12820  Biso   1.000  H
  H10      1.0000 0.15450  0.76850  0.37820  Biso   1.000  H
  H11      1.0000 0.73150  0.65450  0.62820  Biso   1.000  H
  H12      1.0000 0.84550  0.23150  0.87820  Biso   1.000  H
  H13      1.0000 0.76850  0.15450  0.62180  Biso   1.000  H
  H14      1.0000 0.34550  0.26850  0.87180  Biso   1.000  H
  H15      1.0000 0.23150  0.84550  0.12180  Biso   1.000  H
  H16      1.0000 0.65450  0.73150  0.37180  Biso   1.000  H
  H17      1.0000 0.39300  0.35520  0.12180  Biso   1.000  H
  H18      1.0000 0.14480  0.89300  0.37180  Biso   1.000  H
  H19      1.0000 0.60700  0.64480  0.62180  Biso   1.000  H
  H20      1.0000 0.85520  0.10700  0.87180  Biso   1.000  H
  H21      1.0000 0.89300  0.14480  0.62820  Biso   1.000  H
  H22      1.0000 0.35520  0.39300  0.87820  Biso   1.000  H
  H23      1.0000 0.10700  0.85520  0.12820  Biso   1.000  H
  H24      1.0000 0.64480  0.60700  0.37820  Biso   1.000  H
  C17      1.0000 0.27210  0.63520  0.85962  Biso   1.000  C
  C18      1.0000 0.86480  0.77210  0.10962  Biso   1.000  C
  C19      1.0000 0.72790  0.36480  0.35962  Biso   1.000  C
  C20      1.0000 0.13520  0.22790  0.60962  Biso   1.000  C
  C21      1.0000 0.77210  0.86480  0.89038  Biso   1.000  C
  C22      1.0000 0.63520  0.27210  0.14038  Biso   1.000  C
  C23      1.0000 0.22790  0.13520  0.39038  Biso   1.000  C
  C24      1.0000 0.36480  0.72790  0.64038  Biso   1.000  C
  H25      1.0000 0.34560  0.63460  0.86480  Biso   1.000  H
  H26      1.0000 0.86540  0.84560  0.11480  Biso   1.000  H
  H27      1.0000 0.65440  0.36540  0.36480  Biso   1.000  H
  H28      1.0000 0.13460  0.15440  0.61480  Biso   1.000  H
  H29      1.0000 0.84560  0.86540  0.88520  Biso   1.000  H
  H30      1.0000 0.63460  0.34560  0.13520  Biso   1.000  H
  H31      1.0000 0.15440  0.13460  0.38520  Biso   1.000  H
  H32      1.0000 0.36540  0.65440  0.63520  Biso   1.000  H
  C25      1.0000 0.21500  0.03100  0.04863  Biso   1.000  C
  C26      1.0000 0.46900  0.71500  0.29863  Biso   1.000  C
  C27      1.0000 0.78500  0.96900  0.54863  Biso   1.000  C
  C28      1.0000 0.53100  0.28500  0.79863  Biso   1.000  C
  C29      1.0000 0.71500  0.46900  0.70137  Biso   1.000  C
  C30      1.0000 0.03100  0.21500  0.95137  Biso   1.000  C
  C31      1.0000 0.28500  0.53100  0.20137  Biso   1.000  C
  C32      1.0000 0.96900  0.78500  0.45137  Biso   1.000  C
  H33      1.0000 0.15970  0.07940  0.05390  Biso   1.000  H
  H34      1.0000 0.42060  0.65970  0.30390  Biso   1.000  H
  H35      1.0000 0.84030  0.92060  0.55390  Biso   1.000  H
  H36      1.0000 0.57940  0.34030  0.80390  Biso   1.000  H
  H37      1.0000 0.65970  0.42060  0.69610  Biso   1.000  H
  H38      1.0000 0.07940  0.15970  0.94610  Biso   1.000  H
  H39      1.0000 0.34030  0.57940  0.19610  Biso   1.000  H
  H40      1.0000 0.92060  0.84030  0.44610  Biso   1.000  H
  C33      1.0000 0.03990  0.71890  0.93240  Biso   1.000  C
  C34      1.0000 0.78110  0.53990  0.18240  Biso   1.000  C
  C35      1.0000 0.96010  0.28110  0.43240  Biso   1.000  C
  C36      1.0000 0.21890  0.46010  0.68240  Biso   1.000  C
  C37      1.0000 0.53990  0.78110  0.81760  Biso   1.000  C
  C38      1.0000 0.71890  0.03990  0.06760  Biso   1.000  C
  C39      1.0000 0.46010  0.21890  0.31760  Biso   1.000  C
  C40      1.0000 0.28110  0.96010  0.56760  Biso   1.000  C
  C41      1.0000 0.33110  0.14460  0.10335  Biso   1.000  C
  C42      1.0000 0.35540  0.83110  0.35335  Biso   1.000  C
  C43      1.0000 0.66890  0.85540  0.60335  Biso   1.000  C
  C44      1.0000 0.64460  0.16890  0.85335  Biso   1.000  C
  C45      1.0000 0.83110  0.35540  0.64665  Biso   1.000  C
  C46      1.0000 0.14460  0.33110  0.89665  Biso   1.000  C
  C47      1.0000 0.16890  0.64460  0.14665  Biso   1.000  C
  C48      1.0000 0.85540  0.66890  0.39665  Biso   1.000  C
  H41      1.0000 0.40050  0.13950  0.11940  Biso   1.000  H
  H42      1.0000 0.36050  0.90050  0.36940  Biso   1.000  H
  H43      1.0000 0.59950  0.86050  0.61940  Biso   1.000  H
  H44      1.0000 0.63950  0.09950  0.86940  Biso   1.000  H
  H45      1.0000 0.90050  0.36050  0.63060  Biso   1.000  H
  H46      1.0000 0.13950  0.40050  0.88060  Biso   1.000  H
  H47      1.0000 0.09950  0.63950  0.13060  Biso   1.000  H
  H48      1.0000 0.86050  0.59950  0.38060  Biso   1.000  H
  H49      1.0000 0.27710  0.14790  0.12940  Biso   1.000  H
  H50      1.0000 0.35210  0.77710  0.37940  Biso   1.000  H
  H51      1.0000 0.72290  0.85210  0.62940  Biso   1.000  H
  H52      1.0000 0.64790  0.22290  0.87940  Biso   1.000  H
  H53      1.0000 0.77710  0.35210  0.62060  Biso   1.000  H
  H54      1.0000 0.14790  0.27710  0.87060  Biso   1.000  H
  H55      1.0000 0.22290  0.64790  0.12060  Biso   1.000  H
  H56      1.0000 0.85210  0.72290  0.37060  Biso   1.000  H
  C49      1.0000 0.31090  0.44470  0.07142  Biso   1.000  C
  C50      1.0000 0.05530  0.81090  0.32142  Biso   1.000  C
  C51      1.0000 0.68910  0.55530  0.57142  Biso   1.000  C
  C52      1.0000 0.94470  0.18910  0.82142  Biso   1.000  C
  C53      1.0000 0.81090  0.05530  0.67858  Biso   1.000  C
  C54      1.0000 0.44470  0.31090  0.92858  Biso   1.000  C
  C55      1.0000 0.18910  0.94470  0.17858  Biso   1.000  C
  C56      1.0000 0.55530  0.68910  0.42858  Biso   1.000  C
  C57      1.0000 0.32650  0.24640  0.07205  Biso   1.000  C
  C58      1.0000 0.25360  0.82650  0.32205  Biso   1.000  C
  C59      1.0000 0.67350  0.75360  0.57205  Biso   1.000  C
  C60      1.0000 0.74640  0.17350  0.82205  Biso   1.000  C
  C61      1.0000 0.82650  0.25360  0.67795  Biso   1.000  C
  C62      1.0000 0.24640  0.32650  0.92795  Biso   1.000  C
  C63      1.0000 0.17350  0.74640  0.17795  Biso   1.000  C
  C64      1.0000 0.75360  0.67350  0.42795  Biso   1.000  C
  H57      1.0000 0.26250  0.24470  0.05150  Biso   1.000  H
  H58      1.0000 0.25530  0.76250  0.30150  Biso   1.000  H
  H59      1.0000 0.73750  0.75530  0.55150  Biso   1.000  H
  H60      1.0000 0.74470  0.23750  0.80150  Biso   1.000  H
  H61      1.0000 0.76250  0.25530  0.69850  Biso   1.000  H
  H62      1.0000 0.24470  0.26250  0.94850  Biso   1.000  H
  H63      1.0000 0.23750  0.74470  0.19850  Biso   1.000  H
  H64      1.0000 0.75530  0.73750  0.44850  Biso   1.000  H
  H65      1.0000 0.38770  0.24790  0.04970  Biso   1.000  H
  H66      1.0000 0.25210  0.88770  0.29970  Biso   1.000  H
  H67      1.0000 0.61230  0.75210  0.54970  Biso   1.000  H
  H68      1.0000 0.74790  0.11230  0.79970  Biso   1.000  H
  H69      1.0000 0.88770  0.25210  0.70030  Biso   1.000  H
  H70      1.0000 0.24790  0.38770  0.95030  Biso   1.000  H
  H71      1.0000 0.11230  0.74790  0.20030  Biso   1.000  H
  H72      1.0000 0.75210  0.61230  0.45030  Biso   1.000  H
  C65      1.0000 0.21090  0.46990  0.05223  Biso   1.000  C
  C66      1.0000 0.03010  0.71090  0.30223  Biso   1.000  C
  C67      1.0000 0.78910  0.53010  0.55223  Biso   1.000  C
  C68      1.0000 0.96990  0.28910  0.80223  Biso   1.000  C
  C69      1.0000 0.71090  0.03010  0.69777  Biso   1.000  C
  C70      1.0000 0.46990  0.21090  0.94777  Biso   1.000  C
  C71      1.0000 0.28910  0.96990  0.19777  Biso   1.000  C
  C72      1.0000 0.53010  0.78910  0.44777  Biso   1.000  C
  H73      1.0000 0.15160  0.42910  0.06100  Biso   1.000  H
  H74      1.0000 0.07090  0.65160  0.31100  Biso   1.000  H
  H75      1.0000 0.84840  0.57090  0.56100  Biso   1.000  H
  H76      1.0000 0.92910  0.34840  0.81100  Biso   1.000  H
  H77      1.0000 0.65160  0.07090  0.68900  Biso   1.000  H
  H78      1.0000 0.42910  0.15160  0.93900  Biso   1.000  H
  H79      1.0000 0.34840  0.92910  0.18900  Biso   1.000  H
  H80      1.0000 0.57090  0.84840  0.43900  Biso   1.000  H
  C73      1.0000 0.12200  0.59480  0.80815  Biso   1.000  C
  C74      1.0000 0.90520  0.62200  0.05815  Biso   1.000  C
  C75      1.0000 0.87800  0.40520  0.30815  Biso   1.000  C
  C76      1.0000 0.09480  0.37800  0.55815  Biso   1.000  C
  C77      1.0000 0.62200  0.90520  0.94185  Biso   1.000  C
  C78      1.0000 0.59480  0.12200  0.19185  Biso   1.000  C
  C79      1.0000 0.37800  0.09480  0.44185  Biso   1.000  C
  C80      1.0000 0.40520  0.87800  0.69185  Biso   1.000  C
  H81      1.0000 0.09370  0.56860  0.77830  Biso   1.000  H
  H82      1.0000 0.93140  0.59370  0.02830  Biso   1.000  H
  H83      1.0000 0.90630  0.43140  0.27830  Biso   1.000  H
  H84      1.0000 0.06860  0.40630  0.52830  Biso   1.000  H
  H85      1.0000 0.59370  0.93140  0.97170  Biso   1.000  H
  H86      1.0000 0.56860  0.09370  0.22170  Biso   1.000  H
  H87      1.0000 0.40630  0.06860  0.47170  Biso   1.000  H
  H88      1.0000 0.43140  0.90630  0.72170  Biso   1.000  H
  C81      1.0000 0.05440  0.63620  0.84435  Biso   1.000  C
  C82      1.0000 0.86380  0.55440  0.09435  Biso   1.000  C
  C83      1.0000 0.94560  0.36380  0.34435  Biso   1.000  C
  C84      1.0000 0.13620  0.44560  0.59435  Biso   1.000  C
  C85      1.0000 0.55440  0.86380  0.90565  Biso   1.000  C
  C86      1.0000 0.63620  0.05440  0.15565  Biso   1.000  C
  C87      1.0000 0.44560  0.13620  0.40565  Biso   1.000  C
  C88      1.0000 0.36380  0.94560  0.65565  Biso   1.000  C
  C89      1.0000 0.19950  0.55590  0.01995  Biso   1.000  C
  C90      1.0000 0.94410  0.69950  0.26995  Biso   1.000  C
  C91      1.0000 0.80050  0.44410  0.51995  Biso   1.000  C
  C92      1.0000 0.05590  0.30050  0.76995  Biso   1.000  C
  C93      1.0000 0.69950  0.94410  0.73005  Biso   1.000  C
  C94      1.0000 0.55590  0.19950  0.98005  Biso   1.000  C
  C95      1.0000 0.30050  0.05590  0.23005  Biso   1.000  C
  C96      1.0000 0.44410  0.80050  0.48005  Biso   1.000  C
  H89      1.0000 0.13180  0.57170  0.00760  Biso   1.000  H
  H90      1.0000 0.92830  0.63180  0.25760  Biso   1.000  H
  H91      1.0000 0.86820  0.42830  0.50760  Biso   1.000  H
  H92      1.0000 0.07170  0.36820  0.75760  Biso   1.000  H
  H93      1.0000 0.63180  0.92830  0.74240  Biso   1.000  H
  H94      1.0000 0.57170  0.13180  0.99240  Biso   1.000  H
  H95      1.0000 0.36820  0.07170  0.24240  Biso   1.000  H
  H96      1.0000 0.42830  0.86820  0.49240  Biso   1.000  H
  C97      1.0000 0.93530  0.63970  0.83483  Biso   1.000  C
  C98      1.0000 0.86030  0.43530  0.08483  Biso   1.000  C
  C99      1.0000 0.06470  0.36030  0.33483  Biso   1.000  C
  C100     1.0000 0.13970  0.56470  0.58483  Biso   1.000  C
  C101     1.0000 0.43530  0.86030  0.91517  Biso   1.000  C
  C102     1.0000 0.63970  0.93530  0.16517  Biso   1.000  C
  C103     1.0000 0.56470  0.13970  0.41517  Biso   1.000  C
  C104     1.0000 0.36030  0.06470  0.66517  Biso   1.000  C
  C105     1.0000 0.23050  0.59190  0.81581  Biso   1.000  C
  C106     1.0000 0.90810  0.73050  0.06581  Biso   1.000  C
  C107     1.0000 0.76950  0.40810  0.31581  Biso   1.000  C
  C108     1.0000 0.09190  0.26950  0.56581  Biso   1.000  C
  C109     1.0000 0.73050  0.90810  0.93419  Biso   1.000  C
  C110     1.0000 0.59190  0.23050  0.18419  Biso   1.000  C
  C111     1.0000 0.26950  0.09190  0.43419  Biso   1.000  C
  C112     1.0000 0.40810  0.76950  0.68419  Biso   1.000  C
  H97      1.0000 0.27550  0.56140  0.79200  Biso   1.000  H
  H98      1.0000 0.93860  0.77550  0.04200  Biso   1.000  H
  H99      1.0000 0.72450  0.43860  0.29200  Biso   1.000  H
  H100     1.0000 0.06140  0.22450  0.54200  Biso   1.000  H
  H101     1.0000 0.77550  0.93860  0.95800  Biso   1.000  H
  H102     1.0000 0.56140  0.27550  0.20800  Biso   1.000  H
  H103     1.0000 0.22450  0.06140  0.45800  Biso   1.000  H
  H104     1.0000 0.43860  0.72450  0.70800  Biso   1.000  H
  C113     1.0000 0.37840  0.59170  0.02343  Biso   1.000  C
  C114     1.0000 0.90830  0.87840  0.27343  Biso   1.000  C
  C115     1.0000 0.62160  0.40830  0.52343  Biso   1.000  C
  C116     1.0000 0.09170  0.12160  0.77343  Biso   1.000  C
  C117     1.0000 0.87840  0.90830  0.72657  Biso   1.000  C
  C118     1.0000 0.59170  0.37840  0.97657  Biso   1.000  C
  C119     1.0000 0.12160  0.09170  0.22657  Biso   1.000  C
  C120     1.0000 0.40830  0.62160  0.47657  Biso   1.000  C
  H105     1.0000 0.43700  0.63180  0.01310  Biso   1.000  H
  H106     1.0000 0.86820  0.93700  0.26310  Biso   1.000  H
  H107     1.0000 0.56300  0.36820  0.51310  Biso   1.000  H
  H108     1.0000 0.13180  0.06300  0.76310  Biso   1.000  H
  H109     1.0000 0.93700  0.86820  0.73690  Biso   1.000  H
  H110     1.0000 0.63180  0.43700  0.98690  Biso   1.000  H
  H111     1.0000 0.06300  0.13180  0.23690  Biso   1.000  H
  H112     1.0000 0.36820  0.56300  0.48690  Biso   1.000  H
  C121     1.0000 0.39530  0.50840  0.05650  Biso   1.000  C
  C122     1.0000 0.99160  0.89530  0.30650  Biso   1.000  C
  C123     1.0000 0.60470  0.49160  0.55650  Biso   1.000  C
  C124     1.0000 0.00840  0.10470  0.80650  Biso   1.000  C
  C125     1.0000 0.89530  0.99160  0.69350  Biso   1.000  C
  C126     1.0000 0.50840  0.39530  0.94350  Biso   1.000  C
  C127     1.0000 0.10470  0.00840  0.19350  Biso   1.000  C
  C128     1.0000 0.49160  0.60470  0.44350  Biso   1.000  C
  H113     1.0000 0.46370  0.49520  0.06870  Biso   1.000  H
  H114     1.0000 0.00480  0.96370  0.31870  Biso   1.000  H
  H115     1.0000 0.53630  0.50480  0.56870  Biso   1.000  H
  H116     1.0000 0.99520  0.03630  0.81870  Biso   1.000  H
  H117     1.0000 0.96370  0.00480  0.68130  Biso   1.000  H
  H118     1.0000 0.49520  0.46370  0.93130  Biso   1.000  H
  H119     1.0000 0.03630  0.99520  0.18130  Biso   1.000  H
  H120     1.0000 0.50480  0.53630  0.43130  Biso   1.000  H
  N17      1.0000 0.20790  0.67800  0.89445  Biso   1.000  N
  N18      1.0000 0.82200  0.70790  0.14445  Biso   1.000  N
  N19      1.0000 0.79210  0.32200  0.39445  Biso   1.000  N
  N20      1.0000 0.17800  0.29210  0.64445  Biso   1.000  N
  N21      1.0000 0.70790  0.82200  0.85555  Biso   1.000  N
  N22      1.0000 0.67800  0.20790  0.10555  Biso   1.000  N
  N23      1.0000 0.29210  0.17800  0.35555  Biso   1.000  N
  N24      1.0000 0.32200  0.79210  0.60555  Biso   1.000  N
  C129     1.0000 0.10120  0.67600  0.88811  Biso   1.000  C
  C130     1.0000 0.82400  0.60120  0.13811  Biso   1.000  C
  C131     1.0000 0.89880  0.32400  0.38811  Biso   1.000  C
  C132     1.0000 0.17600  0.39880  0.63811  Biso   1.000  C
  C133     1.0000 0.60120  0.82400  0.86189  Biso   1.000  C
  C134     1.0000 0.67600  0.10120  0.11189  Biso   1.000  C
  C135     1.0000 0.39880  0.17600  0.36189  Biso   1.000  C
  C136     1.0000 0.32400  0.89880  0.61189  Biso   1.000  C
  C137     1.0000 0.39140  0.97010  0.06348  Biso   1.000  C
  C138     1.0000 0.52990  0.89140  0.31348  Biso   1.000  C
  C139     1.0000 0.60860  0.02990  0.56348  Biso   1.000  C
  C140     1.0000 0.47010  0.10860  0.81348  Biso   1.000  C
  C141     1.0000 0.89140  0.52990  0.68652  Biso   1.000  C
  C142     1.0000 0.97010  0.39140  0.93652  Biso   1.000  C
  C143     1.0000 0.10860  0.47010  0.18652  Biso   1.000  C
  C144     1.0000 0.02990  0.60860  0.43652  Biso   1.000  C
  H121     1.0000 0.45770  0.97600  0.07900  Biso   1.000  H
  H122     1.0000 0.52400  0.95770  0.32900  Biso   1.000  H
  H123     1.0000 0.54230  0.02400  0.57900  Biso   1.000  H
  H124     1.0000 0.47600  0.04230  0.82900  Biso   1.000  H
  H125     1.0000 0.95770  0.52400  0.67100  Biso   1.000  H
  H126     1.0000 0.97600  0.45770  0.92100  Biso   1.000  H
  H127     1.0000 0.04230  0.47600  0.17100  Biso   1.000  H
  H128     1.0000 0.02400  0.54230  0.42100  Biso   1.000  H
  C145     1.0000 0.19900  0.94460  0.01808  Biso   1.000  C
  C146     1.0000 0.55540  0.69900  0.26808  Biso   1.000  C
  C147     1.0000 0.80100  0.05540  0.51808  Biso   1.000  C
  C148     1.0000 0.44460  0.30100  0.76808  Biso   1.000  C
  C149     1.0000 0.69900  0.55540  0.73192  Biso   1.000  C
  C150     1.0000 0.94460  0.19900  0.98192  Biso   1.000  C
  C151     1.0000 0.30100  0.44460  0.23192  Biso   1.000  C
  C152     1.0000 0.05540  0.80100  0.48192  Biso   1.000  C
  H129     1.0000 0.13220  0.93580  0.00330  Biso   1.000  H
  H130     1.0000 0.56420  0.63220  0.25330  Biso   1.000  H
  H131     1.0000 0.86780  0.06420  0.50330  Biso   1.000  H
  H132     1.0000 0.43580  0.36780  0.75330  Biso   1.000  H
  H133     1.0000 0.63220  0.56420  0.74670  Biso   1.000  H
  H134     1.0000 0.93580  0.13220  0.99670  Biso   1.000  H
  H135     1.0000 0.36780  0.43580  0.24670  Biso   1.000  H
  H136     1.0000 0.06420  0.86780  0.49670  Biso   1.000  H
  C153     1.0000 0.31280  0.04710  0.07172  Biso   1.000  C
  C154     1.0000 0.45290  0.81280  0.32172  Biso   1.000  C
  C155     1.0000 0.68720  0.95290  0.57172  Biso   1.000  C
  C156     1.0000 0.54710  0.18720  0.82172  Biso   1.000  C
  C157     1.0000 0.81280  0.45290  0.67828  Biso   1.000  C
  C158     1.0000 0.04710  0.31280  0.92828  Biso   1.000  C
  C159     1.0000 0.18720  0.54710  0.17828  Biso   1.000  C
  C160     1.0000 0.95290  0.68720  0.42828  Biso   1.000  C
  O33      1.0000 0.62130  0.73350  0.03944  Biso   1.000  O
  O34      1.0000 0.76650  0.12130  0.28944  Biso   1.000  O
  O35      1.0000 0.37870  0.26650  0.53944  Biso   1.000  O
  O36      1.0000 0.23350  0.87870  0.78944  Biso   1.000  O
  O37      1.0000 0.12130  0.76650  0.71056  Biso   1.000  O
  O38      1.0000 0.73350  0.62130  0.96056  Biso   1.000  O
  O39      1.0000 0.87870  0.23350  0.21056  Biso   1.000  O
  O40      1.0000 0.26650  0.37870  0.46056  Biso   1.000  O
  O41      1.0000 0.53510  0.67100  0.13612  Biso   1.000  O
  O42      1.0000 0.82900  0.03510  0.38612  Biso   1.000  O
  O43      1.0000 0.46490  0.32900  0.63612  Biso   1.000  O
  O44      1.0000 0.17100  0.96490  0.88612  Biso   1.000  O
  O45      1.0000 0.03510  0.82900  0.61388  Biso   1.000  O
  O46      1.0000 0.67100  0.53510  0.86388  Biso   1.000  O
  O47      1.0000 0.96490  0.17100  0.11388  Biso   1.000  O
  O48      1.0000 0.32900  0.46490  0.36388  Biso   1.000  O
  O49      1.0000 0.98470  0.96540  0.93840  Biso   1.000  O
  O50      1.0000 0.53460  0.48470  0.18840  Biso   1.000  O
  O51      1.0000 0.01530  0.03460  0.43840  Biso   1.000  O
  O52      1.0000 0.46540  0.51530  0.68840  Biso   1.000  O
  O53      1.0000 0.48470  0.53460  0.81160  Biso   1.000  O
  O54      1.0000 0.96540  0.98470  0.06160  Biso   1.000  O
  O55      1.0000 0.51530  0.46540  0.31160  Biso   1.000  O
  O56      1.0000 0.03460  0.01530  0.56160  Biso   1.000  O
