data_image0
_cell_length_a       12.4745
_cell_length_b       12.4745
_cell_length_c       26.721
_cell_angle_alpha    90
_cell_angle_beta     90
_cell_angle_gamma    90

_symmetry_space_group_name_H-M    "P 1"
_symmetry_int_tables_number       1

loop_
  _symmetry_equiv_pos_as_xyz
  'x, y, z'

loop_
  _atom_site_label
  _atom_site_occupancy
  _atom_site_fract_x
  _atom_site_fract_y
  _atom_site_fract_z
  _atom_site_thermal_displace_type
  _atom_site_B_iso_or_equiv
  _atom_site_type_symbol
  Cu1      1.0000 0.75184  0.26157  0.04446  Biso   1.000  Cu
  Cu2      1.0000 0.24816  0.73843  0.54446  Biso   1.000  Cu
  Cu3      1.0000 0.23843  0.25184  0.79446  Biso   1.000  Cu
  Cu4      1.0000 0.76157  0.74816  0.29446  Biso   1.000  Cu
  Cu5      1.0000 0.74816  0.76157  0.70554  Biso   1.000  Cu
  Cu6      1.0000 0.25184  0.23843  0.20554  Biso   1.000  Cu
  Cu7      1.0000 0.26157  0.75184  0.95554  Biso   1.000  Cu
  Cu8      1.0000 0.73843  0.24816  0.45554  Biso   1.000  Cu
  N1       1.0000 0.70880  0.17980  0.10636  Biso   1.000  N
  N2       1.0000 0.29120  0.82020  0.60636  Biso   1.000  N
  N3       1.0000 0.32020  0.20880  0.85636  Biso   1.000  N
  N4       1.0000 0.67980  0.79120  0.35636  Biso   1.000  N
  N5       1.0000 0.79120  0.67980  0.64364  Biso   1.000  N
  N6       1.0000 0.20880  0.32020  0.14364  Biso   1.000  N
  N7       1.0000 0.17980  0.70880  0.89364  Biso   1.000  N
  N8       1.0000 0.82020  0.29120  0.39364  Biso   1.000  N
  N9       1.0000 0.78130  0.12060  0.99528  Biso   1.000  N
  N10      1.0000 0.21870  0.87940  0.49528  Biso   1.000  N
  N11      1.0000 0.37940  0.28130  0.74528  Biso   1.000  N
  N12      1.0000 0.62060  0.71870  0.24528  Biso   1.000  N
  N13      1.0000 0.71870  0.62060  0.75472  Biso   1.000  N
  N14      1.0000 0.28130  0.37940  0.25472  Biso   1.000  N
  N15      1.0000 0.12060  0.78130  0.00472  Biso   1.000  N
  N16      1.0000 0.87940  0.21870  0.50472  Biso   1.000  N
  N17      1.0000 0.77220  0.37580  0.99194  Biso   1.000  N
  N18      1.0000 0.22780  0.62420  0.49194  Biso   1.000  N
  N19      1.0000 0.12420  0.27220  0.74194  Biso   1.000  N
  N20      1.0000 0.87580  0.72780  0.24194  Biso   1.000  N
  N21      1.0000 0.72780  0.87580  0.75806  Biso   1.000  N
  N22      1.0000 0.27220  0.12420  0.25806  Biso   1.000  N
  N23      1.0000 0.37580  0.77220  0.00806  Biso   1.000  N
  N24      1.0000 0.62420  0.22780  0.50806  Biso   1.000  N
  O1       1.0000 0.59460  0.26490  0.03478  Biso   1.000  O
  O2       1.0000 0.40540  0.73510  0.53478  Biso   1.000  O
  O3       1.0000 0.23510  0.09460  0.78478  Biso   1.000  O
  O4       1.0000 0.76490  0.90540  0.28478  Biso   1.000  O
  O5       1.0000 0.90540  0.76490  0.71522  Biso   1.000  O
  O6       1.0000 0.09460  0.23510  0.21522  Biso   1.000  O
  O7       1.0000 0.26490  0.59460  0.96522  Biso   1.000  O
  O8       1.0000 0.73510  0.40540  0.46522  Biso   1.000  O
  O9       1.0000 0.44156  0.20160  0.06616  Biso   1.000  O
  O10      1.0000 0.55844  0.79840  0.56616  Biso   1.000  O
  O11      1.0000 0.29840  0.94156  0.81616  Biso   1.000  O
  O12      1.0000 0.70160  0.05844  0.31616  Biso   1.000  O
  O13      1.0000 0.05844  0.70160  0.68384  Biso   1.000  O
  O14      1.0000 0.94156  0.29840  0.18384  Biso   1.000  O
  O15      1.0000 0.20160  0.44156  0.93384  Biso   1.000  O
  O16      1.0000 0.79840  0.55844  0.43384  Biso   1.000  O
  O17      1.0000 0.40016  0.22425  0.18211  Biso   1.000  O
  O18      1.0000 0.59984  0.77575  0.68211  Biso   1.000  O
  O19      1.0000 0.27575  0.90016  0.93211  Biso   1.000  O
  O20      1.0000 0.72425  0.09984  0.43211  Biso   1.000  O
  O21      1.0000 0.09984  0.72425  0.56789  Biso   1.000  O
  O22      1.0000 0.90016  0.27575  0.06789  Biso   1.000  O
  O23      1.0000 0.22425  0.40016  0.81789  Biso   1.000  O
  O24      1.0000 0.77575  0.59984  0.31789  Biso   1.000  O
  O25      1.0000 0.38680  0.05000  0.16084  Biso   1.000  O
  O26      1.0000 0.61320  0.95000  0.66084  Biso   1.000  O
  O27      1.0000 0.45000  0.88680  0.91084  Biso   1.000  O
  O28      1.0000 0.55000  0.11320  0.41084  Biso   1.000  O
  O29      1.0000 0.11320  0.55000  0.58916  Biso   1.000  O
  O30      1.0000 0.88680  0.45000  0.08916  Biso   1.000  O
  O31      1.0000 0.05000  0.38680  0.83916  Biso   1.000  O
  O32      1.0000 0.95000  0.61320  0.33916  Biso   1.000  O
  C1       1.0000 0.60180  0.17520  0.11272  Biso   1.000  C
  C2       1.0000 0.39820  0.82480  0.61272  Biso   1.000  C
  C3       1.0000 0.32480  0.10180  0.86272  Biso   1.000  C
  C4       1.0000 0.67520  0.89820  0.36272  Biso   1.000  C
  C5       1.0000 0.89820  0.67520  0.63728  Biso   1.000  C
  C6       1.0000 0.10180  0.32480  0.13728  Biso   1.000  C
  C7       1.0000 0.17520  0.60180  0.88728  Biso   1.000  C
  C8       1.0000 0.82480  0.39820  0.38728  Biso   1.000  C
  C9       1.0000 0.53850  0.21740  0.06816  Biso   1.000  C
  C10      1.0000 0.46150  0.78260  0.56816  Biso   1.000  C
  C11      1.0000 0.28260  0.03850  0.81816  Biso   1.000  C
  C12      1.0000 0.71740  0.96150  0.31816  Biso   1.000  C
  C13      1.0000 0.96150  0.71740  0.68184  Biso   1.000  C
  C14      1.0000 0.03850  0.28260  0.18184  Biso   1.000  C
  C15      1.0000 0.21740  0.53850  0.93184  Biso   1.000  C
  C16      1.0000 0.78260  0.46150  0.43184  Biso   1.000  C
  C17      1.0000 0.55570  0.13490  0.15610  Biso   1.000  C
  C18      1.0000 0.44430  0.86510  0.65610  Biso   1.000  C
  C19      1.0000 0.36510  0.05570  0.90610  Biso   1.000  C
  C20      1.0000 0.63490  0.94430  0.40610  Biso   1.000  C
  C21      1.0000 0.94430  0.63490  0.59390  Biso   1.000  C
  C22      1.0000 0.05570  0.36510  0.09390  Biso   1.000  C
  C23      1.0000 0.13490  0.55570  0.84390  Biso   1.000  C
  C24      1.0000 0.86510  0.44430  0.34390  Biso   1.000  C
  C25      1.0000 0.43670  0.13540  0.16563  Biso   1.000  C
  C26      1.0000 0.56330  0.86460  0.66563  Biso   1.000  C
  C27      1.0000 0.36460  0.93670  0.91563  Biso   1.000  C
  C28      1.0000 0.63540  0.06330  0.41563  Biso   1.000  C
  C29      1.0000 0.06330  0.63540  0.58437  Biso   1.000  C
  C30      1.0000 0.93670  0.36460  0.08437  Biso   1.000  C
  C31      1.0000 0.13540  0.43670  0.83437  Biso   1.000  C
  C32      1.0000 0.86460  0.56330  0.33437  Biso   1.000  C
  C33      1.0000 0.62400  0.09450  0.19233  Biso   1.000  C
  C34      1.0000 0.37600  0.90550  0.69233  Biso   1.000  C
  C35      1.0000 0.40550  0.12400  0.94233  Biso   1.000  C
  C36      1.0000 0.59450  0.87600  0.44233  Biso   1.000  C
  C37      1.0000 0.87600  0.59450  0.55767  Biso   1.000  C
  C38      1.0000 0.12400  0.40550  0.05767  Biso   1.000  C
  C39      1.0000 0.09450  0.62400  0.80767  Biso   1.000  C
  C40      1.0000 0.90550  0.37600  0.30767  Biso   1.000  C
  H1       1.0000 0.59520  0.06670  0.22260  Biso   1.000  H
  H2       1.0000 0.40480  0.93330  0.72260  Biso   1.000  H
  H3       1.0000 0.43330  0.09520  0.97260  Biso   1.000  H
  H4       1.0000 0.56670  0.90480  0.47260  Biso   1.000  H
  H5       1.0000 0.90480  0.56670  0.52740  Biso   1.000  H
  H6       1.0000 0.09520  0.43330  0.02740  Biso   1.000  H
  H7       1.0000 0.06670  0.59520  0.77740  Biso   1.000  H
  H8       1.0000 0.93330  0.40480  0.27740  Biso   1.000  H
  C41      1.0000 0.73360  0.09420  0.18502  Biso   1.000  C
  C42      1.0000 0.26640  0.90580  0.68502  Biso   1.000  C
  C43      1.0000 0.40580  0.23360  0.93502  Biso   1.000  C
  C44      1.0000 0.59420  0.76640  0.43502  Biso   1.000  C
  C45      1.0000 0.76640  0.59420  0.56498  Biso   1.000  C
  C46      1.0000 0.23360  0.40580  0.06498  Biso   1.000  C
  C47      1.0000 0.09420  0.73360  0.81498  Biso   1.000  C
  C48      1.0000 0.90580  0.26640  0.31498  Biso   1.000  C
  H9       1.0000 0.78050  0.06440  0.20930  Biso   1.000  H
  H10      1.0000 0.21950  0.93560  0.70930  Biso   1.000  H
  H11      1.0000 0.43560  0.28050  0.95930  Biso   1.000  H
  H12      1.0000 0.56440  0.71950  0.45930  Biso   1.000  H
  H13      1.0000 0.71950  0.56440  0.54070  Biso   1.000  H
  H14      1.0000 0.28050  0.43560  0.04070  Biso   1.000  H
  H15      1.0000 0.06440  0.78050  0.79070  Biso   1.000  H
  H16      1.0000 0.93560  0.21950  0.29070  Biso   1.000  H
  C49      1.0000 0.77340  0.13890  0.14100  Biso   1.000  C
  C50      1.0000 0.22660  0.86110  0.64100  Biso   1.000  C
  C51      1.0000 0.36110  0.27340  0.89100  Biso   1.000  C
  C52      1.0000 0.63890  0.72660  0.39100  Biso   1.000  C
  C53      1.0000 0.72660  0.63890  0.60900  Biso   1.000  C
  C54      1.0000 0.27340  0.36110  0.10900  Biso   1.000  C
  C55      1.0000 0.13890  0.77340  0.85900  Biso   1.000  C
  C56      1.0000 0.86110  0.22660  0.35900  Biso   1.000  C
  H17      1.0000 0.84870  0.14030  0.13560  Biso   1.000  H
  H18      1.0000 0.15130  0.85970  0.63560  Biso   1.000  H
  H19      1.0000 0.35970  0.34870  0.88560  Biso   1.000  H
  H20      1.0000 0.64030  0.65130  0.38560  Biso   1.000  H
  H21      1.0000 0.65130  0.64030  0.61440  Biso   1.000  H
  H22      1.0000 0.34870  0.35970  0.11440  Biso   1.000  H
  H23      1.0000 0.14030  0.84870  0.86440  Biso   1.000  H
  H24      1.0000 0.85970  0.15130  0.36440  Biso   1.000  H
  C57      1.0000 0.87800  0.09470  0.97738  Biso   1.000  C
  C58      1.0000 0.12200  0.90530  0.47738  Biso   1.000  C
  C59      1.0000 0.40530  0.37800  0.72738  Biso   1.000  C
  C60      1.0000 0.59470  0.62200  0.22738  Biso   1.000  C
  C61      1.0000 0.62200  0.59470  0.77262  Biso   1.000  C
  C62      1.0000 0.37800  0.40530  0.27262  Biso   1.000  C
  C63      1.0000 0.09470  0.87800  0.02262  Biso   1.000  C
  C64      1.0000 0.90530  0.12200  0.52262  Biso   1.000  C
  H25      1.0000 0.93750  0.13660  0.98780  Biso   1.000  H
  H26      1.0000 0.06250  0.86340  0.48780  Biso   1.000  H
  H27      1.0000 0.36340  0.43750  0.73780  Biso   1.000  H
  H28      1.0000 0.63660  0.56250  0.23780  Biso   1.000  H
  H29      1.0000 0.56250  0.63660  0.76220  Biso   1.000  H
  H30      1.0000 0.43750  0.36340  0.26220  Biso   1.000  H
  H31      1.0000 0.13660  0.93750  0.01220  Biso   1.000  H
  H32      1.0000 0.86340  0.06250  0.51220  Biso   1.000  H
  C65      1.0000 0.89690  0.01100  0.94478  Biso   1.000  C
  C66      1.0000 0.10310  0.98900  0.44478  Biso   1.000  C
  C67      1.0000 0.48900  0.39690  0.69478  Biso   1.000  C
  C68      1.0000 0.51100  0.60310  0.19478  Biso   1.000  C
  C69      1.0000 0.60310  0.51100  0.80522  Biso   1.000  C
  C70      1.0000 0.39690  0.48900  0.30522  Biso   1.000  C
  C71      1.0000 0.01100  0.89690  0.05522  Biso   1.000  C
  C72      1.0000 0.98900  0.10310  0.55522  Biso   1.000  C
  H33      1.0000 0.96730  0.99690  0.93290  Biso   1.000  H
  H34      1.0000 0.03270  0.00310  0.43290  Biso   1.000  H
  H35      1.0000 0.50310  0.46730  0.68290  Biso   1.000  H
  H36      1.0000 0.49690  0.53270  0.18290  Biso   1.000  H
  H37      1.0000 0.53270  0.49690  0.81710  Biso   1.000  H
  H38      1.0000 0.46730  0.50310  0.31710  Biso   1.000  H
  H39      1.0000 0.99690  0.96730  0.06710  Biso   1.000  H
  H40      1.0000 0.00310  0.03270  0.56710  Biso   1.000  H
  C73      1.0000 0.81180  0.94820  0.92974  Biso   1.000  C
  C74      1.0000 0.18820  0.05180  0.42974  Biso   1.000  C
  C75      1.0000 0.55180  0.31180  0.67974  Biso   1.000  C
  C76      1.0000 0.44820  0.68820  0.17974  Biso   1.000  C
  C77      1.0000 0.68820  0.44820  0.82026  Biso   1.000  C
  C78      1.0000 0.31180  0.55180  0.32026  Biso   1.000  C
  C79      1.0000 0.94820  0.81180  0.07026  Biso   1.000  C
  C80      1.0000 0.05180  0.18820  0.57026  Biso   1.000  C
  C81      1.0000 0.71120  0.97350  0.94845  Biso   1.000  C
  C82      1.0000 0.28880  0.02650  0.44845  Biso   1.000  C
  C83      1.0000 0.52650  0.21120  0.69845  Biso   1.000  C
  C84      1.0000 0.47350  0.78880  0.19845  Biso   1.000  C
  C85      1.0000 0.78880  0.47350  0.80155  Biso   1.000  C
  C86      1.0000 0.21120  0.52650  0.30155  Biso   1.000  C
  C87      1.0000 0.97350  0.71120  0.05155  Biso   1.000  C
  C88      1.0000 0.02650  0.28880  0.55155  Biso   1.000  C
  H41      1.0000 0.65050  0.93160  0.93940  Biso   1.000  H
  H42      1.0000 0.34950  0.06840  0.43940  Biso   1.000  H
  H43      1.0000 0.56840  0.15050  0.68940  Biso   1.000  H
  H44      1.0000 0.43160  0.84950  0.18940  Biso   1.000  H
  H45      1.0000 0.84950  0.43160  0.81060  Biso   1.000  H
  H46      1.0000 0.15050  0.56840  0.31060  Biso   1.000  H
  H47      1.0000 0.93160  0.65050  0.06060  Biso   1.000  H
  H48      1.0000 0.06840  0.34950  0.56060  Biso   1.000  H
  C89      1.0000 0.70000  0.05980  0.98020  Biso   1.000  C
  C90      1.0000 0.30000  0.94020  0.48020  Biso   1.000  C
  C91      1.0000 0.44020  0.20000  0.73020  Biso   1.000  C
  C92      1.0000 0.55980  0.80000  0.23020  Biso   1.000  C
  C93      1.0000 0.80000  0.55980  0.76980  Biso   1.000  C
  C94      1.0000 0.20000  0.44020  0.26980  Biso   1.000  C
  C95      1.0000 0.05980  0.70000  0.01980  Biso   1.000  C
  C96      1.0000 0.94020  0.30000  0.51980  Biso   1.000  C
  H49      1.0000 0.63020  0.07670  0.99200  Biso   1.000  H
  H50      1.0000 0.36980  0.92330  0.49200  Biso   1.000  H
  H51      1.0000 0.42330  0.13020  0.74200  Biso   1.000  H
  H52      1.0000 0.57670  0.86980  0.24200  Biso   1.000  H
  H53      1.0000 0.86980  0.57670  0.75800  Biso   1.000  H
  H54      1.0000 0.13020  0.42330  0.25800  Biso   1.000  H
  H55      1.0000 0.07670  0.63020  0.00800  Biso   1.000  H
  H56      1.0000 0.92330  0.36980  0.50800  Biso   1.000  H
  C97      1.0000 0.82760  0.85180  0.89684  Biso   1.000  C
  C98      1.0000 0.17240  0.14820  0.39684  Biso   1.000  C
  C99      1.0000 0.64820  0.32760  0.64684  Biso   1.000  C
  C100     1.0000 0.35180  0.67240  0.14684  Biso   1.000  C
  C101     1.0000 0.67240  0.35180  0.85316  Biso   1.000  C
  C102     1.0000 0.32760  0.64820  0.35316  Biso   1.000  C
  C103     1.0000 0.85180  0.82760  0.10316  Biso   1.000  C
  C104     1.0000 0.14820  0.17240  0.60316  Biso   1.000  C
  H57      1.0000 0.89750  0.85690  0.87950  Biso   1.000  H
  H58      1.0000 0.10250  0.14310  0.37950  Biso   1.000  H
  H59      1.0000 0.64310  0.39750  0.62950  Biso   1.000  H
  H60      1.0000 0.35690  0.60250  0.12950  Biso   1.000  H
  H61      1.0000 0.60250  0.35690  0.87050  Biso   1.000  H
  H62      1.0000 0.39750  0.64310  0.37050  Biso   1.000  H
  H63      1.0000 0.85690  0.89750  0.12050  Biso   1.000  H
  H64      1.0000 0.14310  0.10250  0.62050  Biso   1.000  H
  H65      1.0000 0.77050  0.84930  0.87110  Biso   1.000  H
  H66      1.0000 0.22950  0.15070  0.37110  Biso   1.000  H
  H67      1.0000 0.65070  0.27050  0.62110  Biso   1.000  H
  H68      1.0000 0.34930  0.72950  0.12110  Biso   1.000  H
  H69      1.0000 0.72950  0.34930  0.87890  Biso   1.000  H
  H70      1.0000 0.27050  0.65070  0.37890  Biso   1.000  H
  H71      1.0000 0.84930  0.77050  0.12890  Biso   1.000  H
  H72      1.0000 0.15070  0.22950  0.62890  Biso   1.000  H
  C105     1.0000 0.82410  0.74960  0.92837  Biso   1.000  C
  C106     1.0000 0.17590  0.25040  0.42837  Biso   1.000  C
  C107     1.0000 0.75040  0.32410  0.67837  Biso   1.000  C
  C108     1.0000 0.24960  0.67590  0.17837  Biso   1.000  C
  C109     1.0000 0.67590  0.24960  0.82163  Biso   1.000  C
  C110     1.0000 0.32410  0.75040  0.32163  Biso   1.000  C
  C111     1.0000 0.74960  0.82410  0.07163  Biso   1.000  C
  C112     1.0000 0.25040  0.17590  0.57163  Biso   1.000  C
  H73      1.0000 0.75780  0.74980  0.94880  Biso   1.000  H
  H74      1.0000 0.24220  0.25020  0.44880  Biso   1.000  H
  H75      1.0000 0.75020  0.25780  0.69880  Biso   1.000  H
  H76      1.0000 0.24980  0.74220  0.19880  Biso   1.000  H
  H77      1.0000 0.74220  0.24980  0.80120  Biso   1.000  H
  H78      1.0000 0.25780  0.75020  0.30120  Biso   1.000  H
  H79      1.0000 0.74980  0.75780  0.05120  Biso   1.000  H
  H80      1.0000 0.25020  0.24220  0.55120  Biso   1.000  H
  H81      1.0000 0.88590  0.74940  0.95160  Biso   1.000  H
  H82      1.0000 0.11410  0.25060  0.45160  Biso   1.000  H
  H83      1.0000 0.75060  0.38590  0.70160  Biso   1.000  H
  H84      1.0000 0.24940  0.61410  0.20160  Biso   1.000  H
  H85      1.0000 0.61410  0.24940  0.79840  Biso   1.000  H
  H86      1.0000 0.38590  0.75060  0.29840  Biso   1.000  H
  H87      1.0000 0.74940  0.88590  0.04840  Biso   1.000  H
  H88      1.0000 0.25060  0.11410  0.54840  Biso   1.000  H
  C113     1.0000 0.82690  0.64760  0.89658  Biso   1.000  C
  C114     1.0000 0.17310  0.35240  0.39658  Biso   1.000  C
  C115     1.0000 0.85240  0.32690  0.64658  Biso   1.000  C
  C116     1.0000 0.14760  0.67310  0.14658  Biso   1.000  C
  C117     1.0000 0.67310  0.14760  0.85342  Biso   1.000  C
  C118     1.0000 0.32690  0.85240  0.35342  Biso   1.000  C
  C119     1.0000 0.64760  0.82690  0.10342  Biso   1.000  C
  C120     1.0000 0.35240  0.17310  0.60342  Biso   1.000  C
  H89      1.0000 0.77080  0.65140  0.87050  Biso   1.000  H
  H90      1.0000 0.22920  0.34860  0.37050  Biso   1.000  H
  H91      1.0000 0.84860  0.27080  0.62050  Biso   1.000  H
  H92      1.0000 0.15140  0.72920  0.12050  Biso   1.000  H
  H93      1.0000 0.72920  0.15140  0.87950  Biso   1.000  H
  H94      1.0000 0.27080  0.84860  0.37950  Biso   1.000  H
  H95      1.0000 0.65140  0.77080  0.12950  Biso   1.000  H
  H96      1.0000 0.34860  0.22920  0.62950  Biso   1.000  H
  H97      1.0000 0.89730  0.64190  0.87970  Biso   1.000  H
  H98      1.0000 0.10270  0.35810  0.37970  Biso   1.000  H
  H99      1.0000 0.85810  0.39730  0.62970  Biso   1.000  H
  H100     1.0000 0.14190  0.60270  0.12970  Biso   1.000  H
  H101     1.0000 0.60270  0.14190  0.87030  Biso   1.000  H
  H102     1.0000 0.39730  0.85810  0.37030  Biso   1.000  H
  H103     1.0000 0.64190  0.89730  0.12030  Biso   1.000  H
  H104     1.0000 0.35810  0.10270  0.62030  Biso   1.000  H
  C121     1.0000 0.80900  0.55050  0.92839  Biso   1.000  C
  C122     1.0000 0.19100  0.44950  0.42839  Biso   1.000  C
  C123     1.0000 0.94950  0.30900  0.67839  Biso   1.000  C
  C124     1.0000 0.05050  0.69100  0.17839  Biso   1.000  C
  C125     1.0000 0.69100  0.05050  0.82161  Biso   1.000  C
  C126     1.0000 0.30900  0.94950  0.32161  Biso   1.000  C
  C127     1.0000 0.55050  0.80900  0.07161  Biso   1.000  C
  C128     1.0000 0.44950  0.19100  0.57161  Biso   1.000  C
  C129     1.0000 0.71070  0.53440  0.95146  Biso   1.000  C
  C130     1.0000 0.28930  0.46560  0.45146  Biso   1.000  C
  C131     1.0000 0.96560  0.21070  0.70146  Biso   1.000  C
  C132     1.0000 0.03440  0.78930  0.20146  Biso   1.000  C
  C133     1.0000 0.78930  0.03440  0.79854  Biso   1.000  C
  C134     1.0000 0.21070  0.96560  0.29854  Biso   1.000  C
  C135     1.0000 0.53440  0.71070  0.04854  Biso   1.000  C
  C136     1.0000 0.46560  0.28930  0.54854  Biso   1.000  C
  H105     1.0000 0.65380  0.58350  0.94590  Biso   1.000  H
  H106     1.0000 0.34620  0.41650  0.44590  Biso   1.000  H
  H107     1.0000 0.91650  0.15380  0.69590  Biso   1.000  H
  H108     1.0000 0.08350  0.84620  0.19590  Biso   1.000  H
  H109     1.0000 0.84620  0.08350  0.80410  Biso   1.000  H
  H110     1.0000 0.15380  0.91650  0.30410  Biso   1.000  H
  H111     1.0000 0.58350  0.65380  0.05410  Biso   1.000  H
  H112     1.0000 0.41650  0.34620  0.55410  Biso   1.000  H
  C137     1.0000 0.69520  0.44740  0.98239  Biso   1.000  C
  C138     1.0000 0.30480  0.55260  0.48239  Biso   1.000  C
  C139     1.0000 0.05260  0.19520  0.73239  Biso   1.000  C
  C140     1.0000 0.94740  0.80480  0.23239  Biso   1.000  C
  C141     1.0000 0.80480  0.94740  0.76761  Biso   1.000  C
  C142     1.0000 0.19520  0.05260  0.26761  Biso   1.000  C
  C143     1.0000 0.44740  0.69520  0.01761  Biso   1.000  C
  C144     1.0000 0.55260  0.30480  0.51761  Biso   1.000  C
  H113     1.0000 0.62700  0.43790  0.99760  Biso   1.000  H
  H114     1.0000 0.37300  0.56210  0.49760  Biso   1.000  H
  H115     1.0000 0.06210  0.12700  0.74760  Biso   1.000  H
  H116     1.0000 0.93790  0.87300  0.24760  Biso   1.000  H
  H117     1.0000 0.87300  0.93790  0.75240  Biso   1.000  H
  H118     1.0000 0.12700  0.06210  0.25240  Biso   1.000  H
  H119     1.0000 0.43790  0.62700  0.00240  Biso   1.000  H
  H120     1.0000 0.56210  0.37300  0.50240  Biso   1.000  H
  C145     1.0000 0.86660  0.38910  0.96832  Biso   1.000  C
  C146     1.0000 0.13340  0.61090  0.46832  Biso   1.000  C
  C147     1.0000 0.11090  0.36660  0.71832  Biso   1.000  C
  C148     1.0000 0.88910  0.63340  0.21832  Biso   1.000  C
  C149     1.0000 0.63340  0.88910  0.78168  Biso   1.000  C
  C150     1.0000 0.36660  0.11090  0.28168  Biso   1.000  C
  C151     1.0000 0.38910  0.86660  0.03168  Biso   1.000  C
  C152     1.0000 0.61090  0.13340  0.53168  Biso   1.000  C
  H121     1.0000 0.92140  0.33750  0.97360  Biso   1.000  H
  H122     1.0000 0.07860  0.66250  0.47360  Biso   1.000  H
  H123     1.0000 0.16250  0.42140  0.72360  Biso   1.000  H
  H124     1.0000 0.83750  0.57860  0.22360  Biso   1.000  H
  H125     1.0000 0.57860  0.83750  0.77640  Biso   1.000  H
  H126     1.0000 0.42140  0.16250  0.27640  Biso   1.000  H
  H127     1.0000 0.33750  0.92140  0.02640  Biso   1.000  H
  H128     1.0000 0.66250  0.07860  0.52640  Biso   1.000  H
  C153     1.0000 0.88720  0.47370  0.93696  Biso   1.000  C
  C154     1.0000 0.11280  0.52630  0.43696  Biso   1.000  C
  C155     1.0000 0.02630  0.38720  0.68696  Biso   1.000  C
  C156     1.0000 0.97370  0.61280  0.18696  Biso   1.000  C
  C157     1.0000 0.61280  0.97370  0.81304  Biso   1.000  C
  C158     1.0000 0.38720  0.02630  0.31304  Biso   1.000  C
  C159     1.0000 0.47370  0.88720  0.06304  Biso   1.000  C
  C160     1.0000 0.52630  0.11280  0.56304  Biso   1.000  C
  H129     1.0000 0.95510  0.47970  0.92110  Biso   1.000  H
  H130     1.0000 0.04490  0.52030  0.42110  Biso   1.000  H
  H131     1.0000 0.02030  0.45510  0.67110  Biso   1.000  H
  H132     1.0000 0.97970  0.54490  0.17110  Biso   1.000  H
  H133     1.0000 0.54490  0.97970  0.82890  Biso   1.000  H
  H134     1.0000 0.45510  0.02030  0.32890  Biso   1.000  H
  H135     1.0000 0.47970  0.95510  0.07890  Biso   1.000  H
  H136     1.0000 0.52030  0.04490  0.57890  Biso   1.000  H
  O33      1.0000 0.73220  0.38090  0.21085  Biso   1.000  O
  O34      1.0000 0.26780  0.61910  0.71085  Biso   1.000  O
  O35      1.0000 0.11910  0.23220  0.96085  Biso   1.000  O
  O36      1.0000 0.88090  0.76780  0.46085  Biso   1.000  O
  O37      1.0000 0.76780  0.88090  0.53915  Biso   1.000  O
  O38      1.0000 0.23220  0.11910  0.03915  Biso   1.000  O
  O39      1.0000 0.38090  0.73220  0.78915  Biso   1.000  O
  O40      1.0000 0.61910  0.26780  0.28915  Biso   1.000  O
  H137     1.0000 0.79350  0.35800  0.20820  Biso   1.000  H
  H138     1.0000 0.20650  0.64200  0.70820  Biso   1.000  H
  H139     1.0000 0.14200  0.29350  0.95820  Biso   1.000  H
  H140     1.0000 0.85800  0.70650  0.45820  Biso   1.000  H
  H141     1.0000 0.70650  0.85800  0.54180  Biso   1.000  H
  H142     1.0000 0.29350  0.14200  0.04180  Biso   1.000  H
  H143     1.0000 0.35800  0.79350  0.79180  Biso   1.000  H
  H144     1.0000 0.64200  0.20650  0.29180  Biso   1.000  H
  H145     1.0000 0.71200  0.40400  0.18370  Biso   1.000  H
  H146     1.0000 0.28800  0.59600  0.68370  Biso   1.000  H
  H147     1.0000 0.09600  0.21200  0.93370  Biso   1.000  H
  H148     1.0000 0.90400  0.78800  0.43370  Biso   1.000  H
  H149     1.0000 0.78800  0.90400  0.56630  Biso   1.000  H
  H150     1.0000 0.21200  0.09600  0.06630  Biso   1.000  H
  H151     1.0000 0.40400  0.71200  0.81630  Biso   1.000  H
  H152     1.0000 0.59600  0.28800  0.31630  Biso   1.000  H
  O41      1.0000 0.67300  0.46990  0.11373  Biso   1.000  O
  O42      1.0000 0.32700  0.53010  0.61373  Biso   1.000  O
  O43      1.0000 0.03010  0.17300  0.86373  Biso   1.000  O
  O44      1.0000 0.96990  0.82700  0.36373  Biso   1.000  O
  O45      1.0000 0.82700  0.96990  0.63627  Biso   1.000  O
  O46      1.0000 0.17300  0.03010  0.13627  Biso   1.000  O
  O47      1.0000 0.46990  0.67300  0.88627  Biso   1.000  O
  O48      1.0000 0.53010  0.32700  0.38627  Biso   1.000  O
  H153     1.0000 0.73670  0.47400  0.10640  Biso   1.000  H
  H154     1.0000 0.26330  0.52600  0.60640  Biso   1.000  H
  H155     1.0000 0.02600  0.23670  0.85640  Biso   1.000  H
  H156     1.0000 0.97400  0.76330  0.35640  Biso   1.000  H
  H157     1.0000 0.76330  0.97400  0.64360  Biso   1.000  H
  H158     1.0000 0.23670  0.02600  0.14360  Biso   1.000  H
  H159     1.0000 0.47400  0.73670  0.89360  Biso   1.000  H
  H160     1.0000 0.52600  0.26330  0.39360  Biso   1.000  H
  H161     1.0000 0.63600  0.48000  0.08870  Biso   1.000  H
  H162     1.0000 0.36400  0.52000  0.58870  Biso   1.000  H
  H163     1.0000 0.02000  0.13600  0.83870  Biso   1.000  H
  H164     1.0000 0.98000  0.86400  0.33870  Biso   1.000  H
  H165     1.0000 0.86400  0.98000  0.66130  Biso   1.000  H
  H166     1.0000 0.13600  0.02000  0.16130  Biso   1.000  H
  H167     1.0000 0.48000  0.63600  0.91130  Biso   1.000  H
  H168     1.0000 0.52000  0.36400  0.41130  Biso   1.000  H
  O49      1.0000 0.48680  0.46580  0.06660  Biso   1.000  O
  O50      1.0000 0.51320  0.53420  0.56660  Biso   1.000  O
  O51      1.0000 0.03420  0.98680  0.81660  Biso   1.000  O
  O52      1.0000 0.96580  0.01320  0.31660  Biso   1.000  O
  O53      1.0000 0.01320  0.96580  0.68340  Biso   1.000  O
  O54      1.0000 0.98680  0.03420  0.18340  Biso   1.000  O
  O55      1.0000 0.46580  0.48680  0.93340  Biso   1.000  O
  O56      1.0000 0.53420  0.51320  0.43340  Biso   1.000  O
