data_image0
_cell_length_a       29.14
_cell_length_b       6.865
_cell_length_c       16.98
_cell_angle_alpha    90
_cell_angle_beta     90.31
_cell_angle_gamma    90

_symmetry_space_group_name_H-M    "P 1"
_symmetry_int_tables_number       1

loop_
  _symmetry_equiv_pos_as_xyz
  'x, y, z'

loop_
  _atom_site_label
  _atom_site_occupancy
  _atom_site_fract_x
  _atom_site_fract_y
  _atom_site_fract_z
  _atom_site_thermal_displace_type
  _atom_site_B_iso_or_equiv
  _atom_site_type_symbol
  O1       1.0000 0.46640  0.39600  0.94150  Biso   1.000  O
  O2       1.0000 0.96640  0.89600  0.94150  Biso   1.000  O
  O3       1.0000 0.53360  0.39600  0.05850  Biso   1.000  O
  O4       1.0000 0.03360  0.89600  0.05850  Biso   1.000  O
  O5       1.0000 0.04880  0.28650  0.08900  Biso   1.000  O
  O6       1.0000 0.54880  0.78650  0.08900  Biso   1.000  O
  O7       1.0000 0.95120  0.28650  0.91100  Biso   1.000  O
  O8       1.0000 0.45120  0.78650  0.91100  Biso   1.000  O
  O9       1.0000 0.08650  0.54070  0.05660  Biso   1.000  O
  O10      1.0000 0.58650  0.04070  0.05660  Biso   1.000  O
  O11      1.0000 0.91350  0.54070  0.94340  Biso   1.000  O
  O12      1.0000 0.41350  0.04070  0.94340  Biso   1.000  O
  O13      1.0000 0.09840  0.43920  0.21210  Biso   1.000  O
  O14      1.0000 0.59840  0.93920  0.21210  Biso   1.000  O
  O15      1.0000 0.90160  0.43920  0.78790  Biso   1.000  O
  O16      1.0000 0.40160  0.93920  0.78790  Biso   1.000  O
  O17      1.0000 0.94020  0.90790  0.45850  Biso   1.000  O
  O18      1.0000 0.44020  0.40790  0.45850  Biso   1.000  O
  O19      1.0000 0.05980  0.90790  0.54150  Biso   1.000  O
  O20      1.0000 0.55980  0.40790  0.54150  Biso   1.000  O
  Cu1      1.0000 0.09520  0.00000  0.30280  Biso   1.000  Cu
  Cu2      1.0000 0.59520  0.50000  0.30280  Biso   1.000  Cu
  Cu3      1.0000 0.90480  0.00000  0.69720  Biso   1.000  Cu
  Cu4      1.0000 0.40480  0.50000  0.69720  Biso   1.000  Cu
  Cu5      1.0000 0.50000  0.88550  0.50000  Biso   1.000  Cu
  Cu6      1.0000 0.00000  0.38550  0.50000  Biso   1.000  Cu
  O21      1.0000 0.09170  0.86830  0.19910  Biso   1.000  O
  O22      1.0000 0.59170  0.36830  0.19910  Biso   1.000  O
  O23      1.0000 0.90830  0.86830  0.80090  Biso   1.000  O
  O24      1.0000 0.40830  0.36830  0.80090  Biso   1.000  O
  O25      1.0000 0.09940  0.67730  0.36020  Biso   1.000  O
  O26      1.0000 0.59940  0.17730  0.36020  Biso   1.000  O
  O27      1.0000 0.90060  0.67730  0.63980  Biso   1.000  O
  O28      1.0000 0.40060  0.17730  0.63980  Biso   1.000  O
  O29      1.0000 0.50630  0.08320  0.57520  Biso   1.000  O
  O30      1.0000 0.00630  0.58320  0.57520  Biso   1.000  O
  O31      1.0000 0.49370  0.08320  0.42480  Biso   1.000  O
  O32      1.0000 0.99370  0.58320  0.42480  Biso   1.000  O
  N1       1.0000 0.23240  0.08480  0.12450  Biso   1.000  N
  N2       1.0000 0.73240  0.58480  0.12450  Biso   1.000  N
  N3       1.0000 0.76760  0.08480  0.87550  Biso   1.000  N
  N4       1.0000 0.26760  0.58480  0.87550  Biso   1.000  N
  C1       1.0000 0.27320  0.09020  0.16210  Biso   1.000  C
  C2       1.0000 0.77320  0.59020  0.16210  Biso   1.000  C
  C3       1.0000 0.72680  0.09020  0.83790  Biso   1.000  C
  C4       1.0000 0.22680  0.59020  0.83790  Biso   1.000  C
  N5       1.0000 0.30980  0.13300  0.11710  Biso   1.000  N
  N6       1.0000 0.80980  0.63300  0.11710  Biso   1.000  N
  N7       1.0000 0.69020  0.13300  0.88290  Biso   1.000  N
  N8       1.0000 0.19020  0.63300  0.88290  Biso   1.000  N
  N9       1.0000 0.27950  0.05440  0.23850  Biso   1.000  N
  N10      1.0000 0.77950  0.55440  0.23850  Biso   1.000  N
  N11      1.0000 0.72050  0.05440  0.76150  Biso   1.000  N
  N12      1.0000 0.22050  0.55440  0.76150  Biso   1.000  N
  C5       1.0000 0.23930  0.01970  0.27510  Biso   1.000  C
  C6       1.0000 0.73930  0.51970  0.27510  Biso   1.000  C
  C7       1.0000 0.76070  0.01970  0.72490  Biso   1.000  C
  C8       1.0000 0.26070  0.51970  0.72490  Biso   1.000  C
  C9       1.0000 0.19620  0.01710  0.24370  Biso   1.000  C
  C10      1.0000 0.69620  0.51710  0.24370  Biso   1.000  C
  C11      1.0000 0.80380  0.01710  0.75630  Biso   1.000  C
  C12      1.0000 0.30380  0.51710  0.75630  Biso   1.000  C
  C13      1.0000 0.19030  0.05020  0.16250  Biso   1.000  C
  C14      1.0000 0.69030  0.55020  0.16250  Biso   1.000  C
  C15      1.0000 0.80970  0.05020  0.83750  Biso   1.000  C
  C16      1.0000 0.30970  0.55020  0.83750  Biso   1.000  C
  O33      1.0000 0.15500  0.04920  0.12180  Biso   1.000  O
  O34      1.0000 0.65500  0.54920  0.12180  Biso   1.000  O
  O35      1.0000 0.84500  0.04920  0.87820  Biso   1.000  O
  O36      1.0000 0.34500  0.54920  0.87820  Biso   1.000  O
  N13      1.0000 0.16370  0.98320  0.30410  Biso   1.000  N
  N14      1.0000 0.66370  0.48320  0.30410  Biso   1.000  N
  N15      1.0000 0.83630  0.98320  0.69590  Biso   1.000  N
  N16      1.0000 0.33630  0.48320  0.69590  Biso   1.000  N
  C17      1.0000 0.18770  0.96700  0.36840  Biso   1.000  C
  C18      1.0000 0.68770  0.46700  0.36840  Biso   1.000  C
  C19      1.0000 0.81230  0.96700  0.63160  Biso   1.000  C
  C20      1.0000 0.31230  0.46700  0.63160  Biso   1.000  C
  N17      1.0000 0.23440  0.98430  0.35560  Biso   1.000  N
  N18      1.0000 0.73440  0.48430  0.35560  Biso   1.000  N
  N19      1.0000 0.76560  0.98430  0.64440  Biso   1.000  N
  N20      1.0000 0.26560  0.48430  0.64440  Biso   1.000  N
  C21      1.0000 0.26900  0.96290  0.41650  Biso   1.000  C
  C22      1.0000 0.76900  0.46290  0.41650  Biso   1.000  C
  C23      1.0000 0.73100  0.96290  0.58350  Biso   1.000  C
  C24      1.0000 0.23100  0.46290  0.58350  Biso   1.000  C
  O37      1.0000 0.29380  0.14030  0.42430  Biso   1.000  O
  O38      1.0000 0.79380  0.64030  0.42430  Biso   1.000  O
  O39      1.0000 0.70620  0.14030  0.57570  Biso   1.000  O
  O40      1.0000 0.20620  0.64030  0.57570  Biso   1.000  O
  C25      1.0000 0.30460  0.80470  0.39510  Biso   1.000  C
  C26      1.0000 0.80460  0.30470  0.39510  Biso   1.000  C
  C27      1.0000 0.69540  0.80470  0.60490  Biso   1.000  C
  C28      1.0000 0.19540  0.30470  0.60490  Biso   1.000  C
  O41      1.0000 0.28980  0.61670  0.41870  Biso   1.000  O
  O42      1.0000 0.78980  0.11670  0.41870  Biso   1.000  O
  O43      1.0000 0.71020  0.61670  0.58130  Biso   1.000  O
  O44      1.0000 0.21020  0.11670  0.58130  Biso   1.000  O
  C29      1.0000 0.34850  0.87630  0.43290  Biso   1.000  C
  C30      1.0000 0.84850  0.37630  0.43290  Biso   1.000  C
  C31      1.0000 0.65150  0.87630  0.56710  Biso   1.000  C
  C32      1.0000 0.15150  0.37630  0.56710  Biso   1.000  C
  O45      1.0000 0.35150  0.80730  0.51400  Biso   1.000  O
  O46      1.0000 0.85150  0.30730  0.51400  Biso   1.000  O
  O47      1.0000 0.64850  0.80730  0.48600  Biso   1.000  O
  O48      1.0000 0.14850  0.30730  0.48600  Biso   1.000  O
  C33      1.0000 0.34200  0.10290  0.43470  Biso   1.000  C
  C34      1.0000 0.84200  0.60290  0.43470  Biso   1.000  C
  C35      1.0000 0.65800  0.10290  0.56530  Biso   1.000  C
  C36      1.0000 0.15800  0.60290  0.56530  Biso   1.000  C
  C37      1.0000 0.36790  0.20110  0.36950  Biso   1.000  C
  C38      1.0000 0.86790  0.70110  0.36950  Biso   1.000  C
  C39      1.0000 0.63210  0.20110  0.63050  Biso   1.000  C
  C40      1.0000 0.13210  0.70110  0.63050  Biso   1.000  C
  O49      1.0000 0.36450  0.40100  0.36820  Biso   1.000  O
  O50      1.0000 0.86450  0.90100  0.36820  Biso   1.000  O
  O51      1.0000 0.63550  0.40100  0.63180  Biso   1.000  O
  O52      1.0000 0.13550  0.90100  0.63180  Biso   1.000  O
  P1       1.0000 0.39840  0.79960  0.56620  Biso   1.000  P
  P2       1.0000 0.89840  0.29960  0.56620  Biso   1.000  P
  P3       1.0000 0.60160  0.79960  0.43380  Biso   1.000  P
  P4       1.0000 0.10160  0.29960  0.43380  Biso   1.000  P
  O53      1.0000 0.09530  0.09370  0.41470  Biso   1.000  O
  O54      1.0000 0.59530  0.59370  0.41470  Biso   1.000  O
  O55      1.0000 0.90470  0.09370  0.58530  Biso   1.000  O
  O56      1.0000 0.40470  0.59370  0.58530  Biso   1.000  O
  O57      1.0000 0.43450  0.88940  0.51370  Biso   1.000  O
  O58      1.0000 0.93450  0.38940  0.51370  Biso   1.000  O
  O59      1.0000 0.56550  0.88940  0.48630  Biso   1.000  O
  O60      1.0000 0.06550  0.38940  0.48630  Biso   1.000  O
  O61      1.0000 0.38810  0.92200  0.63500  Biso   1.000  O
  O62      1.0000 0.88810  0.42200  0.63500  Biso   1.000  O
  O63      1.0000 0.61190  0.92200  0.36500  Biso   1.000  O
  O64      1.0000 0.11190  0.42200  0.36500  Biso   1.000  O
  N21      1.0000 0.69340  0.02580  0.18730  Biso   1.000  N
  N22      1.0000 0.19340  0.52580  0.18730  Biso   1.000  N
  N23      1.0000 0.30660  0.02580  0.81270  Biso   1.000  N
  N24      1.0000 0.80660  0.52580  0.81270  Biso   1.000  N
  C41      1.0000 0.72350  0.03000  0.24850  Biso   1.000  C
  C42      1.0000 0.22350  0.53000  0.24850  Biso   1.000  C
  C43      1.0000 0.27650  0.03000  0.75150  Biso   1.000  C
  C44      1.0000 0.77650  0.53000  0.75150  Biso   1.000  C
  N25      1.0000 0.70490  0.98350  0.32010  Biso   1.000  N
  N26      1.0000 0.20490  0.48350  0.32010  Biso   1.000  N
  N27      1.0000 0.29510  0.98350  0.67990  Biso   1.000  N
  N28      1.0000 0.79510  0.48350  0.67990  Biso   1.000  N
  N29      1.0000 0.76850  0.05920  0.24300  Biso   1.000  N
  N30      1.0000 0.26850  0.55920  0.24300  Biso   1.000  N
  N31      1.0000 0.23150  0.05920  0.75700  Biso   1.000  N
  N32      1.0000 0.73150  0.55920  0.75700  Biso   1.000  N
  C45      1.0000 0.78040  0.09200  0.16830  Biso   1.000  C
  C46      1.0000 0.28040  0.59200  0.16830  Biso   1.000  C
  C47      1.0000 0.21960  0.09200  0.83170  Biso   1.000  C
  C48      1.0000 0.71960  0.59200  0.83170  Biso   1.000  C
  C49      1.0000 0.75400  0.09550  0.10270  Biso   1.000  C
  C50      1.0000 0.25400  0.59550  0.10270  Biso   1.000  C
  C51      1.0000 0.24600  0.09550  0.89730  Biso   1.000  C
  C52      1.0000 0.74600  0.59550  0.89730  Biso   1.000  C
  C53      1.0000 0.70650  0.06230  0.10810  Biso   1.000  C
  C54      1.0000 0.20650  0.56230  0.10810  Biso   1.000  C
  C55      1.0000 0.29350  0.06230  0.89190  Biso   1.000  C
  C56      1.0000 0.79350  0.56230  0.89190  Biso   1.000  C
  O65      1.0000 0.67730  0.06380  0.05510  Biso   1.000  O
  O66      1.0000 0.17730  0.56380  0.05510  Biso   1.000  O
  O67      1.0000 0.32270  0.06380  0.94490  Biso   1.000  O
  O68      1.0000 0.82270  0.56380  0.94490  Biso   1.000  O
  N33      1.0000 0.78120  0.13980  0.03690  Biso   1.000  N
  N34      1.0000 0.28120  0.63980  0.03690  Biso   1.000  N
  N35      1.0000 0.21880  0.13980  0.96310  Biso   1.000  N
  N36      1.0000 0.71880  0.63980  0.96310  Biso   1.000  N
  C57      1.0000 0.82150  0.16080  0.06350  Biso   1.000  C
  C58      1.0000 0.32150  0.66080  0.06350  Biso   1.000  C
  C59      1.0000 0.17850  0.16080  0.93650  Biso   1.000  C
  C60      1.0000 0.67850  0.66080  0.93650  Biso   1.000  C
  N37      1.0000 0.82550  0.14370  0.14350  Biso   1.000  N
  N38      1.0000 0.32550  0.64370  0.14350  Biso   1.000  N
  N39      1.0000 0.17450  0.14370  0.85650  Biso   1.000  N
  N40      1.0000 0.67450  0.64370  0.85650  Biso   1.000  N
  C61      1.0000 0.86480  0.16390  0.19190  Biso   1.000  C
  C62      1.0000 0.36480  0.66390  0.19190  Biso   1.000  C
  C63      1.0000 0.13520  0.16390  0.80810  Biso   1.000  C
  C64      1.0000 0.63520  0.66390  0.80810  Biso   1.000  C
  O69      1.0000 0.88090  0.29780  0.21970  Biso   1.000  O
  O70      1.0000 0.38090  0.79780  0.21970  Biso   1.000  O
  O71      1.0000 0.11910  0.29780  0.78030  Biso   1.000  O
  O72      1.0000 0.61910  0.79780  0.78030  Biso   1.000  O
  C65      1.0000 0.90520  0.03010  0.17020  Biso   1.000  C
  C66      1.0000 0.40520  0.53010  0.17020  Biso   1.000  C
  C67      1.0000 0.09480  0.03010  0.82980  Biso   1.000  C
  C68      1.0000 0.59480  0.53010  0.82980  Biso   1.000  C
  O73      1.0000 0.90050  0.80630  0.17110  Biso   1.000  O
  O74      1.0000 0.40050  0.30630  0.17110  Biso   1.000  O
  O75      1.0000 0.09950  0.80630  0.82890  Biso   1.000  O
  O76      1.0000 0.59950  0.30630  0.82890  Biso   1.000  O
  C69      1.0000 0.94500  0.08390  0.21930  Biso   1.000  C
  C70      1.0000 0.44500  0.58390  0.21930  Biso   1.000  C
  C71      1.0000 0.05500  0.08390  0.78070  Biso   1.000  C
  C72      1.0000 0.55500  0.58390  0.78070  Biso   1.000  C
  O77      1.0000 0.94540  0.95090  0.29170  Biso   1.000  O
  O78      1.0000 0.44540  0.45090  0.29170  Biso   1.000  O
  O79      1.0000 0.05460  0.95090  0.70830  Biso   1.000  O
  O80      1.0000 0.55460  0.45090  0.70830  Biso   1.000  O
  C73      1.0000 0.92860  0.29570  0.24530  Biso   1.000  C
  C74      1.0000 0.42860  0.79570  0.24530  Biso   1.000  C
  C75      1.0000 0.07140  0.29570  0.75470  Biso   1.000  C
  C76      1.0000 0.57140  0.79570  0.75470  Biso   1.000  C
  C77      1.0000 0.95360  0.45890  0.21000  Biso   1.000  C
  C78      1.0000 0.45360  0.95890  0.21000  Biso   1.000  C
  C79      1.0000 0.04640  0.45890  0.79000  Biso   1.000  C
  C80      1.0000 0.54640  0.95890  0.79000  Biso   1.000  C
  O81      1.0000 0.96010  0.42310  0.12740  Biso   1.000  O
  O82      1.0000 0.46010  0.92310  0.12740  Biso   1.000  O
  O83      1.0000 0.03990  0.42310  0.87260  Biso   1.000  O
  O84      1.0000 0.53990  0.92310  0.87260  Biso   1.000  O
  P5       1.0000 0.98970  0.93810  0.34690  Biso   1.000  P
  P6       1.0000 0.48970  0.43810  0.34690  Biso   1.000  P
  P7       1.0000 0.01030  0.93810  0.65310  Biso   1.000  P
  P8       1.0000 0.51030  0.43810  0.65310  Biso   1.000  P
  O85      1.0000 0.03260  0.99240  0.29990  Biso   1.000  O
  O86      1.0000 0.53260  0.49240  0.29990  Biso   1.000  O
  O87      1.0000 0.96740  0.99240  0.70010  Biso   1.000  O
  O88      1.0000 0.46740  0.49240  0.70010  Biso   1.000  O
  O89      1.0000 0.51850  0.58370  0.58210  Biso   1.000  O
  O90      1.0000 0.01850  0.08370  0.58210  Biso   1.000  O
  O91      1.0000 0.48150  0.58370  0.41790  Biso   1.000  O
  O92      1.0000 0.98150  0.08370  0.41790  Biso   1.000  O
  O93      1.0000 0.50870  0.23010  0.62210  Biso   1.000  O
  O94      1.0000 0.00870  0.73010  0.62210  Biso   1.000  O
  O95      1.0000 0.49130  0.23010  0.37790  Biso   1.000  O
  O96      1.0000 0.99130  0.73010  0.37790  Biso   1.000  O
  O97      1.0000 0.09110  0.60950  0.99280  Biso   1.000  O
  O98      1.0000 0.59110  0.10950  0.99280  Biso   1.000  O
  O99      1.0000 0.90890  0.60950  0.00720  Biso   1.000  O
  O100     1.0000 0.40890  0.10950  0.00720  Biso   1.000  O
