data_image0
_cell_length_a       4.0475
_cell_length_b       18.0007
_cell_length_c       8.7799
_cell_angle_alpha    90
_cell_angle_beta     101.778
_cell_angle_gamma    90

_symmetry_space_group_name_H-M    "P 1"
_symmetry_int_tables_number       1

loop_
  _symmetry_equiv_pos_as_xyz
  'x, y, z'

loop_
  _atom_site_label
  _atom_site_occupancy
  _atom_site_fract_x
  _atom_site_fract_y
  _atom_site_fract_z
  _atom_site_thermal_displace_type
  _atom_site_B_iso_or_equiv
  _atom_site_type_symbol
  Br1      1.0000 0.07366  0.57715  0.33515  Biso   1.000  Br
  Br2      1.0000 0.42634  0.07715  0.16485  Biso   1.000  Br
  Br3      1.0000 0.92634  0.42285  0.66485  Biso   1.000  Br
  Br4      1.0000 0.57366  0.92285  0.83515  Biso   1.000  Br
  Cu1      1.0000 0.50000  0.50000  0.50000  Biso   1.000  Cu
  Cu2      1.0000 0.00000  0.00000  0.00000  Biso   1.000  Cu
  O1       1.0000 0.17440  0.22930  0.30850  Biso   1.000  O
  O2       1.0000 0.32560  0.72930  0.19150  Biso   1.000  O
  O3       1.0000 0.82560  0.77070  0.69150  Biso   1.000  O
  O4       1.0000 0.67440  0.27070  0.80850  Biso   1.000  O
  N1       1.0000 0.43060  0.42040  0.33470  Biso   1.000  N
  N2       1.0000 0.06940  0.92040  0.16530  Biso   1.000  N
  N3       1.0000 0.56940  0.57960  0.66530  Biso   1.000  N
  N4       1.0000 0.93060  0.07960  0.83470  Biso   1.000  N
  C1       1.0000 0.32390  0.35310  0.36870  Biso   1.000  C
  C2       1.0000 0.17610  0.85310  0.13130  Biso   1.000  C
  C3       1.0000 0.67610  0.64690  0.63130  Biso   1.000  C
  C4       1.0000 0.82390  0.14690  0.86870  Biso   1.000  C
  C5       1.0000 0.29030  0.29620  0.26110  Biso   1.000  C
  C6       1.0000 0.20970  0.79620  0.23890  Biso   1.000  C
  C7       1.0000 0.70970  0.70380  0.73890  Biso   1.000  C
  C8       1.0000 0.79030  0.20380  0.76110  Biso   1.000  C
  C9       1.0000 0.36700  0.30730  0.12000  Biso   1.000  C
  C10      1.0000 0.13300  0.80730  0.38000  Biso   1.000  C
  C11      1.0000 0.63300  0.69270  0.88000  Biso   1.000  C
  C12      1.0000 0.86700  0.19270  0.62000  Biso   1.000  C
  C13      1.0000 0.46900  0.37740  0.08660  Biso   1.000  C
  C14      1.0000 0.03100  0.87740  0.41340  Biso   1.000  C
  C15      1.0000 0.53100  0.62260  0.91340  Biso   1.000  C
  C16      1.0000 0.96900  0.12260  0.58660  Biso   1.000  C
  C17      1.0000 0.49560  0.43280  0.19290  Biso   1.000  C
  C18      1.0000 0.00440  0.93280  0.30710  Biso   1.000  C
  C19      1.0000 0.50440  0.56720  0.80710  Biso   1.000  C
  C20      1.0000 0.99560  0.06720  0.69290  Biso   1.000  C
  H1       1.0000 0.27286  0.34426  0.46909  Biso   1.000  H
  H2       1.0000 0.22714  0.84426  0.03091  Biso   1.000  H
  H3       1.0000 0.72714  0.65574  0.53091  Biso   1.000  H
  H4       1.0000 0.77286  0.15574  0.96909  Biso   1.000  H
  H5       1.0000 0.24832  0.18460  0.26623  Biso   1.000  H
  H6       1.0000 0.25168  0.68460  0.23377  Biso   1.000  H
  H7       1.0000 0.75168  0.81540  0.73377  Biso   1.000  H
  H8       1.0000 0.74832  0.31540  0.76623  Biso   1.000  H
  H9       1.0000 0.34954  0.26786  0.04479  Biso   1.000  H
  H10      1.0000 0.15046  0.76786  0.45521  Biso   1.000  H
  H11      1.0000 0.65046  0.73214  0.95521  Biso   1.000  H
  H12      1.0000 0.84954  0.23214  0.54479  Biso   1.000  H
  H13      1.0000 0.52190  0.38720  0.98737  Biso   1.000  H
  H14      1.0000 0.97810  0.88720  0.51263  Biso   1.000  H
  H15      1.0000 0.47810  0.61280  0.01263  Biso   1.000  H
  H16      1.0000 0.02190  0.11280  0.48737  Biso   1.000  H
  H17      1.0000 0.56157  0.48142  0.16660  Biso   1.000  H
  H18      1.0000 0.93843  0.98142  0.33340  Biso   1.000  H
  H19      1.0000 0.43843  0.51858  0.83340  Biso   1.000  H
  H20      1.0000 0.06157  0.01858  0.66660  Biso   1.000  H
