data_image0
_cell_length_a       9.9219
_cell_length_b       10.4708
_cell_length_c       12.2067
_cell_angle_alpha    100.083
_cell_angle_beta     106.406
_cell_angle_gamma    103.4

_symmetry_space_group_name_H-M    "P 1"
_symmetry_int_tables_number       1

loop_
  _symmetry_equiv_pos_as_xyz
  'x, y, z'

loop_
  _atom_site_label
  _atom_site_occupancy
  _atom_site_fract_x
  _atom_site_fract_y
  _atom_site_fract_z
  _atom_site_thermal_displace_type
  _atom_site_B_iso_or_equiv
  _atom_site_type_symbol
  K1       1.0000 0.00000  0.50000  0.50000  Biso   1.000  K
  Cl1      1.0000 0.00000  0.00000  0.00000  Biso   1.000  Cl
  Mo1      1.0000 0.59902  0.50947  0.30065  Biso   1.000  Mo
  Mo2      1.0000 0.40098  0.49053  0.69935  Biso   1.000  Mo
  Mo3      1.0000 0.78559  0.79290  0.50419  Biso   1.000  Mo
  Mo4      1.0000 0.21441  0.20710  0.49581  Biso   1.000  Mo
  Mo5      1.0000 0.57091  0.35713  0.50521  Biso   1.000  Mo
  Mo6      1.0000 0.42909  0.64287  0.49479  Biso   1.000  Mo
  Mo7      1.0000 0.74993  0.63342  0.70669  Biso   1.000  Mo
  Mo8      1.0000 0.25007  0.36658  0.29331  Biso   1.000  Mo
  Cu1      1.0000 0.77026  0.87184  0.99121  Biso   1.000  Cu
  Cu2      1.0000 0.22974  0.12816  0.00879  Biso   1.000  Cu
  O1       1.0000 0.90020  0.58110  0.70710  Biso   1.000  O
  O2       1.0000 0.09980  0.41890  0.29290  Biso   1.000  O
  O3       1.0000 0.72970  0.31740  0.51510  Biso   1.000  O
  O4       1.0000 0.27030  0.68260  0.48490  Biso   1.000  O
  O5       1.0000 0.75830  0.46640  0.31680  Biso   1.000  O
  O6       1.0000 0.24170  0.53360  0.68320  Biso   1.000  O
  O7       1.0000 0.55540  0.79250  0.49700  Biso   1.000  O
  O8       1.0000 0.44460  0.20750  0.50300  Biso   1.000  O
  O9       1.0000 0.39010  0.55090  0.32940  Biso   1.000  O
  O10      1.0000 0.60990  0.44910  0.67060  Biso   1.000  O
  O11      1.0000 0.94090  0.74610  0.50950  Biso   1.000  O
  O12      1.0000 0.05910  0.25390  0.49050  Biso   1.000  O
  O13      1.0000 0.79560  0.79990  0.66460  Biso   1.000  O
  O14      1.0000 0.20440  0.20010  0.33540  Biso   1.000  O
  O15      1.0000 0.67280  0.70280  0.34220  Biso   1.000  O
  O16      1.0000 0.32720  0.29720  0.65780  Biso   1.000  O
  O17      1.0000 0.48780  0.34670  0.33840  Biso   1.000  O
  O18      1.0000 0.51220  0.65330  0.66160  Biso   1.000  O
  O19      1.0000 0.64180  0.56670  0.50610  Biso   1.000  O
  O20      1.0000 0.35820  0.43330  0.49390  Biso   1.000  O
  O21      1.0000 0.83200  0.96080  0.50540  Biso   1.000  O
  O22      1.0000 0.16800  0.03920  0.49460  Biso   1.000  O
  O23      1.0000 0.51520  0.47480  0.15240  Biso   1.000  O
  O24      1.0000 0.48480  0.52520  0.84760  Biso   1.000  O
  O25      1.0000 0.77050  0.69330  0.85250  Biso   1.000  O
  O26      1.0000 0.22950  0.30670  0.14750  Biso   1.000  O
  N1       1.0000 0.56650  0.81200  0.00190  Biso   1.000  N
  N2       1.0000 0.43350  0.18800  0.99810  Biso   1.000  N
  N3       1.0000 0.66780  0.94790  0.86440  Biso   1.000  N
  N4       1.0000 0.33220  0.05210  0.13560  Biso   1.000  N
  N5       1.0000 0.86550  0.80020  0.11900  Biso   1.000  N
  N6       1.0000 0.13450  0.19980  0.88100  Biso   1.000  N
  C1       1.0000 0.51950  0.90980  0.84120  Biso   1.000  C
  C2       1.0000 0.48050  0.09020  0.15880  Biso   1.000  C
  C3       1.0000 0.52120  0.74560  0.07460  Biso   1.000  C
  C4       1.0000 0.47880  0.25440  0.92540  Biso   1.000  C
  H1       1.0000 0.59060  0.72800  0.13460  Biso   1.000  H
  H2       1.0000 0.40940  0.27200  0.86540  Biso   1.000  H
  C5       1.0000 0.72040  0.01650  0.79730  Biso   1.000  C
  C6       1.0000 0.27960  0.98350  0.20270  Biso   1.000  C
  H3       1.0000 0.82180  0.04390  0.81400  Biso   1.000  H
  H4       1.0000 0.17820  0.95610  0.18600  Biso   1.000  H
  C7       1.0000 0.46440  0.83810  0.91530  Biso   1.000  C
  C8       1.0000 0.53560  0.16190  0.08470  Biso   1.000  C
  C9       1.0000 0.99600  0.78540  0.29070  Biso   1.000  C
  C10      1.0000 0.00400  0.21460  0.70930  Biso   1.000  C
  H5       1.0000 0.05020  0.80880  0.37090  Biso   1.000  H
  H6       1.0000 0.94980  0.19120  0.62910  Biso   1.000  H
  C11      1.0000 0.42070  0.93780  0.74680  Biso   1.000  C
  C12      1.0000 0.57930  0.06220  0.25320  Biso   1.000  C
  C13      1.0000 0.48160  0.00940  0.67570  Biso   1.000  C
  C14      1.0000 0.51840  0.99060  0.32430  Biso   1.000  C
  H7       1.0000 0.42070  0.02860  0.61150  Biso   1.000  H
  H8       1.0000 0.57930  0.97140  0.38850  Biso   1.000  H
  C15      1.0000 0.31380  0.79720  0.89690  Biso   1.000  C
  C16      1.0000 0.68620  0.20280  0.10310  Biso   1.000  C
  C17      1.0000 0.26640  0.89140  0.72790  Biso   1.000  C
  C18      1.0000 0.73360  0.10860  0.27210  Biso   1.000  C
  H9       1.0000 0.20000  0.90600  0.66390  Biso   1.000  H
  H10      1.0000 0.80000  0.09400  0.33610  Biso   1.000  H
  C19      1.0000 0.93440  0.86370  0.23400  Biso   1.000  C
  C20      1.0000 0.06560  0.13630  0.76600  Biso   1.000  C
  H11      1.0000 0.93790  0.95140  0.26880  Biso   1.000  H
  H12      1.0000 0.06210  0.04860  0.73120  Biso   1.000  H
  C21      1.0000 0.21610  0.82760  0.80050  Biso   1.000  C
  C22      1.0000 0.78390  0.17240  0.19950  Biso   1.000  C
  H13      1.0000 0.11570  0.80230  0.78830  Biso   1.000  H
  H14      1.0000 0.88430  0.19770  0.21170  Biso   1.000  H
  C23      1.0000 0.63220  0.05060  0.70230  Biso   1.000  C
  C24      1.0000 0.36780  0.94940  0.29770  Biso   1.000  C
  H15      1.0000 0.67430  0.10020  0.65780  Biso   1.000  H
  H16      1.0000 0.32570  0.89980  0.34220  Biso   1.000  H
  C25      1.0000 0.37260  0.70140  0.06390  Biso   1.000  C
  C26      1.0000 0.62740  0.29860  0.93610  Biso   1.000  C
  H17      1.0000 0.34410  0.65490  0.11580  Biso   1.000  H
  H18      1.0000 0.65590  0.34510  0.88420  Biso   1.000  H
  C27      1.0000 0.27050  0.72720  0.97710  Biso   1.000  C
  C28      1.0000 0.72950  0.27280  0.02290  Biso   1.000  C
  H19      1.0000 0.17160  0.69890  0.97000  Biso   1.000  H
  H20      1.0000 0.82840  0.30110  0.03000  Biso   1.000  H
  N7       1.0000 0.96830  0.66690  0.21460  Biso   1.000  N
  N8       1.0000 0.03170  0.33310  0.78540  Biso   1.000  N
  H21      1.0000 0.99720  0.59860  0.22980  Biso   1.000  H
  H22      1.0000 0.00280  0.40140  0.77020  Biso   1.000  H
  C29      1.0000 0.88510  0.67530  0.10770  Biso   1.000  C
  C30      1.0000 0.11490  0.32470  0.89230  Biso   1.000  C
  H23      1.0000 0.84780  0.60630  0.03800  Biso   1.000  H
  H24      1.0000 0.15220  0.39370  0.96200  Biso   1.000  H
