data_image0
_cell_length_a       19.58
_cell_length_b       11.5298
_cell_length_c       30.384
_cell_angle_alpha    90
_cell_angle_beta     100.737
_cell_angle_gamma    90

_symmetry_space_group_name_H-M    "P 1"
_symmetry_int_tables_number       1

loop_
  _symmetry_equiv_pos_as_xyz
  'x, y, z'

loop_
  _atom_site_label
  _atom_site_occupancy
  _atom_site_fract_x
  _atom_site_fract_y
  _atom_site_fract_z
  _atom_site_thermal_displace_type
  _atom_site_B_iso_or_equiv
  _atom_site_type_symbol
  Cu1      1.0000 0.71000  0.04639  0.66138  Biso   1.000  Cu
  Cu2      1.0000 0.21000  0.54639  0.66138  Biso   1.000  Cu
  Cu3      1.0000 0.29000  0.04639  0.83862  Biso   1.000  Cu
  Cu4      1.0000 0.79000  0.54639  0.83862  Biso   1.000  Cu
  Cu5      1.0000 0.29000  0.95361  0.33862  Biso   1.000  Cu
  Cu6      1.0000 0.79000  0.45361  0.33862  Biso   1.000  Cu
  Cu7      1.0000 0.71000  0.95361  0.16138  Biso   1.000  Cu
  Cu8      1.0000 0.21000  0.45361  0.16138  Biso   1.000  Cu
  O1       1.0000 0.79660  0.23880  0.28850  Biso   1.000  O
  O2       1.0000 0.29660  0.73880  0.28850  Biso   1.000  O
  O3       1.0000 0.20340  0.23880  0.21150  Biso   1.000  O
  O4       1.0000 0.70340  0.73880  0.21150  Biso   1.000  O
  O5       1.0000 0.20340  0.76120  0.71150  Biso   1.000  O
  O6       1.0000 0.70340  0.26120  0.71150  Biso   1.000  O
  O7       1.0000 0.79660  0.76120  0.78850  Biso   1.000  O
  O8       1.0000 0.29660  0.26120  0.78850  Biso   1.000  O
  H1       1.0000 0.80010  0.29120  0.27090  Biso   1.000  H
  H2       1.0000 0.30010  0.79120  0.27090  Biso   1.000  H
  H3       1.0000 0.19990  0.29120  0.22910  Biso   1.000  H
  H4       1.0000 0.69990  0.79120  0.22910  Biso   1.000  H
  H5       1.0000 0.19990  0.70880  0.72910  Biso   1.000  H
  H6       1.0000 0.69990  0.20880  0.72910  Biso   1.000  H
  H7       1.0000 0.80010  0.70880  0.77090  Biso   1.000  H
  H8       1.0000 0.30010  0.20880  0.77090  Biso   1.000  H
  N1       1.0000 0.66940  0.01270  0.71600  Biso   1.000  N
  N2       1.0000 0.16940  0.51270  0.71600  Biso   1.000  N
  N3       1.0000 0.33060  0.01270  0.78400  Biso   1.000  N
  N4       1.0000 0.83060  0.51270  0.78400  Biso   1.000  N
  N5       1.0000 0.33060  0.98730  0.28400  Biso   1.000  N
  N6       1.0000 0.83060  0.48730  0.28400  Biso   1.000  N
  N7       1.0000 0.66940  0.98730  0.21600  Biso   1.000  N
  N8       1.0000 0.16940  0.48730  0.21600  Biso   1.000  N
  C1       1.0000 0.74330  0.58480  0.51180  Biso   1.000  C
  C2       1.0000 0.24330  0.08480  0.51180  Biso   1.000  C
  C3       1.0000 0.25670  0.58480  0.98820  Biso   1.000  C
  C4       1.0000 0.75670  0.08480  0.98820  Biso   1.000  C
  C5       1.0000 0.25670  0.41520  0.48820  Biso   1.000  C
  C6       1.0000 0.75670  0.91520  0.48820  Biso   1.000  C
  C7       1.0000 0.74330  0.41520  0.01180  Biso   1.000  C
  C8       1.0000 0.24330  0.91520  0.01180  Biso   1.000  C
  N9       1.0000 0.82430  0.02180  0.69180  Biso   1.000  N
  N10      1.0000 0.32430  0.52180  0.69180  Biso   1.000  N
  N11      1.0000 0.17570  0.02180  0.80820  Biso   1.000  N
  N12      1.0000 0.67570  0.52180  0.80820  Biso   1.000  N
  N13      1.0000 0.17570  0.97820  0.30820  Biso   1.000  N
  N14      1.0000 0.67570  0.47820  0.30820  Biso   1.000  N
  N15      1.0000 0.82430  0.97820  0.19180  Biso   1.000  N
  N16      1.0000 0.32430  0.47820  0.19180  Biso   1.000  N
  O9       1.0000 0.66140  0.09360  0.74710  Biso   1.000  O
  O10      1.0000 0.16140  0.59360  0.74710  Biso   1.000  O
  O11      1.0000 0.33860  0.09360  0.75290  Biso   1.000  O
  O12      1.0000 0.83860  0.59360  0.75290  Biso   1.000  O
  O13      1.0000 0.33860  0.90640  0.25290  Biso   1.000  O
  O14      1.0000 0.83860  0.40640  0.25290  Biso   1.000  O
  O15      1.0000 0.66140  0.90640  0.24710  Biso   1.000  O
  O16      1.0000 0.16140  0.40640  0.24710  Biso   1.000  O
  N17      1.0000 0.77960  0.39060  0.40030  Biso   1.000  N
  N18      1.0000 0.27960  0.89060  0.40030  Biso   1.000  N
  N19      1.0000 0.22040  0.39060  0.09970  Biso   1.000  N
  N20      1.0000 0.72040  0.89060  0.09970  Biso   1.000  N
  N21      1.0000 0.22040  0.60940  0.59970  Biso   1.000  N
  N22      1.0000 0.72040  0.10940  0.59970  Biso   1.000  N
  N23      1.0000 0.77960  0.60940  0.90030  Biso   1.000  N
  N24      1.0000 0.27960  0.10940  0.90030  Biso   1.000  N
  N25      1.0000 0.79150  0.28360  0.32780  Biso   1.000  N
  N26      1.0000 0.29150  0.78360  0.32780  Biso   1.000  N
  N27      1.0000 0.20850  0.28360  0.17220  Biso   1.000  N
  N28      1.0000 0.70850  0.78360  0.17220  Biso   1.000  N
  N29      1.0000 0.20850  0.71640  0.67220  Biso   1.000  N
  N30      1.0000 0.70850  0.21640  0.67220  Biso   1.000  N
  N31      1.0000 0.79150  0.71640  0.82780  Biso   1.000  N
  N32      1.0000 0.29150  0.21640  0.82780  Biso   1.000  N
  C9       1.0000 0.73160  0.65590  0.54960  Biso   1.000  C
  C10      1.0000 0.23160  0.15590  0.54960  Biso   1.000  C
  C11      1.0000 0.26840  0.65590  0.95040  Biso   1.000  C
  C12      1.0000 0.76840  0.15590  0.95040  Biso   1.000  C
  C13      1.0000 0.26840  0.34410  0.45040  Biso   1.000  C
  C14      1.0000 0.76840  0.84410  0.45040  Biso   1.000  C
  C15      1.0000 0.73160  0.34410  0.04960  Biso   1.000  C
  C16      1.0000 0.23160  0.84410  0.04960  Biso   1.000  C
  N33      1.0000 0.68640  0.87330  0.65320  Biso   1.000  N
  N34      1.0000 0.18640  0.37330  0.65320  Biso   1.000  N
  N35      1.0000 0.31360  0.87330  0.84680  Biso   1.000  N
  N36      1.0000 0.81360  0.37330  0.84680  Biso   1.000  N
  N37      1.0000 0.31360  0.12670  0.34680  Biso   1.000  N
  N38      1.0000 0.81360  0.62670  0.34680  Biso   1.000  N
  N39      1.0000 0.68640  0.12670  0.15320  Biso   1.000  N
  N40      1.0000 0.18640  0.62670  0.15320  Biso   1.000  N
  C17      1.0000 0.66430  0.82680  0.68700  Biso   1.000  C
  C18      1.0000 0.16430  0.32680  0.68700  Biso   1.000  C
  C19      1.0000 0.33570  0.82680  0.81300  Biso   1.000  C
  C20      1.0000 0.83570  0.32680  0.81300  Biso   1.000  C
  C21      1.0000 0.33570  0.17320  0.31300  Biso   1.000  C
  C22      1.0000 0.83570  0.67320  0.31300  Biso   1.000  C
  C23      1.0000 0.66430  0.17320  0.18700  Biso   1.000  C
  C24      1.0000 0.16430  0.67320  0.18700  Biso   1.000  C
  C25      1.0000 0.70410  0.79670  0.61860  Biso   1.000  C
  C26      1.0000 0.20410  0.29670  0.61860  Biso   1.000  C
  C27      1.0000 0.29590  0.79670  0.88140  Biso   1.000  C
  C28      1.0000 0.79590  0.29670  0.88140  Biso   1.000  C
  C29      1.0000 0.29590  0.20330  0.38140  Biso   1.000  C
  C30      1.0000 0.79590  0.70330  0.38140  Biso   1.000  C
  C31      1.0000 0.70410  0.20330  0.11860  Biso   1.000  C
  C32      1.0000 0.20410  0.70330  0.11860  Biso   1.000  C
  C33      1.0000 0.77000  0.45820  0.43810  Biso   1.000  C
  C34      1.0000 0.27000  0.95820  0.43810  Biso   1.000  C
  C35      1.0000 0.23000  0.45820  0.06190  Biso   1.000  C
  C36      1.0000 0.73000  0.95820  0.06190  Biso   1.000  C
  C37      1.0000 0.23000  0.54180  0.56190  Biso   1.000  C
  C38      1.0000 0.73000  0.04180  0.56190  Biso   1.000  C
  C39      1.0000 0.77000  0.54180  0.93810  Biso   1.000  C
  C40      1.0000 0.27000  0.04180  0.93810  Biso   1.000  C
  C41      1.0000 0.96540  0.01020  0.73810  Biso   1.000  C
  C42      1.0000 0.46540  0.51020  0.73810  Biso   1.000  C
  C43      1.0000 0.03460  0.01020  0.76190  Biso   1.000  C
  C44      1.0000 0.53460  0.51020  0.76190  Biso   1.000  C
  C45      1.0000 0.03460  0.98980  0.26190  Biso   1.000  C
  C46      1.0000 0.53460  0.48980  0.26190  Biso   1.000  C
  C47      1.0000 0.96540  0.98980  0.23810  Biso   1.000  C
  C48      1.0000 0.46540  0.48980  0.23810  Biso   1.000  C
  C49      1.0000 0.94350  0.08460  0.70270  Biso   1.000  C
  C50      1.0000 0.44350  0.58460  0.70270  Biso   1.000  C
  C51      1.0000 0.05650  0.08460  0.79730  Biso   1.000  C
  C52      1.0000 0.55650  0.58460  0.79730  Biso   1.000  C
  C53      1.0000 0.05650  0.91540  0.29730  Biso   1.000  C
  C54      1.0000 0.55650  0.41540  0.29730  Biso   1.000  C
  C55      1.0000 0.94350  0.91540  0.20270  Biso   1.000  C
  C56      1.0000 0.44350  0.41540  0.20270  Biso   1.000  C
  H9       1.0000 0.97550  0.13530  0.69400  Biso   1.000  H
  H10      1.0000 0.47550  0.63530  0.69400  Biso   1.000  H
  H11      1.0000 0.02450  0.13530  0.80600  Biso   1.000  H
  H12      1.0000 0.52450  0.63530  0.80600  Biso   1.000  H
  H13      1.0000 0.02450  0.86470  0.30600  Biso   1.000  H
  H14      1.0000 0.52450  0.36470  0.30600  Biso   1.000  H
  H15      1.0000 0.97550  0.86470  0.19400  Biso   1.000  H
  H16      1.0000 0.47550  0.36470  0.19400  Biso   1.000  H
  C57      1.0000 0.61170  0.87780  0.75740  Biso   1.000  C
  C58      1.0000 0.11170  0.37780  0.75740  Biso   1.000  C
  C59      1.0000 0.38830  0.87780  0.74260  Biso   1.000  C
  C60      1.0000 0.88830  0.37780  0.74260  Biso   1.000  C
  C61      1.0000 0.38830  0.12220  0.24260  Biso   1.000  C
  C62      1.0000 0.88830  0.62220  0.24260  Biso   1.000  C
  C63      1.0000 0.61170  0.12220  0.25740  Biso   1.000  C
  C64      1.0000 0.11170  0.62220  0.25740  Biso   1.000  C
  H17      1.0000 0.60950  0.94420  0.77610  Biso   1.000  H
  H18      1.0000 0.10950  0.44420  0.77610  Biso   1.000  H
  H19      1.0000 0.39050  0.94420  0.72390  Biso   1.000  H
  H20      1.0000 0.89050  0.44420  0.72390  Biso   1.000  H
  H21      1.0000 0.39050  0.05580  0.22390  Biso   1.000  H
  H22      1.0000 0.89050  0.55580  0.22390  Biso   1.000  H
  H23      1.0000 0.60950  0.05580  0.27610  Biso   1.000  H
  H24      1.0000 0.10950  0.55580  0.27610  Biso   1.000  H
  H25      1.0000 0.63660  0.81660  0.77490  Biso   1.000  H
  H26      1.0000 0.13660  0.31660  0.77490  Biso   1.000  H
  H27      1.0000 0.36340  0.81660  0.72510  Biso   1.000  H
  H28      1.0000 0.86340  0.31660  0.72510  Biso   1.000  H
  H29      1.0000 0.36340  0.18340  0.22510  Biso   1.000  H
  H30      1.0000 0.86340  0.68340  0.22510  Biso   1.000  H
  H31      1.0000 0.63660  0.18340  0.27490  Biso   1.000  H
  H32      1.0000 0.13660  0.68340  0.27490  Biso   1.000  H
  H33      1.0000 0.56540  0.85210  0.74510  Biso   1.000  H
  H34      1.0000 0.06540  0.35210  0.74510  Biso   1.000  H
  H35      1.0000 0.43460  0.85210  0.75490  Biso   1.000  H
  H36      1.0000 0.93460  0.35210  0.75490  Biso   1.000  H
  H37      1.0000 0.43460  0.14790  0.25490  Biso   1.000  H
  H38      1.0000 0.93460  0.64790  0.25490  Biso   1.000  H
  H39      1.0000 0.56540  0.14790  0.24510  Biso   1.000  H
  H40      1.0000 0.06540  0.64790  0.24510  Biso   1.000  H
  C65      1.0000 0.77680  0.27840  0.40150  Biso   1.000  C
  C66      1.0000 0.27680  0.77840  0.40150  Biso   1.000  C
  C67      1.0000 0.22320  0.27840  0.09850  Biso   1.000  C
  C68      1.0000 0.72320  0.77840  0.09850  Biso   1.000  C
  C69      1.0000 0.22320  0.72160  0.59850  Biso   1.000  C
  C70      1.0000 0.72320  0.22160  0.59850  Biso   1.000  C
  C71      1.0000 0.77680  0.72160  0.90150  Biso   1.000  C
  C72      1.0000 0.27680  0.22160  0.90150  Biso   1.000  C
  C73      1.0000 0.64790  0.90930  0.72070  Biso   1.000  C
  C74      1.0000 0.14790  0.40930  0.72070  Biso   1.000  C
  C75      1.0000 0.35210  0.90930  0.77930  Biso   1.000  C
  C76      1.0000 0.85210  0.40930  0.77930  Biso   1.000  C
  C77      1.0000 0.35210  0.09070  0.27930  Biso   1.000  C
  C78      1.0000 0.85210  0.59070  0.27930  Biso   1.000  C
  C79      1.0000 0.64790  0.09070  0.22070  Biso   1.000  C
  C80      1.0000 0.14790  0.59070  0.22070  Biso   1.000  C
  C81      1.0000 0.87210  0.08600  0.67850  Biso   1.000  C
  C82      1.0000 0.37210  0.58600  0.67850  Biso   1.000  C
  C83      1.0000 0.12790  0.08600  0.82150  Biso   1.000  C
  C84      1.0000 0.62790  0.58600  0.82150  Biso   1.000  C
  C85      1.0000 0.12790  0.91400  0.32150  Biso   1.000  C
  C86      1.0000 0.62790  0.41400  0.32150  Biso   1.000  C
  C87      1.0000 0.87210  0.91400  0.17850  Biso   1.000  C
  C88      1.0000 0.37210  0.41400  0.17850  Biso   1.000  C
  H41      1.0000 0.86010  0.13300  0.65340  Biso   1.000  H
  H42      1.0000 0.36010  0.63300  0.65340  Biso   1.000  H
  H43      1.0000 0.13990  0.13300  0.84660  Biso   1.000  H
  H44      1.0000 0.63990  0.63300  0.84660  Biso   1.000  H
  H45      1.0000 0.13990  0.86700  0.34660  Biso   1.000  H
  H46      1.0000 0.63990  0.36700  0.34660  Biso   1.000  H
  H47      1.0000 0.86010  0.86700  0.15340  Biso   1.000  H
  H48      1.0000 0.36010  0.36700  0.15340  Biso   1.000  H
  C89      1.0000 0.64590  0.70460  0.69040  Biso   1.000  C
  C90      1.0000 0.14590  0.20460  0.69040  Biso   1.000  C
  C91      1.0000 0.35410  0.70460  0.80960  Biso   1.000  C
  C92      1.0000 0.85410  0.20460  0.80960  Biso   1.000  C
  C93      1.0000 0.35410  0.29540  0.30960  Biso   1.000  C
  C94      1.0000 0.85410  0.79540  0.30960  Biso   1.000  C
  C95      1.0000 0.64590  0.29540  0.19040  Biso   1.000  C
  C96      1.0000 0.14590  0.79540  0.19040  Biso   1.000  C
  H49      1.0000 0.65690  0.66290  0.66530  Biso   1.000  H
  H50      1.0000 0.15690  0.16290  0.66530  Biso   1.000  H
  H51      1.0000 0.34310  0.66290  0.83470  Biso   1.000  H
  H52      1.0000 0.84310  0.16290  0.83470  Biso   1.000  H
  H53      1.0000 0.34310  0.33710  0.33470  Biso   1.000  H
  H54      1.0000 0.84310  0.83710  0.33470  Biso   1.000  H
  H55      1.0000 0.65690  0.33710  0.16530  Biso   1.000  H
  H56      1.0000 0.15690  0.83710  0.16530  Biso   1.000  H
  H57      1.0000 0.59710  0.69810  0.69050  Biso   1.000  H
  H58      1.0000 0.09710  0.19810  0.69050  Biso   1.000  H
  H59      1.0000 0.40290  0.69810  0.80950  Biso   1.000  H
  H60      1.0000 0.90290  0.19810  0.80950  Biso   1.000  H
  H61      1.0000 0.40290  0.30190  0.30950  Biso   1.000  H
  H62      1.0000 0.90290  0.80190  0.30950  Biso   1.000  H
  H63      1.0000 0.59710  0.30190  0.19050  Biso   1.000  H
  H64      1.0000 0.09710  0.80190  0.19050  Biso   1.000  H
  H65      1.0000 0.67180  0.67260  0.71760  Biso   1.000  H
  H66      1.0000 0.17180  0.17260  0.71760  Biso   1.000  H
  H67      1.0000 0.32820  0.67260  0.78240  Biso   1.000  H
  H68      1.0000 0.82820  0.17260  0.78240  Biso   1.000  H
  H69      1.0000 0.32820  0.32740  0.28240  Biso   1.000  H
  H70      1.0000 0.82820  0.82740  0.28240  Biso   1.000  H
  H71      1.0000 0.67180  0.32740  0.21760  Biso   1.000  H
  H72      1.0000 0.17180  0.82740  0.21760  Biso   1.000  H
  C97      1.0000 0.84130  0.95200  0.72640  Biso   1.000  C
  C98      1.0000 0.34130  0.45200  0.72640  Biso   1.000  C
  C99      1.0000 0.15870  0.95200  0.77360  Biso   1.000  C
  C100     1.0000 0.65870  0.45200  0.77360  Biso   1.000  C
  C101     1.0000 0.15870  0.04800  0.27360  Biso   1.000  C
  C102     1.0000 0.65870  0.54800  0.27360  Biso   1.000  C
  C103     1.0000 0.84130  0.04800  0.22640  Biso   1.000  C
  C104     1.0000 0.34130  0.54800  0.22640  Biso   1.000  C
  H73      1.0000 0.80650  0.91040  0.73640  Biso   1.000  H
  H74      1.0000 0.30650  0.41040  0.73640  Biso   1.000  H
  H75      1.0000 0.19350  0.91040  0.76360  Biso   1.000  H
  H76      1.0000 0.69350  0.41040  0.76360  Biso   1.000  H
  H77      1.0000 0.19350  0.08960  0.26360  Biso   1.000  H
  H78      1.0000 0.69350  0.58960  0.26360  Biso   1.000  H
  H79      1.0000 0.80650  0.08960  0.23640  Biso   1.000  H
  H80      1.0000 0.30650  0.58960  0.23640  Biso   1.000  H
  C105     1.0000 0.91020  0.93850  0.74850  Biso   1.000  C
  C106     1.0000 0.41020  0.43850  0.74850  Biso   1.000  C
  C107     1.0000 0.08980  0.93850  0.75150  Biso   1.000  C
  C108     1.0000 0.58980  0.43850  0.75150  Biso   1.000  C
  C109     1.0000 0.08980  0.06150  0.25150  Biso   1.000  C
  C110     1.0000 0.58980  0.56150  0.25150  Biso   1.000  C
  C111     1.0000 0.91020  0.06150  0.24850  Biso   1.000  C
  C112     1.0000 0.41020  0.56150  0.24850  Biso   1.000  C
  H81      1.0000 0.92070  0.88170  0.77040  Biso   1.000  H
  H82      1.0000 0.42070  0.38170  0.77040  Biso   1.000  H
  H83      1.0000 0.07930  0.88170  0.72960  Biso   1.000  H
  H84      1.0000 0.57930  0.38170  0.72960  Biso   1.000  H
  H85      1.0000 0.07930  0.11830  0.22960  Biso   1.000  H
  H86      1.0000 0.57930  0.61830  0.22960  Biso   1.000  H
  H87      1.0000 0.92070  0.11830  0.27040  Biso   1.000  H
  H88      1.0000 0.42070  0.61830  0.27040  Biso   1.000  H
  C113     1.0000 0.76780  0.76100  0.61950  Biso   1.000  C
  C114     1.0000 0.26780  0.26100  0.61950  Biso   1.000  C
  C115     1.0000 0.23220  0.76100  0.88050  Biso   1.000  C
  C116     1.0000 0.73220  0.26100  0.88050  Biso   1.000  C
  C117     1.0000 0.23220  0.23900  0.38050  Biso   1.000  C
  C118     1.0000 0.73220  0.73900  0.38050  Biso   1.000  C
  C119     1.0000 0.76780  0.23900  0.11950  Biso   1.000  C
  C120     1.0000 0.26780  0.73900  0.11950  Biso   1.000  C
  H89      1.0000 0.80400  0.78130  0.64260  Biso   1.000  H
  H90      1.0000 0.30400  0.28130  0.64260  Biso   1.000  H
  H91      1.0000 0.19600  0.78130  0.85740  Biso   1.000  H
  H92      1.0000 0.69600  0.28130  0.85740  Biso   1.000  H
  H93      1.0000 0.19600  0.21870  0.35740  Biso   1.000  H
  H94      1.0000 0.69600  0.71870  0.35740  Biso   1.000  H
  H95      1.0000 0.80400  0.21870  0.14260  Biso   1.000  H
  H96      1.0000 0.30400  0.71870  0.14260  Biso   1.000  H
  C121     1.0000 0.77940  0.68850  0.58270  Biso   1.000  C
  C122     1.0000 0.27940  0.18850  0.58270  Biso   1.000  C
  C123     1.0000 0.22060  0.68850  0.91730  Biso   1.000  C
  C124     1.0000 0.72060  0.18850  0.91730  Biso   1.000  C
  C125     1.0000 0.22060  0.31150  0.41730  Biso   1.000  C
  C126     1.0000 0.72060  0.81150  0.41730  Biso   1.000  C
  C127     1.0000 0.77940  0.31150  0.08270  Biso   1.000  C
  C128     1.0000 0.27940  0.81150  0.08270  Biso   1.000  C
  H97      1.0000 0.82460  0.66340  0.58280  Biso   1.000  H
  H98      1.0000 0.32460  0.16340  0.58280  Biso   1.000  H
  H99      1.0000 0.17540  0.66340  0.91720  Biso   1.000  H
  H100     1.0000 0.67540  0.16340  0.91720  Biso   1.000  H
  H101     1.0000 0.17540  0.33660  0.41720  Biso   1.000  H
  H102     1.0000 0.67540  0.83660  0.41720  Biso   1.000  H
  H103     1.0000 0.82460  0.33660  0.08280  Biso   1.000  H
  H104     1.0000 0.32460  0.83660  0.08280  Biso   1.000  H
  C129     1.0000 0.76910  0.20820  0.44160  Biso   1.000  C
  C130     1.0000 0.26910  0.70820  0.44160  Biso   1.000  C
  C131     1.0000 0.23090  0.20820  0.05840  Biso   1.000  C
  C132     1.0000 0.73090  0.70820  0.05840  Biso   1.000  C
  C133     1.0000 0.23090  0.79180  0.55840  Biso   1.000  C
  C134     1.0000 0.73090  0.29180  0.55840  Biso   1.000  C
  C135     1.0000 0.76910  0.79180  0.94160  Biso   1.000  C
  C136     1.0000 0.26910  0.29180  0.94160  Biso   1.000  C
  H105     1.0000 0.76280  0.25910  0.46550  Biso   1.000  H
  H106     1.0000 0.26280  0.75910  0.46550  Biso   1.000  H
  H107     1.0000 0.23720  0.25910  0.03450  Biso   1.000  H
  H108     1.0000 0.73720  0.75910  0.03450  Biso   1.000  H
  H109     1.0000 0.23720  0.74090  0.53450  Biso   1.000  H
  H110     1.0000 0.73720  0.24090  0.53450  Biso   1.000  H
  H111     1.0000 0.76280  0.74090  0.96550  Biso   1.000  H
  H112     1.0000 0.26280  0.24090  0.96550  Biso   1.000  H
  H113     1.0000 0.72950  0.15810  0.43410  Biso   1.000  H
  H114     1.0000 0.22950  0.65810  0.43410  Biso   1.000  H
  H115     1.0000 0.27050  0.15810  0.06590  Biso   1.000  H
  H116     1.0000 0.77050  0.65810  0.06590  Biso   1.000  H
  H117     1.0000 0.27050  0.84190  0.56590  Biso   1.000  H
  H118     1.0000 0.77050  0.34190  0.56590  Biso   1.000  H
  H119     1.0000 0.72950  0.84190  0.93410  Biso   1.000  H
  H120     1.0000 0.22950  0.34190  0.93410  Biso   1.000  H
  H121     1.0000 0.81020  0.16230  0.45090  Biso   1.000  H
  H122     1.0000 0.31020  0.66230  0.45090  Biso   1.000  H
  H123     1.0000 0.18980  0.16230  0.04910  Biso   1.000  H
  H124     1.0000 0.68980  0.66230  0.04910  Biso   1.000  H
  H125     1.0000 0.18980  0.83770  0.54910  Biso   1.000  H
  H126     1.0000 0.68980  0.33770  0.54910  Biso   1.000  H
  H127     1.0000 0.81020  0.83770  0.95090  Biso   1.000  H
  H128     1.0000 0.31020  0.33770  0.95090  Biso   1.000  H
  C137     1.0000 0.70600  0.48900  0.43990  Biso   1.000  C
  C138     1.0000 0.20600  0.98900  0.43990  Biso   1.000  C
  C139     1.0000 0.29400  0.48900  0.06010  Biso   1.000  C
  C140     1.0000 0.79400  0.98900  0.06010  Biso   1.000  C
  C141     1.0000 0.29400  0.51100  0.56010  Biso   1.000  C
  C142     1.0000 0.79400  0.01100  0.56010  Biso   1.000  C
  C143     1.0000 0.70600  0.51100  0.93990  Biso   1.000  C
  C144     1.0000 0.20600  0.01100  0.93990  Biso   1.000  C
  H129     1.0000 0.66970  0.47130  0.41650  Biso   1.000  H
  H130     1.0000 0.16970  0.97130  0.41650  Biso   1.000  H
  H131     1.0000 0.33030  0.47130  0.08350  Biso   1.000  H
  H132     1.0000 0.83030  0.97130  0.08350  Biso   1.000  H
  H133     1.0000 0.33030  0.52870  0.58350  Biso   1.000  H
  H134     1.0000 0.83030  0.02870  0.58350  Biso   1.000  H
  H135     1.0000 0.66970  0.52870  0.91650  Biso   1.000  H
  H136     1.0000 0.16970  0.02870  0.91650  Biso   1.000  H
  C145     1.0000 0.80710  0.55210  0.50650  Biso   1.000  C
  C146     1.0000 0.30710  0.05210  0.50650  Biso   1.000  C
  C147     1.0000 0.19290  0.55210  0.99350  Biso   1.000  C
  C148     1.0000 0.69290  0.05210  0.99350  Biso   1.000  C
  C149     1.0000 0.19290  0.44790  0.49350  Biso   1.000  C
  C150     1.0000 0.69290  0.94790  0.49350  Biso   1.000  C
  C151     1.0000 0.80710  0.44790  0.00650  Biso   1.000  C
  C152     1.0000 0.30710  0.94790  0.00650  Biso   1.000  C
  H137     1.0000 0.84460  0.57970  0.52730  Biso   1.000  H
  H138     1.0000 0.34460  0.07970  0.52730  Biso   1.000  H
  H139     1.0000 0.15540  0.57970  0.97270  Biso   1.000  H
  H140     1.0000 0.65540  0.07970  0.97270  Biso   1.000  H
  H141     1.0000 0.15540  0.42030  0.47270  Biso   1.000  H
  H142     1.0000 0.65540  0.92030  0.47270  Biso   1.000  H
  H143     1.0000 0.84460  0.42030  0.02730  Biso   1.000  H
  H144     1.0000 0.34460  0.92030  0.02730  Biso   1.000  H
  C153     1.0000 0.69300  0.55140  0.47840  Biso   1.000  C
  C154     1.0000 0.19300  0.05140  0.47840  Biso   1.000  C
  C155     1.0000 0.30700  0.55140  0.02160  Biso   1.000  C
  C156     1.0000 0.80700  0.05140  0.02160  Biso   1.000  C
  C157     1.0000 0.30700  0.44860  0.52160  Biso   1.000  C
  C158     1.0000 0.80700  0.94860  0.52160  Biso   1.000  C
  C159     1.0000 0.69300  0.44860  0.97840  Biso   1.000  C
  C160     1.0000 0.19300  0.94860  0.97840  Biso   1.000  C
  H145     1.0000 0.64730  0.56920  0.48020  Biso   1.000  H
  H146     1.0000 0.14730  0.06920  0.48020  Biso   1.000  H
  H147     1.0000 0.35270  0.56920  0.01980  Biso   1.000  H
  H148     1.0000 0.85270  0.06920  0.01980  Biso   1.000  H
  H149     1.0000 0.35270  0.43080  0.51980  Biso   1.000  H
  H150     1.0000 0.85270  0.93080  0.51980  Biso   1.000  H
  H151     1.0000 0.64730  0.43080  0.98020  Biso   1.000  H
  H152     1.0000 0.14730  0.93080  0.98020  Biso   1.000  H
  C161     1.0000 0.66650  0.69090  0.55170  Biso   1.000  C
  C162     1.0000 0.16650  0.19090  0.55170  Biso   1.000  C
  C163     1.0000 0.33350  0.69090  0.94830  Biso   1.000  C
  C164     1.0000 0.83350  0.19090  0.94830  Biso   1.000  C
  C165     1.0000 0.33350  0.30910  0.44830  Biso   1.000  C
  C166     1.0000 0.83350  0.80910  0.44830  Biso   1.000  C
  C167     1.0000 0.66650  0.30910  0.05170  Biso   1.000  C
  C168     1.0000 0.16650  0.80910  0.05170  Biso   1.000  C
  H153     1.0000 0.62930  0.66790  0.52970  Biso   1.000  H
  H154     1.0000 0.12930  0.16790  0.52970  Biso   1.000  H
  H155     1.0000 0.37070  0.66790  0.97030  Biso   1.000  H
  H156     1.0000 0.87070  0.16790  0.97030  Biso   1.000  H
  H157     1.0000 0.37070  0.33210  0.47030  Biso   1.000  H
  H158     1.0000 0.87070  0.83210  0.47030  Biso   1.000  H
  H159     1.0000 0.62930  0.33210  0.02970  Biso   1.000  H
  H160     1.0000 0.12930  0.83210  0.02970  Biso   1.000  H
  C169     1.0000 0.82170  0.48210  0.47340  Biso   1.000  C
  C170     1.0000 0.32170  0.98210  0.47340  Biso   1.000  C
  C171     1.0000 0.17830  0.48210  0.02660  Biso   1.000  C
  C172     1.0000 0.67830  0.98210  0.02660  Biso   1.000  C
  C173     1.0000 0.17830  0.51790  0.52660  Biso   1.000  C
  C174     1.0000 0.67830  0.01790  0.52660  Biso   1.000  C
  C175     1.0000 0.82170  0.51790  0.97340  Biso   1.000  C
  C176     1.0000 0.32170  0.01790  0.97340  Biso   1.000  C
  H161     1.0000 0.86600  0.45130  0.47490  Biso   1.000  H
  H162     1.0000 0.36600  0.95130  0.47490  Biso   1.000  H
  H163     1.0000 0.13400  0.45130  0.02510  Biso   1.000  H
  H164     1.0000 0.63400  0.95130  0.02510  Biso   1.000  H
  H165     1.0000 0.13400  0.54870  0.52510  Biso   1.000  H
  H166     1.0000 0.63400  0.04870  0.52510  Biso   1.000  H
  H167     1.0000 0.86600  0.54870  0.97490  Biso   1.000  H
  H168     1.0000 0.36600  0.04870  0.97490  Biso   1.000  H
  C177     1.0000 0.65490  0.76040  0.58620  Biso   1.000  C
  C178     1.0000 0.15490  0.26040  0.58620  Biso   1.000  C
  C179     1.0000 0.34510  0.76040  0.91380  Biso   1.000  C
  C180     1.0000 0.84510  0.26040  0.91380  Biso   1.000  C
  C181     1.0000 0.34510  0.23960  0.41380  Biso   1.000  C
  C182     1.0000 0.84510  0.73960  0.41380  Biso   1.000  C
  C183     1.0000 0.65490  0.23960  0.08620  Biso   1.000  C
  C184     1.0000 0.15490  0.73960  0.08620  Biso   1.000  C
  H169     1.0000 0.60940  0.78320  0.58660  Biso   1.000  H
  H170     1.0000 0.10940  0.28320  0.58660  Biso   1.000  H
  H171     1.0000 0.39060  0.78320  0.91340  Biso   1.000  H
  H172     1.0000 0.89060  0.28320  0.91340  Biso   1.000  H
  H173     1.0000 0.39060  0.21680  0.41340  Biso   1.000  H
  H174     1.0000 0.89060  0.71680  0.41340  Biso   1.000  H
  H175     1.0000 0.60940  0.21680  0.08660  Biso   1.000  H
  H176     1.0000 0.10940  0.71680  0.08660  Biso   1.000  H
  C185     1.0000 0.78720  0.21720  0.36060  Biso   1.000  C
  C186     1.0000 0.28720  0.71720  0.36060  Biso   1.000  C
  C187     1.0000 0.21280  0.21720  0.13940  Biso   1.000  C
  C188     1.0000 0.71280  0.71720  0.13940  Biso   1.000  C
  C189     1.0000 0.21280  0.78280  0.63940  Biso   1.000  C
  C190     1.0000 0.71280  0.28280  0.63940  Biso   1.000  C
  C191     1.0000 0.78720  0.78280  0.86060  Biso   1.000  C
  C192     1.0000 0.28720  0.28280  0.86060  Biso   1.000  C
  C193     1.0000 0.78500  0.08580  0.35630  Biso   1.000  C
  C194     1.0000 0.28500  0.58580  0.35630  Biso   1.000  C
  C195     1.0000 0.21500  0.08580  0.14370  Biso   1.000  C
  C196     1.0000 0.71500  0.58580  0.14370  Biso   1.000  C
  C197     1.0000 0.21500  0.91420  0.64370  Biso   1.000  C
  C198     1.0000 0.71500  0.41420  0.64370  Biso   1.000  C
  C199     1.0000 0.78500  0.91420  0.85630  Biso   1.000  C
  C200     1.0000 0.28500  0.41420  0.85630  Biso   1.000  C
  H177     1.0000 0.79330  0.06390  0.32730  Biso   1.000  H
  H178     1.0000 0.29330  0.56390  0.32730  Biso   1.000  H
  H179     1.0000 0.20670  0.06390  0.17270  Biso   1.000  H
  H180     1.0000 0.70670  0.56390  0.17270  Biso   1.000  H
  H181     1.0000 0.20670  0.93610  0.67270  Biso   1.000  H
  H182     1.0000 0.70670  0.43610  0.67270  Biso   1.000  H
  H183     1.0000 0.79330  0.93610  0.82730  Biso   1.000  H
  H184     1.0000 0.29330  0.43610  0.82730  Biso   1.000  H
  H185     1.0000 0.82010  0.05240  0.37910  Biso   1.000  H
  H186     1.0000 0.32010  0.55240  0.37910  Biso   1.000  H
  H187     1.0000 0.17990  0.05240  0.12090  Biso   1.000  H
  H188     1.0000 0.67990  0.55240  0.12090  Biso   1.000  H
  H189     1.0000 0.17990  0.94760  0.62090  Biso   1.000  H
  H190     1.0000 0.67990  0.44760  0.62090  Biso   1.000  H
  H191     1.0000 0.82010  0.94760  0.87910  Biso   1.000  H
  H192     1.0000 0.32010  0.44760  0.87910  Biso   1.000  H
  H193     1.0000 0.74010  0.05810  0.35990  Biso   1.000  H
  H194     1.0000 0.24010  0.55810  0.35990  Biso   1.000  H
  H195     1.0000 0.25990  0.05810  0.14010  Biso   1.000  H
  H196     1.0000 0.75990  0.55810  0.14010  Biso   1.000  H
  H197     1.0000 0.25990  0.94190  0.64010  Biso   1.000  H
  H198     1.0000 0.75990  0.44190  0.64010  Biso   1.000  H
  H199     1.0000 0.74010  0.94190  0.85990  Biso   1.000  H
  H200     1.0000 0.24010  0.44190  0.85990  Biso   1.000  H
  F1       1.0000 0.99220  0.33840  0.65200  Biso   1.000  F
  F2       1.0000 0.49220  0.83840  0.65200  Biso   1.000  F
  F3       1.0000 0.00780  0.33840  0.84800  Biso   1.000  F
  F4       1.0000 0.50780  0.83840  0.84800  Biso   1.000  F
  F5       1.0000 0.00780  0.66160  0.34800  Biso   1.000  F
  F6       1.0000 0.50780  0.16160  0.34800  Biso   1.000  F
  F7       1.0000 0.99220  0.66160  0.15200  Biso   1.000  F
  F8       1.0000 0.49220  0.16160  0.15200  Biso   1.000  F
  F9       1.0000 0.95950  0.39300  0.58260  Biso   1.000  F
  F10      1.0000 0.45950  0.89300  0.58260  Biso   1.000  F
  F11      1.0000 0.04050  0.39300  0.91740  Biso   1.000  F
  F12      1.0000 0.54050  0.89300  0.91740  Biso   1.000  F
  F13      1.0000 0.04050  0.60700  0.41740  Biso   1.000  F
  F14      1.0000 0.54050  0.10700  0.41740  Biso   1.000  F
  F15      1.0000 0.95950  0.60700  0.08260  Biso   1.000  F
  F16      1.0000 0.45950  0.10700  0.08260  Biso   1.000  F
  F17      1.0000 0.94530  0.21000  0.57790  Biso   1.000  F
  F18      1.0000 0.44530  0.71000  0.57790  Biso   1.000  F
  F19      1.0000 0.05470  0.21000  0.92210  Biso   1.000  F
  F20      1.0000 0.55470  0.71000  0.92210  Biso   1.000  F
  F21      1.0000 0.05470  0.79000  0.42210  Biso   1.000  F
  F22      1.0000 0.55470  0.29000  0.42210  Biso   1.000  F
  F23      1.0000 0.94530  0.79000  0.07790  Biso   1.000  F
  F24      1.0000 0.44530  0.29000  0.07790  Biso   1.000  F
  F25      1.0000 0.89110  0.36200  0.62520  Biso   1.000  F
  F26      1.0000 0.39110  0.86200  0.62520  Biso   1.000  F
  F27      1.0000 0.10890  0.36200  0.87480  Biso   1.000  F
  F28      1.0000 0.60890  0.86200  0.87480  Biso   1.000  F
  F29      1.0000 0.10890  0.63800  0.37480  Biso   1.000  F
  F30      1.0000 0.60890  0.13800  0.37480  Biso   1.000  F
  F31      1.0000 0.89110  0.63800  0.12520  Biso   1.000  F
  F32      1.0000 0.39110  0.13800  0.12520  Biso   1.000  F
  B1       1.0000 0.94700  0.31600  0.60300  Biso   1.000  B
  B2       1.0000 0.44700  0.81600  0.60300  Biso   1.000  B
  B3       1.0000 0.05300  0.31600  0.89700  Biso   1.000  B
  B4       1.0000 0.55300  0.81600  0.89700  Biso   1.000  B
  B5       1.0000 0.05300  0.68400  0.39700  Biso   1.000  B
  B6       1.0000 0.55300  0.18400  0.39700  Biso   1.000  B
  B7       1.0000 0.94700  0.68400  0.10300  Biso   1.000  B
  B8       1.0000 0.44700  0.18400  0.10300  Biso   1.000  B
  O17      1.0000 0.01100  0.71700  0.83400  Biso   1.000  O
  O18      1.0000 0.51100  0.21700  0.83400  Biso   1.000  O
  O19      1.0000 0.98900  0.71700  0.66600  Biso   1.000  O
  O20      1.0000 0.48900  0.21700  0.66600  Biso   1.000  O
  O21      1.0000 0.98900  0.28300  0.16600  Biso   1.000  O
  O22      1.0000 0.48900  0.78300  0.16600  Biso   1.000  O
  O23      1.0000 0.01100  0.28300  0.33400  Biso   1.000  O
  O24      1.0000 0.51100  0.78300  0.33400  Biso   1.000  O
  O25      1.0000 0.00400  0.28000  0.42300  Biso   1.000  O
  O26      1.0000 0.50400  0.78000  0.42300  Biso   1.000  O
  O27      1.0000 0.99600  0.28000  0.07700  Biso   1.000  O
  O28      1.0000 0.49600  0.78000  0.07700  Biso   1.000  O
  O29      1.0000 0.99600  0.72000  0.57700  Biso   1.000  O
  O30      1.0000 0.49600  0.22000  0.57700  Biso   1.000  O
  O31      1.0000 0.00400  0.72000  0.92300  Biso   1.000  O
  O32      1.0000 0.50400  0.22000  0.92300  Biso   1.000  O
  O33      1.0000 0.96900  0.25400  0.48100  Biso   1.000  O
  O34      1.0000 0.46900  0.75400  0.48100  Biso   1.000  O
  O35      1.0000 0.03100  0.25400  0.01900  Biso   1.000  O
  O36      1.0000 0.53100  0.75400  0.01900  Biso   1.000  O
  O37      1.0000 0.03100  0.74600  0.51900  Biso   1.000  O
  O38      1.0000 0.53100  0.24600  0.51900  Biso   1.000  O
  O39      1.0000 0.96900  0.74600  0.98100  Biso   1.000  O
  O40      1.0000 0.46900  0.24600  0.98100  Biso   1.000  O
  O41      1.0000 0.93200  0.43200  0.38900  Biso   1.000  O
  O42      1.0000 0.43200  0.93200  0.38900  Biso   1.000  O
  O43      1.0000 0.06800  0.43200  0.11100  Biso   1.000  O
  O44      1.0000 0.56800  0.93200  0.11100  Biso   1.000  O
  O45      1.0000 0.06800  0.56800  0.61100  Biso   1.000  O
  O46      1.0000 0.56800  0.06800  0.61100  Biso   1.000  O
  O47      1.0000 0.93200  0.56800  0.88900  Biso   1.000  O
  O48      1.0000 0.43200  0.06800  0.88900  Biso   1.000  O
  O49      1.0000 0.00300  0.07000  0.57200  Biso   1.000  O
  O50      1.0000 0.50300  0.57000  0.57200  Biso   1.000  O
  O51      1.0000 0.99700  0.07000  0.92800  Biso   1.000  O
  O52      1.0000 0.49700  0.57000  0.92800  Biso   1.000  O
  O53      1.0000 0.99700  0.93000  0.42800  Biso   1.000  O
  O54      1.0000 0.49700  0.43000  0.42800  Biso   1.000  O
  O55      1.0000 0.00300  0.93000  0.07200  Biso   1.000  O
  O56      1.0000 0.50300  0.43000  0.07200  Biso   1.000  O
  O57      1.0000 0.98900  0.07500  0.46400  Biso   1.000  O
  O58      1.0000 0.48900  0.57500  0.46400  Biso   1.000  O
  O59      1.0000 0.01100  0.07500  0.03600  Biso   1.000  O
  O60      1.0000 0.51100  0.57500  0.03600  Biso   1.000  O
  O61      1.0000 0.01100  0.92500  0.53600  Biso   1.000  O
  O62      1.0000 0.51100  0.42500  0.53600  Biso   1.000  O
  O63      1.0000 0.98900  0.92500  0.96400  Biso   1.000  O
  O64      1.0000 0.48900  0.42500  0.96400  Biso   1.000  O
  O65      1.0000 0.00700  0.53800  0.56000  Biso   1.000  O
  O66      1.0000 0.50700  0.03800  0.56000  Biso   1.000  O
  O67      1.0000 0.99300  0.53800  0.94000  Biso   1.000  O
  O68      1.0000 0.49300  0.03800  0.94000  Biso   1.000  O
  O69      1.0000 0.99300  0.46200  0.44000  Biso   1.000  O
  O70      1.0000 0.49300  0.96200  0.44000  Biso   1.000  O
  O71      1.0000 0.00700  0.46200  0.06000  Biso   1.000  O
  O72      1.0000 0.50700  0.96200  0.06000  Biso   1.000  O
  O73      1.0000 0.98900  0.05000  0.49700  Biso   1.000  O
  O74      1.0000 0.48900  0.55000  0.49700  Biso   1.000  O
  O75      1.0000 0.01100  0.05000  0.00300  Biso   1.000  O
  O76      1.0000 0.51100  0.55000  0.00300  Biso   1.000  O
  O77      1.0000 0.01100  0.95000  0.50300  Biso   1.000  O
  O78      1.0000 0.51100  0.45000  0.50300  Biso   1.000  O
  O79      1.0000 0.98900  0.95000  0.99700  Biso   1.000  O
  O80      1.0000 0.48900  0.45000  0.99700  Biso   1.000  O
