data_image0
_cell_length_a       13.3333
_cell_length_b       15.125
_cell_length_c       11.9108
_cell_angle_alpha    90
_cell_angle_beta     110.982
_cell_angle_gamma    90

_symmetry_space_group_name_H-M    "P 1"
_symmetry_int_tables_number       1

loop_
  _symmetry_equiv_pos_as_xyz
  'x, y, z'

loop_
  _atom_site_label
  _atom_site_occupancy
  _atom_site_fract_x
  _atom_site_fract_y
  _atom_site_fract_z
  _atom_site_thermal_displace_type
  _atom_site_B_iso_or_equiv
  _atom_site_type_symbol
  Cu1      1.0000 0.36126  0.23473  0.60351  Biso   1.000  Cu
  Cu2      1.0000 0.63874  0.73473  0.89649  Biso   1.000  Cu
  Cu3      1.0000 0.63874  0.76527  0.39649  Biso   1.000  Cu
  Cu4      1.0000 0.36126  0.26527  0.10351  Biso   1.000  Cu
  O1       1.0000 0.29595  0.18012  0.44165  Biso   1.000  O
  O2       1.0000 0.70405  0.68012  0.05835  Biso   1.000  O
  O3       1.0000 0.70405  0.81988  0.55835  Biso   1.000  O
  O4       1.0000 0.29595  0.31988  0.94165  Biso   1.000  O
  O5       1.0000 0.27857  0.06147  0.54377  Biso   1.000  O
  O6       1.0000 0.72143  0.56147  0.95623  Biso   1.000  O
  O7       1.0000 0.72143  0.93853  0.45623  Biso   1.000  O
  O8       1.0000 0.27857  0.43853  0.04377  Biso   1.000  O
  C1       1.0000 0.17990  0.06463  0.33530  Biso   1.000  C
  C2       1.0000 0.82010  0.56463  0.16470  Biso   1.000  C
  C3       1.0000 0.82010  0.93537  0.66470  Biso   1.000  C
  C4       1.0000 0.17990  0.43537  0.83530  Biso   1.000  C
  C5       1.0000 0.06700  0.05405  0.31310  Biso   1.000  C
  C6       1.0000 0.93300  0.55405  0.18690  Biso   1.000  C
  C7       1.0000 0.93300  0.94595  0.68690  Biso   1.000  C
  C8       1.0000 0.06700  0.44595  0.81310  Biso   1.000  C
  C9       1.0000 0.00000  0.06911  0.37890  Biso   1.000  C
  C10      1.0000 0.00000  0.56911  0.12110  Biso   1.000  C
  C11      1.0000 0.00000  0.93089  0.62110  Biso   1.000  C
  C12      1.0000 0.00000  0.43089  0.87890  Biso   1.000  C
  H1       1.0000 0.02800  0.09260  0.45800  Biso   1.000  H
  H2       1.0000 0.97200  0.59260  0.04200  Biso   1.000  H
  H3       1.0000 0.97200  0.90740  0.54200  Biso   1.000  H
  H4       1.0000 0.02800  0.40740  0.95800  Biso   1.000  H
  C13      1.0000 0.89210  0.04877  0.32540  Biso   1.000  C
  C14      1.0000 0.10790  0.54877  0.17460  Biso   1.000  C
  C15      1.0000 0.10790  0.95123  0.67460  Biso   1.000  C
  C16      1.0000 0.89210  0.45123  0.82540  Biso   1.000  C
  H5       1.0000 0.84600  0.05610  0.36980  Biso   1.000  H
  H6       1.0000 0.15400  0.55610  0.13020  Biso   1.000  H
  H7       1.0000 0.15400  0.94390  0.63020  Biso   1.000  H
  H8       1.0000 0.84600  0.44390  0.86980  Biso   1.000  H
  C17      1.0000 0.84950  0.01747  0.20660  Biso   1.000  C
  C18      1.0000 0.15050  0.51747  0.29340  Biso   1.000  C
  C19      1.0000 0.15050  0.98253  0.79340  Biso   1.000  C
  C20      1.0000 0.84950  0.48253  0.70660  Biso   1.000  C
  H9       1.0000 0.77450  0.00650  0.17120  Biso   1.000  H
  H10      1.0000 0.22550  0.50650  0.32880  Biso   1.000  H
  H11      1.0000 0.22550  0.99350  0.82880  Biso   1.000  H
  H12      1.0000 0.77450  0.49350  0.67120  Biso   1.000  H
  C21      1.0000 0.91420  0.00217  0.13930  Biso   1.000  C
  C22      1.0000 0.08580  0.50217  0.36070  Biso   1.000  C
  C23      1.0000 0.08580  0.99783  0.86070  Biso   1.000  C
  C24      1.0000 0.91420  0.49783  0.63930  Biso   1.000  C
  H13      1.0000 0.88580  0.98170  0.05860  Biso   1.000  H
  H14      1.0000 0.11420  0.48170  0.44140  Biso   1.000  H
  H15      1.0000 0.11420  0.01830  0.94140  Biso   1.000  H
  H16      1.0000 0.88580  0.51830  0.55860  Biso   1.000  H
  C25      1.0000 0.02280  0.01875  0.19770  Biso   1.000  C
  C26      1.0000 0.97720  0.51875  0.30230  Biso   1.000  C
  C27      1.0000 0.97720  0.98125  0.80230  Biso   1.000  C
  C28      1.0000 0.02280  0.48125  0.69770  Biso   1.000  C
  O9       1.0000 0.10146  0.00451  0.14996  Biso   1.000  O
  O10      1.0000 0.89854  0.50451  0.35004  Biso   1.000  O
  O11      1.0000 0.89854  0.99549  0.85004  Biso   1.000  O
  O12      1.0000 0.10146  0.49549  0.64996  Biso   1.000  O
  C29      1.0000 0.19700  0.03324  0.23710  Biso   1.000  C
  C30      1.0000 0.80300  0.53324  0.26290  Biso   1.000  C
  C31      1.0000 0.80300  0.96676  0.76290  Biso   1.000  C
  C32      1.0000 0.19700  0.46676  0.73710  Biso   1.000  C
  C33      1.0000 0.29820  0.02230  0.21130  Biso   1.000  C
  C34      1.0000 0.70180  0.52230  0.28870  Biso   1.000  C
  C35      1.0000 0.70180  0.97770  0.78870  Biso   1.000  C
  C36      1.0000 0.29820  0.47770  0.71130  Biso   1.000  C
  C37      1.0000 0.25930  0.10290  0.44880  Biso   1.000  C
  C38      1.0000 0.74070  0.60290  0.05120  Biso   1.000  C
  C39      1.0000 0.74070  0.89710  0.55120  Biso   1.000  C
  C40      1.0000 0.25930  0.39710  0.94880  Biso   1.000  C
  O13      1.0000 0.29016  0.99421  0.10919  Biso   1.000  O
  O14      1.0000 0.70984  0.49421  0.39081  Biso   1.000  O
  O15      1.0000 0.70984  0.00579  0.89081  Biso   1.000  O
  O16      1.0000 0.29016  0.50579  0.60919  Biso   1.000  O
  O17      1.0000 0.38236  0.04371  0.29652  Biso   1.000  O
  O18      1.0000 0.61764  0.54371  0.20348  Biso   1.000  O
  O19      1.0000 0.61764  0.95629  0.70348  Biso   1.000  O
  O20      1.0000 0.38236  0.45629  0.79652  Biso   1.000  O
  N1       1.0000 0.51119  0.21458  0.60540  Biso   1.000  N
  N2       1.0000 0.48881  0.71458  0.89460  Biso   1.000  N
  N3       1.0000 0.48881  0.78542  0.39460  Biso   1.000  N
  N4       1.0000 0.51119  0.28542  0.10540  Biso   1.000  N
  C41      1.0000 0.58840  0.27570  0.65870  Biso   1.000  C
  C42      1.0000 0.41160  0.77570  0.84130  Biso   1.000  C
  C43      1.0000 0.41160  0.72430  0.34130  Biso   1.000  C
  C44      1.0000 0.58840  0.22430  0.15870  Biso   1.000  C
  H17      1.0000 0.56960  0.32660  0.69360  Biso   1.000  H
  H18      1.0000 0.43040  0.82660  0.80640  Biso   1.000  H
  H19      1.0000 0.43040  0.67340  0.30640  Biso   1.000  H
  H20      1.0000 0.56960  0.17340  0.19360  Biso   1.000  H
  C45      1.0000 0.69140  0.26680  0.66400  Biso   1.000  C
  C46      1.0000 0.30860  0.76680  0.83600  Biso   1.000  C
  C47      1.0000 0.30860  0.73320  0.33600  Biso   1.000  C
  C48      1.0000 0.69140  0.23320  0.16400  Biso   1.000  C
  H21      1.0000 0.74270  0.31120  0.70230  Biso   1.000  H
  H22      1.0000 0.25730  0.81120  0.79770  Biso   1.000  H
  H23      1.0000 0.25730  0.68880  0.29770  Biso   1.000  H
  H24      1.0000 0.74270  0.18880  0.20230  Biso   1.000  H
  C49      1.0000 0.72280  0.19350  0.61380  Biso   1.000  C
  C50      1.0000 0.27720  0.69350  0.88620  Biso   1.000  C
  C51      1.0000 0.27720  0.80650  0.38620  Biso   1.000  C
  C52      1.0000 0.72280  0.30650  0.11380  Biso   1.000  C
  C53      1.0000 0.64310  0.13121  0.55850  Biso   1.000  C
  C54      1.0000 0.35690  0.63121  0.94150  Biso   1.000  C
  C55      1.0000 0.35690  0.86879  0.44150  Biso   1.000  C
  C56      1.0000 0.64310  0.36879  0.05850  Biso   1.000  C
  H25      1.0000 0.65980  0.08030  0.52180  Biso   1.000  H
  H26      1.0000 0.34020  0.58030  0.97820  Biso   1.000  H
  H27      1.0000 0.34020  0.91970  0.47820  Biso   1.000  H
  H28      1.0000 0.65980  0.41970  0.02180  Biso   1.000  H
  C57      1.0000 0.54020  0.14334  0.55700  Biso   1.000  C
  C58      1.0000 0.45980  0.64334  0.94300  Biso   1.000  C
  C59      1.0000 0.45980  0.85666  0.44300  Biso   1.000  C
  C60      1.0000 0.54020  0.35666  0.05700  Biso   1.000  C
  H29      1.0000 0.48760  0.09950  0.52020  Biso   1.000  H
  H30      1.0000 0.51240  0.59950  0.97980  Biso   1.000  H
  H31      1.0000 0.51240  0.90050  0.47980  Biso   1.000  H
  H32      1.0000 0.48760  0.40050  0.02020  Biso   1.000  H
  C61      1.0000 0.83680  0.18110  0.62200  Biso   1.000  C
  C62      1.0000 0.16320  0.68110  0.87800  Biso   1.000  C
  C63      1.0000 0.16320  0.81890  0.37800  Biso   1.000  C
  C64      1.0000 0.83680  0.31890  0.12200  Biso   1.000  C
  H33      1.0000 0.88220  0.16930  0.70670  Biso   1.000  H
  H34      1.0000 0.11780  0.66930  0.79330  Biso   1.000  H
  H35      1.0000 0.11780  0.83070  0.29330  Biso   1.000  H
  H36      1.0000 0.88220  0.33070  0.20670  Biso   1.000  H
  H37      1.0000 0.84070  0.12870  0.57390  Biso   1.000  H
  H38      1.0000 0.15930  0.62870  0.92610  Biso   1.000  H
  H39      1.0000 0.15930  0.87130  0.42610  Biso   1.000  H
  H40      1.0000 0.84070  0.37130  0.07390  Biso   1.000  H
  C65      1.0000 0.88070  0.25940  0.57830  Biso   1.000  C
  C66      1.0000 0.11930  0.75940  0.92170  Biso   1.000  C
  C67      1.0000 0.11930  0.74060  0.42170  Biso   1.000  C
  C68      1.0000 0.88070  0.24060  0.07830  Biso   1.000  C
  H41      1.0000 0.87260  0.31190  0.62400  Biso   1.000  H
  H42      1.0000 0.12740  0.81190  0.87600  Biso   1.000  H
  H43      1.0000 0.12740  0.68810  0.37600  Biso   1.000  H
  H44      1.0000 0.87260  0.18810  0.12400  Biso   1.000  H
  H45      1.0000 0.83580  0.26940  0.49290  Biso   1.000  H
  H46      1.0000 0.16420  0.76940  0.00710  Biso   1.000  H
  H47      1.0000 0.16420  0.73060  0.50710  Biso   1.000  H
  H48      1.0000 0.83580  0.23060  0.99290  Biso   1.000  H
  C69      1.0000 0.99580  0.25420  0.58770  Biso   1.000  C
  C70      1.0000 0.00420  0.75420  0.91230  Biso   1.000  C
  C71      1.0000 0.00420  0.74580  0.41230  Biso   1.000  C
  C72      1.0000 0.99580  0.24580  0.08770  Biso   1.000  C
  C73      1.0000 0.07140  0.20180  0.67280  Biso   1.000  C
  C74      1.0000 0.92860  0.70180  0.82720  Biso   1.000  C
  C75      1.0000 0.92860  0.79820  0.32720  Biso   1.000  C
  C76      1.0000 0.07140  0.29820  0.17280  Biso   1.000  C
  H49      1.0000 0.05060  0.16700  0.72710  Biso   1.000  H
  H50      1.0000 0.94940  0.66700  0.77290  Biso   1.000  H
  H51      1.0000 0.94940  0.83300  0.27290  Biso   1.000  H
  H52      1.0000 0.05060  0.33300  0.22710  Biso   1.000  H
  C77      1.0000 0.17620  0.20040  0.67820  Biso   1.000  C
  C78      1.0000 0.82380  0.70040  0.82180  Biso   1.000  C
  C79      1.0000 0.82380  0.79960  0.32180  Biso   1.000  C
  C80      1.0000 0.17620  0.29960  0.17820  Biso   1.000  C
  H53      1.0000 0.22670  0.16520  0.73830  Biso   1.000  H
  H54      1.0000 0.77330  0.66520  0.76170  Biso   1.000  H
  H55      1.0000 0.77330  0.83480  0.26170  Biso   1.000  H
  H56      1.0000 0.22670  0.33480  0.23830  Biso   1.000  H
  N5       1.0000 0.21064  0.24653  0.60230  Biso   1.000  N
  N6       1.0000 0.78936  0.74653  0.89770  Biso   1.000  N
  N7       1.0000 0.78936  0.75347  0.39770  Biso   1.000  N
  N8       1.0000 0.21064  0.25347  0.10230  Biso   1.000  N
  C81      1.0000 0.13780  0.29700  0.51960  Biso   1.000  C
  C82      1.0000 0.86220  0.79700  0.98040  Biso   1.000  C
  C83      1.0000 0.86220  0.70300  0.48040  Biso   1.000  C
  C84      1.0000 0.13780  0.20300  0.01960  Biso   1.000  C
  H57      1.0000 0.16040  0.33030  0.46530  Biso   1.000  H
  H58      1.0000 0.83960  0.83030  0.03470  Biso   1.000  H
  H59      1.0000 0.83960  0.66970  0.53470  Biso   1.000  H
  H60      1.0000 0.16040  0.16970  0.96530  Biso   1.000  H
  C85      1.0000 0.03190  0.30260  0.51020  Biso   1.000  C
  C86      1.0000 0.96810  0.80260  0.98980  Biso   1.000  C
  C87      1.0000 0.96810  0.69740  0.48980  Biso   1.000  C
  C88      1.0000 0.03190  0.19740  0.01020  Biso   1.000  C
  H61      1.0000 0.98350  0.33960  0.45080  Biso   1.000  H
  H62      1.0000 0.01650  0.83960  0.04920  Biso   1.000  H
  H63      1.0000 0.01650  0.66040  0.54920  Biso   1.000  H
  H64      1.0000 0.98350  0.16040  0.95080  Biso   1.000  H
  O21      1.0000 0.41935  0.26374  0.78070  Biso   1.000  O
  O22      1.0000 0.58065  0.76374  0.71930  Biso   1.000  O
  O23      1.0000 0.58065  0.73626  0.21930  Biso   1.000  O
  O24      1.0000 0.41935  0.23626  0.28070  Biso   1.000  O
  H65      1.0000 0.45920  0.21810  0.82180  Biso   1.000  H
  H66      1.0000 0.54080  0.71810  0.67820  Biso   1.000  H
  H67      1.0000 0.54080  0.78190  0.17820  Biso   1.000  H
  H68      1.0000 0.45920  0.28190  0.32180  Biso   1.000  H
  H69      1.0000 0.44960  0.31790  0.79140  Biso   1.000  H
  H70      1.0000 0.55040  0.81790  0.70860  Biso   1.000  H
  H71      1.0000 0.55040  0.68210  0.20860  Biso   1.000  H
  H72      1.0000 0.44960  0.18210  0.29140  Biso   1.000  H
  O25      1.0000 0.36172  0.36795  0.51047  Biso   1.000  O
  O26      1.0000 0.63828  0.86795  0.98953  Biso   1.000  O
  O27      1.0000 0.63828  0.63205  0.48953  Biso   1.000  O
  O28      1.0000 0.36172  0.13205  0.01047  Biso   1.000  O
  H73      1.0000 0.33860  0.41650  0.53760  Biso   1.000  H
  H74      1.0000 0.66140  0.91650  0.96240  Biso   1.000  H
  H75      1.0000 0.66140  0.58350  0.46240  Biso   1.000  H
  H76      1.0000 0.33860  0.08350  0.03760  Biso   1.000  H
  H77      1.0000 0.41960  0.38030  0.49130  Biso   1.000  H
  H78      1.0000 0.58040  0.88030  0.00870  Biso   1.000  H
  H79      1.0000 0.58040  0.61970  0.50870  Biso   1.000  H
  H80      1.0000 0.41960  0.11970  0.99130  Biso   1.000  H
  O29      1.0000 0.42844  0.97551  0.73691  Biso   1.000  O
  O30      1.0000 0.57156  0.47551  0.76309  Biso   1.000  O
  O31      1.0000 0.57156  0.02449  0.26309  Biso   1.000  O
  O32      1.0000 0.42844  0.52449  0.23691  Biso   1.000  O
  H81      1.0000 0.38190  0.00540  0.67480  Biso   1.000  H
  H82      1.0000 0.61810  0.50540  0.82520  Biso   1.000  H
  H83      1.0000 0.61810  0.99460  0.32520  Biso   1.000  H
  H84      1.0000 0.38190  0.49460  0.17480  Biso   1.000  H
  H85      1.0000 0.48590  0.97460  0.71410  Biso   1.000  H
  H86      1.0000 0.51410  0.47460  0.78590  Biso   1.000  H
  H87      1.0000 0.51410  0.02540  0.28590  Biso   1.000  H
  H88      1.0000 0.48590  0.52540  0.21410  Biso   1.000  H
  O33      1.0000 0.52177  0.09979  0.91024  Biso   1.000  O
  O34      1.0000 0.47823  0.59979  0.58976  Biso   1.000  O
  O35      1.0000 0.47823  0.90021  0.08976  Biso   1.000  O
  O36      1.0000 0.52177  0.40021  0.41024  Biso   1.000  O
  H89      1.0000 0.59210  0.08610  0.93560  Biso   1.000  H
  H90      1.0000 0.40790  0.58610  0.56440  Biso   1.000  H
  H91      1.0000 0.40790  0.91390  0.06440  Biso   1.000  H
  H92      1.0000 0.59210  0.41390  0.43560  Biso   1.000  H
  H93      1.0000 0.48140  0.05210  0.87780  Biso   1.000  H
  H94      1.0000 0.51860  0.55210  0.62220  Biso   1.000  H
  H95      1.0000 0.51860  0.94790  0.12220  Biso   1.000  H
  H96      1.0000 0.48140  0.44790  0.37780  Biso   1.000  H
