data_image0
_cell_length_a       11.2411
_cell_length_b       16.5043
_cell_length_c       8.4442
_cell_angle_alpha    90
_cell_angle_beta     90
_cell_angle_gamma    90

_symmetry_space_group_name_H-M    "P 1"
_symmetry_int_tables_number       1

loop_
  _symmetry_equiv_pos_as_xyz
  'x, y, z'

loop_
  _atom_site_label
  _atom_site_occupancy
  _atom_site_fract_x
  _atom_site_fract_y
  _atom_site_fract_z
  _atom_site_thermal_displace_type
  _atom_site_B_iso_or_equiv
  _atom_site_type_symbol
  Cu1      1.0000 0.40448  0.75077  0.39170  Biso   1.000  Cu
  Cu2      1.0000 0.59552  0.24923  0.39170  Biso   1.000  Cu
  Cu3      1.0000 0.09552  0.25077  0.60830  Biso   1.000  Cu
  Cu4      1.0000 0.90448  0.74923  0.60830  Biso   1.000  Cu
  O1       1.0000 0.44520  0.80080  0.59640  Biso   1.000  O
  O2       1.0000 0.55480  0.19920  0.59640  Biso   1.000  O
  O3       1.0000 0.05480  0.30080  0.40360  Biso   1.000  O
  O4       1.0000 0.94520  0.69920  0.40360  Biso   1.000  O
  O5       1.0000 0.56130  0.89620  0.69910  Biso   1.000  O
  O6       1.0000 0.43870  0.10380  0.69910  Biso   1.000  O
  O7       1.0000 0.93870  0.39620  0.30090  Biso   1.000  O
  O8       1.0000 0.06130  0.60380  0.30090  Biso   1.000  O
  O9       1.0000 0.76970  0.80605  0.51750  Biso   1.000  O
  O10      1.0000 0.23030  0.19395  0.51750  Biso   1.000  O
  O11      1.0000 0.73030  0.30605  0.48250  Biso   1.000  O
  O12      1.0000 0.26970  0.69395  0.48250  Biso   1.000  O
  O13      1.0000 0.87820  0.91850  0.49990  Biso   1.000  O
  O14      1.0000 0.12180  0.08150  0.49990  Biso   1.000  O
  O15      1.0000 0.62180  0.41850  0.50010  Biso   1.000  O
  O16      1.0000 0.37820  0.58150  0.50010  Biso   1.000  O
  O17      1.0000 0.28560  0.85450  0.31810  Biso   1.000  O
  O18      1.0000 0.71440  0.14550  0.31810  Biso   1.000  O
  O19      1.0000 0.21440  0.35450  0.68190  Biso   1.000  O
  O20      1.0000 0.78560  0.64550  0.68190  Biso   1.000  O
  H1       1.0000 0.25950  0.86030  0.20960  Biso   1.000  H
  H2       1.0000 0.74050  0.13970  0.20960  Biso   1.000  H
  H3       1.0000 0.24050  0.36030  0.79040  Biso   1.000  H
  H4       1.0000 0.75950  0.63970  0.79040  Biso   1.000  H
  H5       1.0000 0.25930  0.89450  0.39480  Biso   1.000  H
  H6       1.0000 0.74070  0.10550  0.39480  Biso   1.000  H
  H7       1.0000 0.24070  0.39450  0.60520  Biso   1.000  H
  H8       1.0000 0.75930  0.60550  0.60520  Biso   1.000  H
  N1       1.0000 0.41550  0.70040  0.17520  Biso   1.000  N
  N2       1.0000 0.58450  0.29960  0.17520  Biso   1.000  N
  N3       1.0000 0.08450  0.20040  0.82480  Biso   1.000  N
  N4       1.0000 0.91550  0.79960  0.82480  Biso   1.000  N
  N5       1.0000 0.55520  0.80430  0.32270  Biso   1.000  N
  N6       1.0000 0.44480  0.19570  0.32270  Biso   1.000  N
  N7       1.0000 0.94480  0.30430  0.67730  Biso   1.000  N
  N8       1.0000 0.05520  0.69570  0.67730  Biso   1.000  N
  H9       1.0000 0.61760  0.77200  0.34950  Biso   1.000  H
  H10      1.0000 0.38240  0.22800  0.34950  Biso   1.000  H
  H11      1.0000 0.88240  0.27200  0.65050  Biso   1.000  H
  H12      1.0000 0.11760  0.72800  0.65050  Biso   1.000  H
  C1       1.0000 0.36200  0.63360  0.12140  Biso   1.000  C
  C2       1.0000 0.63800  0.36640  0.12140  Biso   1.000  C
  C3       1.0000 0.13800  0.13360  0.87860  Biso   1.000  C
  C4       1.0000 0.86200  0.86640  0.87860  Biso   1.000  C
  H13      1.0000 0.30710  0.60750  0.18630  Biso   1.000  H
  H14      1.0000 0.69290  0.39250  0.18630  Biso   1.000  H
  H15      1.0000 0.19290  0.10750  0.81370  Biso   1.000  H
  H16      1.0000 0.80710  0.89250  0.81370  Biso   1.000  H
  C5       1.0000 0.38490  0.60170  0.97350  Biso   1.000  C
  C6       1.0000 0.61510  0.39830  0.97350  Biso   1.000  C
  C7       1.0000 0.11510  0.10170  0.02650  Biso   1.000  C
  C8       1.0000 0.88490  0.89830  0.02650  Biso   1.000  C
  H17      1.0000 0.34650  0.55500  0.93900  Biso   1.000  H
  H18      1.0000 0.65350  0.44500  0.93900  Biso   1.000  H
  H19      1.0000 0.15350  0.05500  0.06100  Biso   1.000  H
  H20      1.0000 0.84650  0.94500  0.06100  Biso   1.000  H
  C9       1.0000 0.46560  0.64060  0.87870  Biso   1.000  C
  C10      1.0000 0.53440  0.35940  0.87870  Biso   1.000  C
  C11      1.0000 0.03440  0.14060  0.12130  Biso   1.000  C
  C12      1.0000 0.96560  0.85940  0.12130  Biso   1.000  C
  H21      1.0000 0.48290  0.62050  0.77840  Biso   1.000  H
  H22      1.0000 0.51710  0.37950  0.77840  Biso   1.000  H
  H23      1.0000 0.01710  0.12050  0.22160  Biso   1.000  H
  H24      1.0000 0.98290  0.87950  0.22160  Biso   1.000  H
  C13      1.0000 0.52060  0.70940  0.93300  Biso   1.000  C
  C14      1.0000 0.47940  0.29060  0.93300  Biso   1.000  C
  C15      1.0000 0.97940  0.20940  0.06700  Biso   1.000  C
  C16      1.0000 0.02060  0.79060  0.06700  Biso   1.000  C
  H25      1.0000 0.57520  0.73640  0.86930  Biso   1.000  H
  H26      1.0000 0.42480  0.26360  0.86930  Biso   1.000  H
  H27      1.0000 0.92480  0.23640  0.13070  Biso   1.000  H
  H28      1.0000 0.07520  0.76360  0.13070  Biso   1.000  H
  C17      1.0000 0.49490  0.73820  0.08070  Biso   1.000  C
  C18      1.0000 0.50510  0.26180  0.08070  Biso   1.000  C
  C19      1.0000 0.00510  0.23820  0.91930  Biso   1.000  C
  C20      1.0000 0.99490  0.76180  0.91930  Biso   1.000  C
  C21      1.0000 0.55200  0.81290  0.14900  Biso   1.000  C
  C22      1.0000 0.44800  0.18710  0.14900  Biso   1.000  C
  C23      1.0000 0.94800  0.31290  0.85100  Biso   1.000  C
  C24      1.0000 0.05200  0.68710  0.85100  Biso   1.000  C
  H29      1.0000 0.63210  0.81900  0.10800  Biso   1.000  H
  H30      1.0000 0.36790  0.18100  0.10800  Biso   1.000  H
  H31      1.0000 0.86790  0.31900  0.89200  Biso   1.000  H
  H32      1.0000 0.13210  0.68100  0.89200  Biso   1.000  H
  H33      1.0000 0.50650  0.86060  0.11990  Biso   1.000  H
  H34      1.0000 0.49350  0.13940  0.11990  Biso   1.000  H
  H35      1.0000 0.99350  0.36060  0.88010  Biso   1.000  H
  H36      1.0000 0.00650  0.63940  0.88010  Biso   1.000  H
  C25      1.0000 0.56150  0.87930  0.41650  Biso   1.000  C
  C26      1.0000 0.43850  0.12070  0.41650  Biso   1.000  C
  C27      1.0000 0.93850  0.37930  0.58350  Biso   1.000  C
  C28      1.0000 0.06150  0.62070  0.58350  Biso   1.000  C
  H37      1.0000 0.50110  0.91600  0.37360  Biso   1.000  H
  H38      1.0000 0.49890  0.08400  0.37360  Biso   1.000  H
  H39      1.0000 0.99890  0.41600  0.62640  Biso   1.000  H
  H40      1.0000 0.00110  0.58400  0.62640  Biso   1.000  H
  C29      1.0000 0.52200  0.85760  0.58680  Biso   1.000  C
  C30      1.0000 0.47800  0.14240  0.58680  Biso   1.000  C
  C31      1.0000 0.97800  0.35760  0.41320  Biso   1.000  C
  C32      1.0000 0.02200  0.64240  0.41320  Biso   1.000  C
  C33      1.0000 0.68010  0.92460  0.40930  Biso   1.000  C
  C34      1.0000 0.31990  0.07540  0.40930  Biso   1.000  C
  C35      1.0000 0.81990  0.42460  0.59070  Biso   1.000  C
  C36      1.0000 0.18010  0.57540  0.59070  Biso   1.000  C
  H41      1.0000 0.69890  0.93540  0.29920  Biso   1.000  H
  H42      1.0000 0.30110  0.06460  0.29920  Biso   1.000  H
  H43      1.0000 0.80110  0.43540  0.70080  Biso   1.000  H
  H44      1.0000 0.19890  0.56460  0.70080  Biso   1.000  H
  H45      1.0000 0.67070  0.97640  0.46210  Biso   1.000  H
  H46      1.0000 0.32930  0.02360  0.46210  Biso   1.000  H
  H47      1.0000 0.82930  0.47640  0.53790  Biso   1.000  H
  H48      1.0000 0.17070  0.52360  0.53790  Biso   1.000  H
  C37      1.0000 0.78330  0.88090  0.48280  Biso   1.000  C
  C38      1.0000 0.21670  0.11910  0.48280  Biso   1.000  C
  C39      1.0000 0.71670  0.38090  0.51720  Biso   1.000  C
  C40      1.0000 0.28330  0.61910  0.51720  Biso   1.000  C
  O21      1.0000 0.61690  0.58410  0.47020  Biso   1.000  O
  O22      1.0000 0.38310  0.41590  0.47020  Biso   1.000  O
  O23      1.0000 0.88310  0.08410  0.52980  Biso   1.000  O
  O24      1.0000 0.11690  0.91590  0.52980  Biso   1.000  O
  H49      1.0000 0.66740  0.61780  0.53340  Biso   1.000  H
  H50      1.0000 0.33260  0.38220  0.53340  Biso   1.000  H
  H51      1.0000 0.83260  0.11780  0.46660  Biso   1.000  H
  H52      1.0000 0.16740  0.88220  0.46660  Biso   1.000  H
  H53      1.0000 0.65110  0.54800  0.39300  Biso   1.000  H
  H54      1.0000 0.34890  0.45200  0.39300  Biso   1.000  H
  H55      1.0000 0.84890  0.04800  0.60700  Biso   1.000  H
  H56      1.0000 0.15110  0.95200  0.60700  Biso   1.000  H
  O25      1.0000 0.00000  0.50000  0.07210  Biso   1.000  O
  O26      1.0000 0.50000  0.00000  0.92790  Biso   1.000  O
  O27      1.0000 0.78240  0.57250  0.97110  Biso   1.000  O
  O28      1.0000 0.21760  0.42750  0.97110  Biso   1.000  O
  O29      1.0000 0.71760  0.07250  0.02890  Biso   1.000  O
  O30      1.0000 0.28240  0.92750  0.02890  Biso   1.000  O
  H57      1.0000 0.83590  0.57480  0.88160  Biso   1.000  H
  H58      1.0000 0.16410  0.42520  0.88160  Biso   1.000  H
  H59      1.0000 0.66410  0.07480  0.11840  Biso   1.000  H
  H60      1.0000 0.33590  0.92520  0.11840  Biso   1.000  H
  H61      1.0000 0.81510  0.56460  0.07550  Biso   1.000  H
  H62      1.0000 0.18490  0.43540  0.07550  Biso   1.000  H
  H63      1.0000 0.68490  0.06460  0.92450  Biso   1.000  H
  H64      1.0000 0.31510  0.93540  0.92450  Biso   1.000  H
  O31      1.0000 0.73390  0.67010  0.23280  Biso   1.000  O
  O32      1.0000 0.26610  0.32990  0.23280  Biso   1.000  O
  O33      1.0000 0.76610  0.17010  0.76720  Biso   1.000  O
  O34      1.0000 0.23390  0.82990  0.76720  Biso   1.000  O
  H65      1.0000 0.75890  0.61700  0.19610  Biso   1.000  H
  H66      1.0000 0.24110  0.38300  0.19610  Biso   1.000  H
  H67      1.0000 0.74110  0.11700  0.80390  Biso   1.000  H
  H68      1.0000 0.25890  0.88300  0.80390  Biso   1.000  H
  H69      1.0000 0.78690  0.71540  0.21710  Biso   1.000  H
  H70      1.0000 0.21310  0.28460  0.21710  Biso   1.000  H
  H71      1.0000 0.71310  0.21540  0.78290  Biso   1.000  H
  H72      1.0000 0.28690  0.78460  0.78290  Biso   1.000  H
  H73      1.0000 0.91930  0.48150  0.06280  Biso   1.000  H
  H74      1.0000 0.08070  0.51850  0.06280  Biso   1.000  H
  H75      1.0000 0.58070  0.98150  0.93720  Biso   1.000  H
  H76      1.0000 0.41930  0.01850  0.93720  Biso   1.000  H
  H77      1.0000 0.05870  0.48120  0.99710  Biso   1.000  H
  H78      1.0000 0.94130  0.51880  0.99710  Biso   1.000  H
  H79      1.0000 0.44130  0.98120  0.00290  Biso   1.000  H
  H80      1.0000 0.55870  0.01880  0.00290  Biso   1.000  H
