data_image0
_cell_length_a       10.3787
_cell_length_b       6.613
_cell_length_c       16.8336
_cell_angle_alpha    90
_cell_angle_beta     103.344
_cell_angle_gamma    90

_symmetry_space_group_name_H-M    "P 1"
_symmetry_int_tables_number       1

loop_
  _symmetry_equiv_pos_as_xyz
  'x, y, z'

loop_
  _atom_site_label
  _atom_site_occupancy
  _atom_site_fract_x
  _atom_site_fract_y
  _atom_site_fract_z
  _atom_site_thermal_displace_type
  _atom_site_B_iso_or_equiv
  _atom_site_type_symbol
  Cu1      1.0000 0.19084  0.99601  0.48872  Biso   1.000  Cu
  Cu2      1.0000 0.80916  0.49601  0.51128  Biso   1.000  Cu
  Cu3      1.0000 0.16394  0.55092  0.99284  Biso   1.000  Cu
  Cu4      1.0000 0.83606  0.05092  0.00716  Biso   1.000  Cu
  Cl1      1.0000 0.98254  0.87834  0.44132  Biso   1.000  Cl
  Cl2      1.0000 0.01746  0.37834  0.55868  Biso   1.000  Cl
  Cl3      1.0000 0.96012  0.41423  0.94819  Biso   1.000  Cl
  Cl4      1.0000 0.03988  0.91423  0.05181  Biso   1.000  Cl
  O1       1.0000 0.52070  0.63820  0.12894  Biso   1.000  O
  O2       1.0000 0.47930  0.13820  0.87106  Biso   1.000  O
  O3       1.0000 0.32600  0.69530  0.04503  Biso   1.000  O
  O4       1.0000 0.67400  0.19530  0.95497  Biso   1.000  O
  O5       1.0000 0.33590  0.28290  0.97640  Biso   1.000  O
  O6       1.0000 0.66410  0.78290  0.02360  Biso   1.000  O
  H1       1.0000 0.37880  0.23960  0.94480  Biso   1.000  H
  H2       1.0000 0.62120  0.73960  0.05520  Biso   1.000  H
  O7       1.0000 0.53970  0.05470  0.63717  Biso   1.000  O
  O8       1.0000 0.46030  0.55470  0.36283  Biso   1.000  O
  O9       1.0000 0.35470  0.13140  0.54728  Biso   1.000  O
  O10      1.0000 0.64530  0.63140  0.45272  Biso   1.000  O
  O11      1.0000 0.33660  0.72580  0.47376  Biso   1.000  O
  O12      1.0000 0.66340  0.22580  0.52624  Biso   1.000  O
  H3       1.0000 0.37400  0.67430  0.44080  Biso   1.000  H
  H4       1.0000 0.62600  0.17430  0.55920  Biso   1.000  H
  O13      1.0000 0.51940  0.90920  0.26060  Biso   1.000  O
  O14      1.0000 0.48060  0.40920  0.73940  Biso   1.000  O
  H5       1.0000 0.45900  0.82800  0.25500  Biso   1.000  H
  H6       1.0000 0.54100  0.32800  0.74500  Biso   1.000  H
  H7       1.0000 0.51700  0.06700  0.24100  Biso   1.000  H
  H8       1.0000 0.48300  0.56700  0.75900  Biso   1.000  H
  N1       1.0000 0.19350  0.14860  0.38727  Biso   1.000  N
  N2       1.0000 0.80650  0.64860  0.61273  Biso   1.000  N
  N3       1.0000 0.21030  0.38640  0.09684  Biso   1.000  N
  N4       1.0000 0.78970  0.88640  0.90316  Biso   1.000  N
  H9       1.0000 0.17760  0.25890  0.08700  Biso   1.000  H
  H10      1.0000 0.82240  0.75890  0.91300  Biso   1.000  H
  N5       1.0000 0.16600  0.67830  0.88662  Biso   1.000  N
  N6       1.0000 0.83400  0.17830  0.11338  Biso   1.000  N
  N7       1.0000 0.21950  0.84160  0.59460  Biso   1.000  N
  N8       1.0000 0.78050  0.34160  0.40540  Biso   1.000  N
  H11      1.0000 0.17720  0.72020  0.58650  Biso   1.000  H
  H12      1.0000 0.82280  0.22020  0.41350  Biso   1.000  H
  C1       1.0000 0.16430  0.34570  0.38100  Biso   1.000  C
  C2       1.0000 0.83570  0.84570  0.61900  Biso   1.000  C
  H13      1.0000 0.14980  0.41350  0.42650  Biso   1.000  H
  H14      1.0000 0.85020  0.91350  0.57350  Biso   1.000  H
  C3       1.0000 0.15470  0.45160  0.30980  Biso   1.000  C
  C4       1.0000 0.84530  0.95160  0.69020  Biso   1.000  C
  H15      1.0000 0.13270  0.58810  0.30750  Biso   1.000  H
  H16      1.0000 0.86730  0.08810  0.69250  Biso   1.000  H
  C5       1.0000 0.17770  0.35600  0.24167  Biso   1.000  C
  C6       1.0000 0.82230  0.85600  0.75833  Biso   1.000  C
  C7       1.0000 0.21230  0.15400  0.24820  Biso   1.000  C
  C8       1.0000 0.78770  0.65400  0.75180  Biso   1.000  C
  H17      1.0000 0.23010  0.08400  0.20410  Biso   1.000  H
  H18      1.0000 0.76990  0.58400  0.79590  Biso   1.000  H
  C9       1.0000 0.21980  0.05830  0.32230  Biso   1.000  C
  C10      1.0000 0.78020  0.55830  0.67770  Biso   1.000  C
  H19      1.0000 0.24470  0.92290  0.32680  Biso   1.000  H
  H20      1.0000 0.75530  0.42290  0.67320  Biso   1.000  H
  C11      1.0000 0.16080  0.47660  0.16335  Biso   1.000  C
  C12      1.0000 0.83920  0.97660  0.83665  Biso   1.000  C
  H21      1.0000 0.12050  0.60300  0.15780  Biso   1.000  H
  H22      1.0000 0.87950  0.10300  0.84220  Biso   1.000  H
  C13      1.0000 0.35730  0.38090  0.11430  Biso   1.000  C
  C14      1.0000 0.64270  0.88090  0.88570  Biso   1.000  C
  H23      1.0000 0.39400  0.34500  0.17160  Biso   1.000  H
  H24      1.0000 0.60600  0.84500  0.82840  Biso   1.000  H
  C15      1.0000 0.40560  0.58670  0.09590  Biso   1.000  C
  C16      1.0000 0.59440  0.08670  0.90410  Biso   1.000  C
  C17      1.0000 0.40000  0.22790  0.05800  Biso   1.000  C
  C18      1.0000 0.60000  0.72790  0.94200  Biso   1.000  C
  H25      1.0000 0.49540  0.23080  0.06490  Biso   1.000  H
  H26      1.0000 0.50460  0.73080  0.93510  Biso   1.000  H
  H27      1.0000 0.37410  0.09250  0.07010  Biso   1.000  H
  H28      1.0000 0.62590  0.59250  0.92990  Biso   1.000  H
  C19      1.0000 0.19540  0.87480  0.88170  Biso   1.000  C
  C20      1.0000 0.80460  0.37480  0.11830  Biso   1.000  C
  H29      1.0000 0.21150  0.95380  0.92860  Biso   1.000  H
  H30      1.0000 0.78850  0.45380  0.07140  Biso   1.000  H
  C21      1.0000 0.20230  0.96230  0.80790  Biso   1.000  C
  C22      1.0000 0.79770  0.46230  0.19210  Biso   1.000  C
  H31      1.0000 0.22330  0.09870  0.80620  Biso   1.000  H
  H32      1.0000 0.77670  0.59870  0.19380  Biso   1.000  H
  C23      1.0000 0.17870  0.85100  0.73780  Biso   1.000  C
  C24      1.0000 0.82130  0.35100  0.26220  Biso   1.000  C
  C25      1.0000 0.15210  0.64680  0.74360  Biso   1.000  C
  C26      1.0000 0.84790  0.14680  0.25640  Biso   1.000  C
  H33      1.0000 0.13890  0.56370  0.69780  Biso   1.000  H
  H34      1.0000 0.86110  0.06370  0.30220  Biso   1.000  H
  C27      1.0000 0.14550  0.56910  0.81900  Biso   1.000  C
  C28      1.0000 0.85450  0.06910  0.18100  Biso   1.000  C
  H35      1.0000 0.12550  0.43270  0.82230  Biso   1.000  H
  H36      1.0000 0.87450  0.93270  0.17770  Biso   1.000  H
  C29      1.0000 0.17600  0.95640  0.65800  Biso   1.000  C
  C30      1.0000 0.82400  0.45640  0.34200  Biso   1.000  C
  H37      1.0000 0.14780  0.08980  0.64930  Biso   1.000  H
  H38      1.0000 0.85220  0.58980  0.35070  Biso   1.000  H
  C31      1.0000 0.36500  0.81190  0.61390  Biso   1.000  C
  C32      1.0000 0.63500  0.31190  0.38610  Biso   1.000  C
  H39      1.0000 0.39730  0.76730  0.67050  Biso   1.000  H
  H40      1.0000 0.60270  0.26730  0.32950  Biso   1.000  H
  C33      1.0000 0.42540  0.01140  0.59990  Biso   1.000  C
  C34      1.0000 0.57460  0.51140  0.40010  Biso   1.000  C
  C35      1.0000 0.39860  0.65760  0.55480  Biso   1.000  C
  C36      1.0000 0.60140  0.15760  0.44520  Biso   1.000  C
  H41      1.0000 0.49370  0.64840  0.56140  Biso   1.000  H
  H42      1.0000 0.50630  0.14840  0.43860  Biso   1.000  H
  H43      1.0000 0.36520  0.52520  0.56480  Biso   1.000  H
  H44      1.0000 0.63480  0.02520  0.43520  Biso   1.000  H
