data_image0
_cell_length_a       10.72
_cell_length_b       19.18
_cell_length_c       13.04
_cell_angle_alpha    90
_cell_angle_beta     97.59
_cell_angle_gamma    90

_symmetry_space_group_name_H-M    "P 1"
_symmetry_int_tables_number       1

loop_
  _symmetry_equiv_pos_as_xyz
  'x, y, z'

loop_
  _atom_site_label
  _atom_site_occupancy
  _atom_site_fract_x
  _atom_site_fract_y
  _atom_site_fract_z
  _atom_site_thermal_displace_type
  _atom_site_B_iso_or_equiv
  _atom_site_type_symbol
  Cu1      1.0000 0.47903  0.43190  0.19013  Biso   1.000  Cu
  Cu2      1.0000 0.52097  0.93190  0.80987  Biso   1.000  Cu
  Cu3      1.0000 0.99024  0.65115  0.69568  Biso   1.000  Cu
  Cu4      1.0000 0.00976  0.15115  0.30432  Biso   1.000  Cu
  S1       1.0000 0.92220  0.61950  0.94850  Biso   1.000  S
  S2       1.0000 0.07780  0.11950  0.05150  Biso   1.000  S
  S3       1.0000 0.36430  0.41880  0.43300  Biso   1.000  S
  S4       1.0000 0.63570  0.91880  0.56700  Biso   1.000  S
  O1       1.0000 0.33690  0.42520  0.08440  Biso   1.000  O
  O2       1.0000 0.66310  0.92520  0.91560  Biso   1.000  O
  O3       1.0000 0.96120  0.68740  0.98120  Biso   1.000  O
  O4       1.0000 0.03880  0.18740  0.01880  Biso   1.000  O
  O5       1.0000 0.88690  0.60740  0.83970  Biso   1.000  O
  O6       1.0000 0.11310  0.10740  0.16030  Biso   1.000  O
  O7       1.0000 0.51440  0.53030  0.17610  Biso   1.000  O
  O8       1.0000 0.48560  0.03030  0.82390  Biso   1.000  O
  O9       1.0000 0.99300  0.55440  0.66010  Biso   1.000  O
  O10      1.0000 0.00700  0.05440  0.33990  Biso   1.000  O
  O11      1.0000 0.82970  0.46440  0.71760  Biso   1.000  O
  O12      1.0000 0.17030  0.96440  0.28240  Biso   1.000  O
  O13      1.0000 0.37150  0.45460  0.33650  Biso   1.000  O
  O14      1.0000 0.62850  0.95460  0.66350  Biso   1.000  O
  O15      1.0000 0.34210  0.34530  0.42890  Biso   1.000  O
  O16      1.0000 0.65790  0.84530  0.57110  Biso   1.000  O
  O17      1.0000 0.83180  0.66350  0.60950  Biso   1.000  O
  O18      1.0000 0.16820  0.16350  0.39050  Biso   1.000  O
  O19      1.0000 0.94790  0.70700  0.49650  Biso   1.000  O
  O20      1.0000 0.05210  0.20700  0.50350  Biso   1.000  O
  O21      1.0000 0.93900  0.78900  0.32450  Biso   1.000  O
  O22      1.0000 0.06100  0.28900  0.67550  Biso   1.000  O
  O23      1.0000 0.44530  0.61790  0.33870  Biso   1.000  O
  O24      1.0000 0.55470  0.11790  0.66130  Biso   1.000  O
  O25      1.0000 0.41080  0.33110  0.93000  Biso   1.000  O
  O26      1.0000 0.58920  0.83110  0.07000  Biso   1.000  O
  N1       1.0000 0.46120  0.32630  0.21470  Biso   1.000  N
  N2       1.0000 0.53880  0.82630  0.78530  Biso   1.000  N
  N3       1.0000 0.64610  0.41450  0.28320  Biso   1.000  N
  N4       1.0000 0.35390  0.91450  0.71680  Biso   1.000  N
  N5       1.0000 0.99720  0.74990  0.74350  Biso   1.000  N
  N6       1.0000 0.00280  0.24990  0.25650  Biso   1.000  N
  N7       1.0000 0.16120  0.65150  0.78600  Biso   1.000  N
  N8       1.0000 0.83880  0.15150  0.21400  Biso   1.000  N
  C1       1.0000 0.24430  0.47020  0.05690  Biso   1.000  C
  C2       1.0000 0.75570  0.97020  0.94310  Biso   1.000  C
  C3       1.0000 0.22010  0.53210  0.11450  Biso   1.000  C
  C4       1.0000 0.77990  0.03210  0.88550  Biso   1.000  C
  C5       1.0000 0.12370  0.57450  0.08450  Biso   1.000  C
  C6       1.0000 0.87630  0.07450  0.91550  Biso   1.000  C
  C7       1.0000 0.04190  0.55990  0.99050  Biso   1.000  C
  C8       1.0000 0.95810  0.05990  0.00950  Biso   1.000  C
  C9       1.0000 0.06050  0.50070  0.93780  Biso   1.000  C
  C10      1.0000 0.93950  0.00070  0.06220  Biso   1.000  C
  C11      1.0000 0.15860  0.45560  0.96890  Biso   1.000  C
  C12      1.0000 0.84140  0.95560  0.03110  Biso   1.000  C
  C13      1.0000 0.60110  0.55110  0.12300  Biso   1.000  C
  C14      1.0000 0.39890  0.05110  0.87700  Biso   1.000  C
  C15      1.0000 0.67120  0.61380  0.14990  Biso   1.000  C
  C16      1.0000 0.32880  0.11380  0.85010  Biso   1.000  C
  C17      1.0000 0.76700  0.63500  0.09350  Biso   1.000  C
  C18      1.0000 0.23300  0.13500  0.90650  Biso   1.000  C
  C19      1.0000 0.79370  0.59800  0.00800  Biso   1.000  C
  C20      1.0000 0.20630  0.09800  0.99200  Biso   1.000  C
  C21      1.0000 0.71970  0.53960  0.97870  Biso   1.000  C
  C22      1.0000 0.28030  0.03960  0.02130  Biso   1.000  C
  C23      1.0000 0.62850  0.51770  0.03340  Biso   1.000  C
  C24      1.0000 0.37150  0.01770  0.96660  Biso   1.000  C
  C25      1.0000 0.36620  0.28550  0.17670  Biso   1.000  C
  C26      1.0000 0.63380  0.78550  0.82330  Biso   1.000  C
  C27      1.0000 0.35500  0.21810  0.21570  Biso   1.000  C
  C28      1.0000 0.64500  0.71810  0.78430  Biso   1.000  C
  C29      1.0000 0.44900  0.19420  0.28590  Biso   1.000  C
  C30      1.0000 0.55100  0.69420  0.71410  Biso   1.000  C
  C31      1.0000 0.55100  0.23380  0.32430  Biso   1.000  C
  C32      1.0000 0.44900  0.73380  0.67570  Biso   1.000  C
  C33      1.0000 0.55370  0.30210  0.28650  Biso   1.000  C
  C34      1.0000 0.44630  0.80210  0.71350  Biso   1.000  C
  C35      1.0000 0.73600  0.45650  0.31460  Biso   1.000  C
  C36      1.0000 0.26400  0.95650  0.68540  Biso   1.000  C
  C37      1.0000 0.83900  0.43700  0.38670  Biso   1.000  C
  C38      1.0000 0.16100  0.93700  0.61330  Biso   1.000  C
  C39      1.0000 0.84620  0.37130  0.42430  Biso   1.000  C
  C40      1.0000 0.15380  0.87130  0.57570  Biso   1.000  C
  C41      1.0000 0.75200  0.32420  0.39480  Biso   1.000  C
  C42      1.0000 0.24800  0.82420  0.60520  Biso   1.000  C
  C43      1.0000 0.65180  0.34720  0.32040  Biso   1.000  C
  C44      1.0000 0.34820  0.84720  0.67960  Biso   1.000  C
  C45      1.0000 0.65500  0.21500  0.40130  Biso   1.000  C
  C46      1.0000 0.34500  0.71500  0.59870  Biso   1.000  C
  C47      1.0000 0.75100  0.25290  0.43110  Biso   1.000  C
  C48      1.0000 0.24900  0.75290  0.56890  Biso   1.000  C
  C49      1.0000 0.07370  0.52490  0.60050  Biso   1.000  C
  C50      1.0000 0.92630  0.02490  0.39950  Biso   1.000  C
  C51      1.0000 0.09700  0.45280  0.61130  Biso   1.000  C
  C52      1.0000 0.90300  0.95280  0.38870  Biso   1.000  C
  C53      1.0000 0.18090  0.42080  0.55910  Biso   1.000  C
  C54      1.0000 0.81910  0.92080  0.44090  Biso   1.000  C
  C55      1.0000 0.24530  0.45830  0.49190  Biso   1.000  C
  C56      1.0000 0.75470  0.95830  0.50810  Biso   1.000  C
  C57      1.0000 0.21840  0.53010  0.47770  Biso   1.000  C
  C58      1.0000 0.78160  0.03010  0.52230  Biso   1.000  C
  C59      1.0000 0.12900  0.56330  0.52990  Biso   1.000  C
  C60      1.0000 0.87100  0.06330  0.47010  Biso   1.000  C
  C61      1.0000 0.71910  0.45550  0.64850  Biso   1.000  C
  C62      1.0000 0.28090  0.95550  0.35150  Biso   1.000  C
  C63      1.0000 0.66300  0.39190  0.64830  Biso   1.000  C
  C64      1.0000 0.33700  0.89190  0.35170  Biso   1.000  C
  C65      1.0000 0.55400  0.37890  0.57990  Biso   1.000  C
  C66      1.0000 0.44600  0.87890  0.42010  Biso   1.000  C
  C67      1.0000 0.50370  0.43060  0.51890  Biso   1.000  C
  C68      1.0000 0.49630  0.93060  0.48110  Biso   1.000  C
  C69      1.0000 0.56300  0.49970  0.51880  Biso   1.000  C
  C70      1.0000 0.43700  0.99970  0.48120  Biso   1.000  C
  C71      1.0000 0.66970  0.50990  0.58630  Biso   1.000  C
  C72      1.0000 0.33030  0.00990  0.41370  Biso   1.000  C
  C73      1.0000 0.90760  0.79950  0.71960  Biso   1.000  C
  C74      1.0000 0.09240  0.29950  0.28040  Biso   1.000  C
  C75      1.0000 0.92000  0.86720  0.76770  Biso   1.000  C
  C76      1.0000 0.08000  0.36720  0.23230  Biso   1.000  C
  C77      1.0000 0.02400  0.88030  0.84000  Biso   1.000  C
  C78      1.0000 0.97600  0.38030  0.16000  Biso   1.000  C
  C79      1.0000 0.11600  0.82930  0.86280  Biso   1.000  C
  C80      1.0000 0.88400  0.32930  0.13720  Biso   1.000  C
  C81      1.0000 0.09800  0.76540  0.81330  Biso   1.000  C
  C82      1.0000 0.90200  0.26540  0.18670  Biso   1.000  C
  C83      1.0000 0.24280  0.59890  0.80650  Biso   1.000  C
  C84      1.0000 0.75720  0.09890  0.19350  Biso   1.000  C
  C85      1.0000 0.35100  0.60810  0.87990  Biso   1.000  C
  C86      1.0000 0.64900  0.10810  0.12010  Biso   1.000  C
  C87      1.0000 0.37900  0.66650  0.92500  Biso   1.000  C
  C88      1.0000 0.62100  0.16650  0.07500  Biso   1.000  C
  C89      1.0000 0.29510  0.72130  0.90650  Biso   1.000  C
  C90      1.0000 0.70490  0.22130  0.09350  Biso   1.000  C
  C91      1.0000 0.18690  0.71080  0.83540  Biso   1.000  C
  C92      1.0000 0.81310  0.21080  0.16460  Biso   1.000  C
  C93      1.0000 0.23100  0.83520  0.93610  Biso   1.000  C
  C94      1.0000 0.76900  0.33520  0.06390  Biso   1.000  C
  C95      1.0000 0.31400  0.78500  0.95500  Biso   1.000  C
  C96      1.0000 0.68600  0.28500  0.04500  Biso   1.000  C
  C97      1.0000 0.84300  0.68840  0.51950  Biso   1.000  C
  C98      1.0000 0.15700  0.18840  0.48050  Biso   1.000  C
  C99      1.0000 0.72400  0.69430  0.44390  Biso   1.000  C
  C100     1.0000 0.27600  0.19430  0.55610  Biso   1.000  C
  C101     1.0000 0.02980  0.76750  0.26900  Biso   1.000  C
  C102     1.0000 0.97020  0.26750  0.73100  Biso   1.000  C
  C103     1.0000 0.03900  0.80290  0.17100  Biso   1.000  C
  C104     1.0000 0.96100  0.30290  0.82900  Biso   1.000  C
  C105     1.0000 0.37450  0.67540  0.30760  Biso   1.000  C
  C106     1.0000 0.62550  0.17540  0.69240  Biso   1.000  C
  C107     1.0000 0.37070  0.70320  0.20940  Biso   1.000  C
  C108     1.0000 0.62930  0.20320  0.79060  Biso   1.000  C
  C109     1.0000 0.37840  0.35600  0.83000  Biso   1.000  C
  C110     1.0000 0.62160  0.85600  0.17000  Biso   1.000  C
  C111     1.0000 0.40520  0.43150  0.80380  Biso   1.000  C
  C112     1.0000 0.59480  0.93150  0.19620  Biso   1.000  C
  H1       1.0000 0.27480  0.54290  0.17580  Biso   1.000  H
  H2       1.0000 0.72520  0.04290  0.82420  Biso   1.000  H
  H3       1.0000 0.10920  0.61410  0.12500  Biso   1.000  H
  H4       1.0000 0.89080  0.11410  0.87500  Biso   1.000  H
  H5       1.0000 0.00410  0.48990  0.87740  Biso   1.000  H
  H6       1.0000 0.99590  0.98990  0.12260  Biso   1.000  H
  H7       1.0000 0.16800  0.41430  0.93040  Biso   1.000  H
  H8       1.0000 0.83200  0.91430  0.06960  Biso   1.000  H
  H9       1.0000 0.65230  0.64110  0.20660  Biso   1.000  H
  H10      1.0000 0.34770  0.14110  0.79340  Biso   1.000  H
  H11      1.0000 0.81450  0.67560  0.11430  Biso   1.000  H
  H12      1.0000 0.18550  0.17560  0.88570  Biso   1.000  H
  H13      1.0000 0.73400  0.51450  0.91860  Biso   1.000  H
  H14      1.0000 0.26600  0.01450  0.08140  Biso   1.000  H
  H15      1.0000 0.58080  0.47770  0.00980  Biso   1.000  H
  H16      1.0000 0.41920  0.97770  0.99020  Biso   1.000  H
  H17      1.0000 0.30540  0.30210  0.12260  Biso   1.000  H
  H18      1.0000 0.69460  0.80210  0.87740  Biso   1.000  H
  H19      1.0000 0.28340  0.19010  0.19340  Biso   1.000  H
  H20      1.0000 0.71660  0.69010  0.80660  Biso   1.000  H
  H21      1.0000 0.44440  0.14760  0.30990  Biso   1.000  H
  H22      1.0000 0.55560  0.64760  0.69010  Biso   1.000  H
  H23      1.0000 0.73300  0.50260  0.28790  Biso   1.000  H
  H24      1.0000 0.26700  0.00260  0.71210  Biso   1.000  H
  H25      1.0000 0.90320  0.46980  0.40900  Biso   1.000  H
  H26      1.0000 0.09680  0.96980  0.59100  Biso   1.000  H
  H27      1.0000 0.91710  0.35770  0.47160  Biso   1.000  H
  H28      1.0000 0.08290  0.85770  0.52840  Biso   1.000  H
  H29      1.0000 0.65200  0.17040  0.43260  Biso   1.000  H
  H30      1.0000 0.34800  0.67040  0.56740  Biso   1.000  H
  H31      1.0000 0.82040  0.23460  0.47600  Biso   1.000  H
  H32      1.0000 0.17960  0.73460  0.52400  Biso   1.000  H
  H33      1.0000 0.05220  0.42630  0.65610  Biso   1.000  H
  H34      1.0000 0.94780  0.92630  0.34390  Biso   1.000  H
  H35      1.0000 0.19620  0.37230  0.56840  Biso   1.000  H
  H36      1.0000 0.80380  0.87230  0.43160  Biso   1.000  H
  H37      1.0000 0.26180  0.55630  0.43160  Biso   1.000  H
  H38      1.0000 0.73820  0.05630  0.56840  Biso   1.000  H
  H39      1.0000 0.10790  0.61090  0.51710  Biso   1.000  H
  H40      1.0000 0.89210  0.11090  0.48290  Biso   1.000  H
  H41      1.0000 0.69710  0.35650  0.69470  Biso   1.000  H
  H42      1.0000 0.30290  0.85650  0.30530  Biso   1.000  H
  H43      1.0000 0.51680  0.33400  0.57640  Biso   1.000  H
  H44      1.0000 0.48320  0.83400  0.42360  Biso   1.000  H
  H45      1.0000 0.52820  0.53570  0.47380  Biso   1.000  H
  H46      1.0000 0.47180  0.03570  0.52620  Biso   1.000  H
  H47      1.0000 0.71000  0.55410  0.59060  Biso   1.000  H
  H48      1.0000 0.29000  0.05410  0.40940  Biso   1.000  H
  H49      1.0000 0.83610  0.78950  0.67060  Biso   1.000  H
  H50      1.0000 0.16390  0.28950  0.32940  Biso   1.000  H
  H51      1.0000 0.85800  0.90210  0.75040  Biso   1.000  H
  H52      1.0000 0.14200  0.40210  0.24960  Biso   1.000  H
  H53      1.0000 0.03330  0.92430  0.87340  Biso   1.000  H
  H54      1.0000 0.96670  0.42430  0.12660  Biso   1.000  H
  H55      1.0000 0.22820  0.55560  0.77170  Biso   1.000  H
  H56      1.0000 0.77180  0.05560  0.22830  Biso   1.000  H
  H57      1.0000 0.40440  0.56920  0.89670  Biso   1.000  H
  H58      1.0000 0.59560  0.06920  0.10330  Biso   1.000  H
  H59      1.0000 0.45590  0.67200  0.96990  Biso   1.000  H
  H60      1.0000 0.54410  0.17200  0.03010  Biso   1.000  H
  H61      1.0000 0.24670  0.87800  0.97230  Biso   1.000  H
  H62      1.0000 0.75330  0.37800  0.02770  Biso   1.000  H
  H63      1.0000 0.38830  0.79260  0.00260  Biso   1.000  H
  H64      1.0000 0.61170  0.29260  0.99740  Biso   1.000  H
  H65      1.0000 0.10830  0.77320  0.31140  Biso   1.000  H
  H66      1.0000 0.89170  0.27320  0.68860  Biso   1.000  H
  H67      1.0000 0.01570  0.71950  0.25420  Biso   1.000  H
  H68      1.0000 0.98430  0.21950  0.74580  Biso   1.000  H
  H69      1.0000 0.06870  0.84910  0.18430  Biso   1.000  H
  H70      1.0000 0.93130  0.34910  0.81570  Biso   1.000  H
  H71      1.0000 0.09590  0.77830  0.13420  Biso   1.000  H
  H72      1.0000 0.90410  0.27830  0.86580  Biso   1.000  H
  H73      1.0000 0.95830  0.80430  0.13090  Biso   1.000  H
  H74      1.0000 0.04170  0.30430  0.86910  Biso   1.000  H
  H75      1.0000 0.29000  0.66400  0.31550  Biso   1.000  H
  H76      1.0000 0.71000  0.16400  0.68450  Biso   1.000  H
  H77      1.0000 0.40330  0.71170  0.35430  Biso   1.000  H
  H78      1.0000 0.59670  0.21170  0.64570  Biso   1.000  H
  H79      1.0000 0.45310  0.71680  0.19830  Biso   1.000  H
  H80      1.0000 0.54690  0.21680  0.80170  Biso   1.000  H
  H81      1.0000 0.33960  0.66920  0.15960  Biso   1.000  H
  H82      1.0000 0.66040  0.16920  0.84040  Biso   1.000  H
  H83      1.0000 0.31690  0.74280  0.20300  Biso   1.000  H
  H84      1.0000 0.68310  0.24280  0.79700  Biso   1.000  H
  H85      1.0000 0.42150  0.32770  0.78630  Biso   1.000  H
  H86      1.0000 0.57850  0.82770  0.21370  Biso   1.000  H
  H87      1.0000 0.29030  0.34930  0.81330  Biso   1.000  H
  H88      1.0000 0.70970  0.84930  0.18670  Biso   1.000  H
  H89      1.0000 0.49310  0.44010  0.81770  Biso   1.000  H
  H90      1.0000 0.50690  0.94010  0.18230  Biso   1.000  H
  H91      1.0000 0.37730  0.43980  0.73270  Biso   1.000  H
  H92      1.0000 0.62270  0.93980  0.26730  Biso   1.000  H
  H93      1.0000 0.36180  0.46170  0.84480  Biso   1.000  H
  H94      1.0000 0.63820  0.96170  0.15520  Biso   1.000  H
