data_image0
_cell_length_a       8.28
_cell_length_b       6.089
_cell_length_c       9.302
_cell_angle_alpha    62.67
_cell_angle_beta     94.67
_cell_angle_gamma    70.81

_symmetry_space_group_name_H-M    "P 1"
_symmetry_int_tables_number       1

loop_
  _symmetry_equiv_pos_as_xyz
  'x, y, z'

loop_
  _atom_site_label
  _atom_site_occupancy
  _atom_site_fract_x
  _atom_site_fract_y
  _atom_site_fract_z
  _atom_site_thermal_displace_type
  _atom_site_B_iso_or_equiv
  _atom_site_type_symbol
  Cu1      1.0000 0.00260  0.21800  0.08980  Biso   1.000  Cu
  Cu2      1.0000 0.99740  0.78200  0.91020  Biso   1.000  Cu
  Cl1      1.0000 0.80830  0.03370  0.07130  Biso   1.000  Cl
  Cl2      1.0000 0.19170  0.96630  0.92870  Biso   1.000  Cl
  O1       1.0000 0.14720  0.41130  0.08780  Biso   1.000  O
  O2       1.0000 0.85280  0.58870  0.91220  Biso   1.000  O
  N1       1.0000 0.14730  0.90760  0.32340  Biso   1.000  N
  N2       1.0000 0.85270  0.09240  0.67660  Biso   1.000  N
  C1       1.0000 0.33500  0.29300  0.12830  Biso   1.000  C
  C2       1.0000 0.66500  0.70700  0.87170  Biso   1.000  C
  C3       1.0000 0.20340  0.64210  0.36820  Biso   1.000  C
  C4       1.0000 0.79660  0.35790  0.63180  Biso   1.000  C
  C5       1.0000 0.18290  0.95800  0.44470  Biso   1.000  C
  C6       1.0000 0.81710  0.04200  0.55530  Biso   1.000  C
  C7       1.0000 0.29250  0.43870  0.53020  Biso   1.000  C
  C8       1.0000 0.70750  0.56130  0.46980  Biso   1.000  C
  C9       1.0000 0.27000  0.76330  0.60620  Biso   1.000  C
  C10      1.0000 0.73000  0.23670  0.39380  Biso   1.000  C
  C11      1.0000 0.32830  0.49090  0.65440  Biso   1.000  C
  C12      1.0000 0.67170  0.50910  0.34560  Biso   1.000  C
  H1       1.0000 0.37000  0.18000  0.10000  Biso   1.000  H
  H2       1.0000 0.63000  0.82000  0.90000  Biso   1.000  H
  H3       1.0000 0.36000  0.46000  0.06000  Biso   1.000  H
  H4       1.0000 0.64000  0.54000  0.94000  Biso   1.000  H
  H5       1.0000 0.37000  0.36000  0.19000  Biso   1.000  H
  H6       1.0000 0.63000  0.64000  0.81000  Biso   1.000  H
  H7       1.0000 0.15000  0.65000  0.26000  Biso   1.000  H
  H8       1.0000 0.85000  0.35000  0.74000  Biso   1.000  H
  H9       1.0000 0.13000  0.15000  0.40000  Biso   1.000  H
  H10      1.0000 0.87000  0.85000  0.60000  Biso   1.000  H
  H11      1.0000 0.36000  0.25000  0.55000  Biso   1.000  H
  H12      1.0000 0.64000  0.75000  0.45000  Biso   1.000  H
  H13      1.0000 0.28000  0.78000  0.69000  Biso   1.000  H
  H14      1.0000 0.72000  0.22000  0.31000  Biso   1.000  H
  H15      1.0000 0.37000  0.36000  0.77000  Biso   1.000  H
  H16      1.0000 0.63000  0.64000  0.23000  Biso   1.000  H
