data_image0
_cell_length_a       9.049
_cell_length_b       13.7458
_cell_length_c       14.8547
_cell_angle_alpha    90
_cell_angle_beta     106.406
_cell_angle_gamma    90

_symmetry_space_group_name_H-M    "P 1"
_symmetry_int_tables_number       1

loop_
  _symmetry_equiv_pos_as_xyz
  'x, y, z'

loop_
  _atom_site_label
  _atom_site_occupancy
  _atom_site_fract_x
  _atom_site_fract_y
  _atom_site_fract_z
  _atom_site_thermal_displace_type
  _atom_site_B_iso_or_equiv
  _atom_site_type_symbol
  Cu1      1.0000 0.31190  0.25870  0.59021  Biso   1.000  Cu
  Cu2      1.0000 0.18810  0.75870  0.90979  Biso   1.000  Cu
  Cu3      1.0000 0.68810  0.74130  0.40979  Biso   1.000  Cu
  Cu4      1.0000 0.81190  0.24130  0.09021  Biso   1.000  Cu
  Cu5      1.0000 0.50918  0.24823  0.87318  Biso   1.000  Cu
  Cu6      1.0000 0.99082  0.74823  0.62682  Biso   1.000  Cu
  Cu7      1.0000 0.49082  0.75177  0.12682  Biso   1.000  Cu
  Cu8      1.0000 0.00918  0.25177  0.37318  Biso   1.000  Cu
  Cl1      1.0000 0.24264  0.14265  0.47871  Biso   1.000  Cl
  Cl2      1.0000 0.25736  0.64265  0.02129  Biso   1.000  Cl
  Cl3      1.0000 0.75736  0.85735  0.52129  Biso   1.000  Cl
  Cl4      1.0000 0.74264  0.35735  0.97871  Biso   1.000  Cl
  Cl5      1.0000 0.18747  0.18861  0.68519  Biso   1.000  Cl
  Cl6      1.0000 0.31253  0.68861  0.81481  Biso   1.000  Cl
  Cl7      1.0000 0.81253  0.81139  0.31481  Biso   1.000  Cl
  Cl8      1.0000 0.68747  0.31139  0.18519  Biso   1.000  Cl
  Cl9      1.0000 0.62174  0.18238  0.77010  Biso   1.000  Cl
  Cl10     1.0000 0.87826  0.68238  0.72990  Biso   1.000  Cl
  Cl11     1.0000 0.37826  0.81762  0.22990  Biso   1.000  Cl
  Cl12     1.0000 0.12174  0.31762  0.27010  Biso   1.000  Cl
  Cl13     1.0000 0.58118  0.12385  0.97654  Biso   1.000  Cl
  Cl14     1.0000 0.91882  0.62385  0.52346  Biso   1.000  Cl
  Cl15     1.0000 0.41882  0.87615  0.02346  Biso   1.000  Cl
  Cl16     1.0000 0.08118  0.37615  0.47654  Biso   1.000  Cl
  N1       1.0000 0.46040  0.32544  0.53019  Biso   1.000  N
  N2       1.0000 0.03960  0.82544  0.96981  Biso   1.000  N
  N3       1.0000 0.53960  0.67456  0.46981  Biso   1.000  N
  N4       1.0000 0.96040  0.17456  0.03019  Biso   1.000  N
  N5       1.0000 0.41650  0.35791  0.68997  Biso   1.000  N
  N6       1.0000 0.08350  0.85791  0.81003  Biso   1.000  N
  N7       1.0000 0.58350  0.64209  0.31003  Biso   1.000  N
  N8       1.0000 0.91650  0.14209  0.18997  Biso   1.000  N
  N9       1.0000 0.39980  0.35388  0.78056  Biso   1.000  N
  N10      1.0000 0.10020  0.85388  0.71944  Biso   1.000  N
  N11      1.0000 0.60020  0.64612  0.21944  Biso   1.000  N
  N12      1.0000 0.89980  0.14612  0.28056  Biso   1.000  N
  N13      1.0000 0.36380  0.30614  0.93944  Biso   1.000  N
  N14      1.0000 0.13620  0.80614  0.56056  Biso   1.000  N
  N15      1.0000 0.63620  0.69386  0.06056  Biso   1.000  N
  N16      1.0000 0.86380  0.19386  0.43944  Biso   1.000  N
  C1       1.0000 0.46960  0.31051  0.44319  Biso   1.000  C
  C2       1.0000 0.03040  0.81051  0.05681  Biso   1.000  C
  C3       1.0000 0.53040  0.68949  0.55681  Biso   1.000  C
  C4       1.0000 0.96960  0.18949  0.94319  Biso   1.000  C
  H1       1.0000 0.39910  0.26670  0.40370  Biso   1.000  H
  H2       1.0000 0.10090  0.76670  0.09630  Biso   1.000  H
  H3       1.0000 0.60090  0.73330  0.59630  Biso   1.000  H
  H4       1.0000 0.89910  0.23330  0.90370  Biso   1.000  H
  C5       1.0000 0.57860  0.35684  0.40820  Biso   1.000  C
  C6       1.0000 0.92140  0.85684  0.09180  Biso   1.000  C
  C7       1.0000 0.42140  0.64316  0.59180  Biso   1.000  C
  C8       1.0000 0.07860  0.14316  0.90820  Biso   1.000  C
  H5       1.0000 0.58190  0.34540  0.34570  Biso   1.000  H
  H6       1.0000 0.91810  0.84540  0.15430  Biso   1.000  H
  H7       1.0000 0.41810  0.65460  0.65430  Biso   1.000  H
  H8       1.0000 0.08190  0.15460  0.84570  Biso   1.000  H
  C9       1.0000 0.68220  0.42003  0.46644  Biso   1.000  C
  C10      1.0000 0.81780  0.92003  0.03356  Biso   1.000  C
  C11      1.0000 0.31780  0.57997  0.53356  Biso   1.000  C
  C12      1.0000 0.18220  0.07997  0.96644  Biso   1.000  C
  H9       1.0000 0.76020  0.45080  0.44510  Biso   1.000  H
  H10      1.0000 0.73980  0.95080  0.05490  Biso   1.000  H
  H11      1.0000 0.23980  0.54920  0.55490  Biso   1.000  H
  H12      1.0000 0.26020  0.04920  0.94510  Biso   1.000  H
  C13      1.0000 0.67060  0.43781  0.55645  Biso   1.000  C
  C14      1.0000 0.82940  0.93781  0.94355  Biso   1.000  C
  C15      1.0000 0.32940  0.56219  0.44355  Biso   1.000  C
  C16      1.0000 0.17060  0.06219  0.05645  Biso   1.000  C
  H13      1.0000 0.73890  0.48200  0.59700  Biso   1.000  H
  H14      1.0000 0.76110  0.98200  0.90300  Biso   1.000  H
  H15      1.0000 0.26110  0.51800  0.40300  Biso   1.000  H
  H16      1.0000 0.23890  0.01800  0.09700  Biso   1.000  H
  C17      1.0000 0.55810  0.39001  0.58572  Biso   1.000  C
  C18      1.0000 0.94190  0.89001  0.91428  Biso   1.000  C
  C19      1.0000 0.44190  0.60999  0.41428  Biso   1.000  C
  C20      1.0000 0.05810  0.10999  0.08572  Biso   1.000  C
  C21      1.0000 0.53410  0.40352  0.67913  Biso   1.000  C
  C22      1.0000 0.96590  0.90352  0.82087  Biso   1.000  C
  C23      1.0000 0.46590  0.59648  0.32087  Biso   1.000  C
  C24      1.0000 0.03410  0.09648  0.17913  Biso   1.000  C
  C25      1.0000 0.64080  0.46320  0.75335  Biso   1.000  C
  C26      1.0000 0.85920  0.96320  0.74665  Biso   1.000  C
  C27      1.0000 0.35920  0.53680  0.24665  Biso   1.000  C
  C28      1.0000 0.14080  0.03680  0.25335  Biso   1.000  C
  H17      1.0000 0.58520  0.48870  0.79620  Biso   1.000  H
  H18      1.0000 0.91480  0.98870  0.70380  Biso   1.000  H
  H19      1.0000 0.41480  0.51130  0.20380  Biso   1.000  H
  H20      1.0000 0.08520  0.01130  0.29620  Biso   1.000  H
  H21      1.0000 0.68030  0.51750  0.72420  Biso   1.000  H
  H22      1.0000 0.81970  0.01750  0.77580  Biso   1.000  H
  H23      1.0000 0.31970  0.48250  0.27580  Biso   1.000  H
  H24      1.0000 0.18030  0.98250  0.22420  Biso   1.000  H
  H25      1.0000 0.72690  0.42270  0.78850  Biso   1.000  H
  H26      1.0000 0.77310  0.92270  0.71150  Biso   1.000  H
  H27      1.0000 0.27310  0.57730  0.21150  Biso   1.000  H
  H28      1.0000 0.22690  0.07730  0.28850  Biso   1.000  H
  C29      1.0000 0.27890  0.39273  0.79504  Biso   1.000  C
  C30      1.0000 0.22110  0.89273  0.70496  Biso   1.000  C
  C31      1.0000 0.72110  0.60727  0.20496  Biso   1.000  C
  C32      1.0000 0.77890  0.10727  0.29504  Biso   1.000  C
  C33      1.0000 0.26530  0.37413  0.89015  Biso   1.000  C
  C34      1.0000 0.23470  0.87413  0.60985  Biso   1.000  C
  C35      1.0000 0.73470  0.62587  0.10985  Biso   1.000  C
  C36      1.0000 0.76530  0.12587  0.39015  Biso   1.000  C
  C37      1.0000 0.16180  0.42220  0.92687  Biso   1.000  C
  C38      1.0000 0.33820  0.92220  0.57313  Biso   1.000  C
  C39      1.0000 0.83820  0.57780  0.07313  Biso   1.000  C
  C40      1.0000 0.66180  0.07780  0.42687  Biso   1.000  C
  H29      1.0000 0.09280  0.46890  0.89060  Biso   1.000  H
  H30      1.0000 0.40720  0.96890  0.60940  Biso   1.000  H
  H31      1.0000 0.90720  0.53110  0.10940  Biso   1.000  H
  H32      1.0000 0.59280  0.03110  0.39060  Biso   1.000  H
  C41      1.0000 0.16030  0.40080  0.01847  Biso   1.000  C
  C42      1.0000 0.33970  0.90080  0.48153  Biso   1.000  C
  C43      1.0000 0.83970  0.59920  0.98153  Biso   1.000  C
  C44      1.0000 0.66030  0.09920  0.51847  Biso   1.000  C
  H33      1.0000 0.09040  0.43300  0.04570  Biso   1.000  H
  H34      1.0000 0.40960  0.93300  0.45430  Biso   1.000  H
  H35      1.0000 0.90960  0.56700  0.95430  Biso   1.000  H
  H36      1.0000 0.59040  0.06700  0.54570  Biso   1.000  H
  C45      1.0000 0.26150  0.33249  0.06880  Biso   1.000  C
  C46      1.0000 0.23850  0.83249  0.43120  Biso   1.000  C
  C47      1.0000 0.73850  0.66751  0.93120  Biso   1.000  C
  C48      1.0000 0.76150  0.16751  0.56880  Biso   1.000  C
  H37      1.0000 0.26280  0.31710  0.13140  Biso   1.000  H
  H38      1.0000 0.23720  0.81710  0.36860  Biso   1.000  H
  H39      1.0000 0.73720  0.68290  0.86860  Biso   1.000  H
  H40      1.0000 0.76280  0.18290  0.63140  Biso   1.000  H
  C49      1.0000 0.36150  0.28624  0.02706  Biso   1.000  C
  C50      1.0000 0.13850  0.78624  0.47294  Biso   1.000  C
  C51      1.0000 0.63850  0.71376  0.97294  Biso   1.000  C
  C52      1.0000 0.86150  0.21376  0.52706  Biso   1.000  C
  H41      1.0000 0.43070  0.23880  0.06200  Biso   1.000  H
  H42      1.0000 0.06930  0.73880  0.43800  Biso   1.000  H
  H43      1.0000 0.56930  0.76120  0.93800  Biso   1.000  H
  H44      1.0000 0.93070  0.26120  0.56200  Biso   1.000  H
  C53      1.0000 0.16080  0.45070  0.72632  Biso   1.000  C
  C54      1.0000 0.33920  0.95070  0.77368  Biso   1.000  C
  C55      1.0000 0.83920  0.54930  0.27368  Biso   1.000  C
  C56      1.0000 0.66080  0.04930  0.22632  Biso   1.000  C
  H45      1.0000 0.18120  0.52020  0.73870  Biso   1.000  H
  H46      1.0000 0.31880  0.02020  0.76130  Biso   1.000  H
  H47      1.0000 0.81880  0.47980  0.26130  Biso   1.000  H
  H48      1.0000 0.68120  0.97980  0.23870  Biso   1.000  H
  H49      1.0000 0.05840  0.43480  0.73230  Biso   1.000  H
  H50      1.0000 0.44160  0.93480  0.76770  Biso   1.000  H
  H51      1.0000 0.94160  0.56520  0.26770  Biso   1.000  H
  H52      1.0000 0.55840  0.06520  0.23230  Biso   1.000  H
  H53      1.0000 0.16490  0.43550  0.66260  Biso   1.000  H
  H54      1.0000 0.33510  0.93550  0.83740  Biso   1.000  H
  H55      1.0000 0.83510  0.56450  0.33740  Biso   1.000  H
  H56      1.0000 0.66490  0.06450  0.16260  Biso   1.000  H
