data_image0
_cell_length_a       7.756
_cell_length_b       17.639
_cell_length_c       8.883
_cell_angle_alpha    90
_cell_angle_beta     91.18
_cell_angle_gamma    90

_symmetry_space_group_name_H-M    "P 1"
_symmetry_int_tables_number       1

loop_
  _symmetry_equiv_pos_as_xyz
  'x, y, z'

loop_
  _atom_site_label
  _atom_site_occupancy
  _atom_site_fract_x
  _atom_site_fract_y
  _atom_site_fract_z
  _atom_site_thermal_displace_type
  _atom_site_B_iso_or_equiv
  _atom_site_type_symbol
  Cu1      1.0000 0.30454  0.10359  0.91524  Biso   1.000  Cu
  Cu2      1.0000 0.69546  0.60359  0.08476  Biso   1.000  Cu
  Cu3      1.0000 0.28503  0.21599  0.61492  Biso   1.000  Cu
  Cu4      1.0000 0.71497  0.71599  0.38508  Biso   1.000  Cu
  Cu5      1.0000 0.02833  0.25073  0.90773  Biso   1.000  Cu
  Cu6      1.0000 0.97167  0.75073  0.09227  Biso   1.000  Cu
  N1       1.0000 0.16100  0.12740  0.08730  Biso   1.000  N
  N2       1.0000 0.83900  0.62740  0.91270  Biso   1.000  N
  N3       1.0000 0.04600  0.18590  0.08180  Biso   1.000  N
  N4       1.0000 0.95400  0.68590  0.91820  Biso   1.000  N
  N5       1.0000 0.03220  0.31950  0.73470  Biso   1.000  N
  N6       1.0000 0.96780  0.81950  0.26530  Biso   1.000  N
  N7       1.0000 0.13430  0.30600  0.61630  Biso   1.000  N
  N8       1.0000 0.86570  0.80600  0.38370  Biso   1.000  N
  N9       1.0000 0.40740  0.12170  0.60730  Biso   1.000  N
  N10      1.0000 0.59260  0.62170  0.39270  Biso   1.000  N
  N11      1.0000 0.41240  0.07490  0.72840  Biso   1.000  N
  N12      1.0000 0.58760  0.57490  0.27160  Biso   1.000  N
  N13      1.0000 0.46360  0.03680  0.03430  Biso   1.000  N
  N14      1.0000 0.53640  0.53680  0.96570  Biso   1.000  N
  N15      1.0000 0.62290  0.06110  0.07260  Biso   1.000  N
  N16      1.0000 0.37710  0.56110  0.92740  Biso   1.000  N
  N17      1.0000 0.42870  0.26120  0.45040  Biso   1.000  N
  N18      1.0000 0.57130  0.76120  0.54960  Biso   1.000  N
  N19      1.0000 0.57470  0.29900  0.48270  Biso   1.000  N
  N20      1.0000 0.42530  0.79900  0.51730  Biso   1.000  N
  N21      1.0000 0.98200  0.37980  0.09200  Biso   1.000  N
  N22      1.0000 0.01800  0.87980  0.90800  Biso   1.000  N
  N23      1.0000 0.59850  0.22900  0.86170  Biso   1.000  N
  N24      1.0000 0.40150  0.72900  0.13830  Biso   1.000  N
  C1       1.0000 0.15220  0.09520  0.22480  Biso   1.000  C
  C2       1.0000 0.84780  0.59520  0.77520  Biso   1.000  C
  C3       1.0000 0.03010  0.13240  0.30790  Biso   1.000  C
  C4       1.0000 0.96990  0.63240  0.69210  Biso   1.000  C
  C5       1.0000 0.96780  0.18860  0.21530  Biso   1.000  C
  C6       1.0000 0.03220  0.68860  0.78470  Biso   1.000  C
  C7       1.0000 0.94550  0.38400  0.70630  Biso   1.000  C
  C8       1.0000 0.05450  0.88400  0.29370  Biso   1.000  C
  C9       1.0000 0.99220  0.41310  0.56920  Biso   1.000  C
  C10      1.0000 0.00780  0.91310  0.43080  Biso   1.000  C
  C11      1.0000 0.11040  0.36250  0.51690  Biso   1.000  C
  C12      1.0000 0.88960  0.86250  0.48310  Biso   1.000  C
  C13      1.0000 0.49800  0.08890  0.49810  Biso   1.000  C
  C14      1.0000 0.50200  0.58890  0.50190  Biso   1.000  C
  C15      1.0000 0.56150  0.01990  0.54590  Biso   1.000  C
  C16      1.0000 0.43850  0.51990  0.45410  Biso   1.000  C
  C17      1.0000 0.50630  0.01360  0.69240  Biso   1.000  C
  C18      1.0000 0.49370  0.51360  0.30760  Biso   1.000  C
  C19      1.0000 0.45770  0.96510  0.07640  Biso   1.000  C
  C20      1.0000 0.54230  0.46510  0.92360  Biso   1.000  C
  C21      1.0000 0.61420  0.94340  0.14340  Biso   1.000  C
  C22      1.0000 0.38580  0.44340  0.85660  Biso   1.000  C
  C23      1.0000 0.71350  0.00630  0.13800  Biso   1.000  C
  C24      1.0000 0.28650  0.50630  0.86200  Biso   1.000  C
  C25      1.0000 0.40670  0.26730  0.30210  Biso   1.000  C
  C26      1.0000 0.59330  0.76730  0.69790  Biso   1.000  C
  C27      1.0000 0.53880  0.30930  0.24090  Biso   1.000  C
  C28      1.0000 0.46120  0.80930  0.75910  Biso   1.000  C
  C29      1.0000 0.64360  0.32780  0.35780  Biso   1.000  C
  C30      1.0000 0.35640  0.82780  0.64220  Biso   1.000  C
  O1       1.0000 0.73680  0.19970  0.83990  Biso   1.000  O
  O2       1.0000 0.26320  0.69970  0.16010  Biso   1.000  O
  O3       1.0000 0.51030  0.20340  0.96530  Biso   1.000  O
  O4       1.0000 0.48970  0.70340  0.03470  Biso   1.000  O
  O5       1.0000 0.53650  0.27870  0.78500  Biso   1.000  O
  O6       1.0000 0.46350  0.77870  0.21500  Biso   1.000  O
  O7       1.0000 0.15870  0.17610  0.79080  Biso   1.000  O
  O8       1.0000 0.84130  0.67610  0.20920  Biso   1.000  O
  O9       1.0000 0.89010  0.33060  0.01970  Biso   1.000  O
  O10      1.0000 0.10990  0.83060  0.98030  Biso   1.000  O
  O11      1.0000 0.13710  0.36960  0.10860  Biso   1.000  O
  O12      1.0000 0.86290  0.86960  0.89140  Biso   1.000  O
  O13      1.0000 0.90530  0.43530  0.14410  Biso   1.000  O
  O14      1.0000 0.09470  0.93530  0.85590  Biso   1.000  O
  H1       1.0000 0.22400  0.05300  0.24100  Biso   1.000  H
  H2       1.0000 0.77600  0.55300  0.75900  Biso   1.000  H
  H3       1.0000 0.98400  0.11700  0.41100  Biso   1.000  H
  H4       1.0000 0.01600  0.61700  0.58900  Biso   1.000  H
  H5       1.0000 0.90300  0.21900  0.22600  Biso   1.000  H
  H6       1.0000 0.09700  0.71900  0.77400  Biso   1.000  H
  H7       1.0000 0.87200  0.40300  0.77300  Biso   1.000  H
  H8       1.0000 0.12800  0.90300  0.22700  Biso   1.000  H
  H9       1.0000 0.95900  0.45800  0.53300  Biso   1.000  H
  H10      1.0000 0.04100  0.95800  0.46700  Biso   1.000  H
  H11      1.0000 0.15200  0.36000  0.42700  Biso   1.000  H
  H12      1.0000 0.84800  0.86000  0.57300  Biso   1.000  H
  H13      1.0000 0.51900  0.10800  0.41600  Biso   1.000  H
  H14      1.0000 0.48100  0.60800  0.58400  Biso   1.000  H
  H15      1.0000 0.64000  0.98200  0.48800  Biso   1.000  H
  H16      1.0000 0.36000  0.48200  0.51200  Biso   1.000  H
  H17      1.0000 0.52300  0.97400  0.76200  Biso   1.000  H
  H18      1.0000 0.47700  0.47400  0.23800  Biso   1.000  H
  H19      1.0000 0.36600  0.93700  0.06400  Biso   1.000  H
  H20      1.0000 0.63400  0.43700  0.93600  Biso   1.000  H
  H21      1.0000 0.78800  0.00900  0.18500  Biso   1.000  H
  H22      1.0000 0.21200  0.50900  0.81500  Biso   1.000  H
  H23      1.0000 0.29000  0.25900  0.25200  Biso   1.000  H
  H24      1.0000 0.71000  0.75900  0.74800  Biso   1.000  H
  H25      1.0000 0.56700  0.32800  0.14100  Biso   1.000  H
  H26      1.0000 0.43300  0.82800  0.85900  Biso   1.000  H
  H27      1.0000 0.72900  0.36100  0.38700  Biso   1.000  H
  H28      1.0000 0.27100  0.86100  0.61300  Biso   1.000  H
  H29      1.0000 0.63700  0.10500  0.05800  Biso   1.000  H
  H30      1.0000 0.36300  0.60500  0.94200  Biso   1.000  H
  H31      1.0000 0.60100  0.30200  0.57400  Biso   1.000  H
  H32      1.0000 0.39900  0.80200  0.42600  Biso   1.000  H
  H33      1.0000 0.09000  0.14300  0.76100  Biso   1.000  H
  H34      1.0000 0.91000  0.64300  0.23900  Biso   1.000  H
  H35      1.0000 0.64500  0.89300  0.18700  Biso   1.000  H
  H36      1.0000 0.35500  0.39300  0.81300  Biso   1.000  H
  O15      1.0000 0.05520  0.56290  0.29670  Biso   1.000  O
  O16      1.0000 0.94480  0.06290  0.70330  Biso   1.000  O
  H37      1.0000 0.15600  0.56700  0.27500  Biso   1.000  H
  H38      1.0000 0.84400  0.06700  0.72500  Biso   1.000  H
  H39      1.0000 0.00000  0.55400  0.22300  Biso   1.000  H
  H40      1.0000 0.00000  0.05400  0.77700  Biso   1.000  H
