data_image0
_cell_length_a       11.238
_cell_length_b       14.863
_cell_length_c       7.403
_cell_angle_alpha    96.28
_cell_angle_beta     99.49
_cell_angle_gamma    110.21

_symmetry_space_group_name_H-M    "P 1"
_symmetry_int_tables_number       1

loop_
  _symmetry_equiv_pos_as_xyz
  'x, y, z'

loop_
  _atom_site_label
  _atom_site_occupancy
  _atom_site_fract_x
  _atom_site_fract_y
  _atom_site_fract_z
  _atom_site_thermal_displace_type
  _atom_site_B_iso_or_equiv
  _atom_site_type_symbol
  Cu1      1.0000 0.37000  0.23344  0.08460  Biso   1.000  Cu
  Cu2      1.0000 0.63000  0.76656  0.91540  Biso   1.000  Cu
  N1       1.0000 0.20860  0.12130  0.95880  Biso   1.000  N
  N2       1.0000 0.79140  0.87870  0.04120  Biso   1.000  N
  C1       1.0000 0.10310  0.12600  0.84830  Biso   1.000  C
  C2       1.0000 0.89690  0.87400  0.15170  Biso   1.000  C
  C3       1.0000 0.00540  0.04310  0.73980  Biso   1.000  C
  C4       1.0000 0.99460  0.95690  0.26020  Biso   1.000  C
  C5       1.0000 0.01890  0.95560  0.74050  Biso   1.000  C
  C6       1.0000 0.98110  0.04440  0.25950  Biso   1.000  C
  C7       1.0000 0.12740  0.94990  0.85080  Biso   1.000  C
  C8       1.0000 0.87260  0.05010  0.14920  Biso   1.000  C
  C9       1.0000 0.22000  0.03390  0.95810  Biso   1.000  C
  C10      1.0000 0.78000  0.96610  0.04190  Biso   1.000  C
  C11      1.0000 0.33930  0.03710  0.08110  Biso   1.000  C
  C12      1.0000 0.66070  0.96290  0.91890  Biso   1.000  C
  C13      1.0000 0.35780  0.95470  0.13280  Biso   1.000  C
  C14      1.0000 0.64220  0.04530  0.86720  Biso   1.000  C
  C15      1.0000 0.47090  0.96480  0.24770  Biso   1.000  C
  C16      1.0000 0.52910  0.03520  0.75230  Biso   1.000  C
  C17      1.0000 0.56440  0.05580  0.31070  Biso   1.000  C
  C18      1.0000 0.43560  0.94420  0.68930  Biso   1.000  C
  C19      1.0000 0.54270  0.13600  0.25800  Biso   1.000  C
  C20      1.0000 0.45730  0.86400  0.74200  Biso   1.000  C
  N3       1.0000 0.43060  0.12630  0.14190  Biso   1.000  N
  N4       1.0000 0.56940  0.87370  0.85810  Biso   1.000  N
  N5       1.0000 0.53640  0.34640  0.12710  Biso   1.000  N
  N6       1.0000 0.46360  0.65360  0.87290  Biso   1.000  N
  C21      1.0000 0.64850  0.34490  0.09090  Biso   1.000  C
  C22      1.0000 0.35150  0.65510  0.90910  Biso   1.000  C
  C23      1.0000 0.75930  0.42730  0.12470  Biso   1.000  C
  C24      1.0000 0.24070  0.57270  0.87530  Biso   1.000  C
  C25      1.0000 0.75480  0.51310  0.19630  Biso   1.000  C
  C26      1.0000 0.24520  0.48690  0.80370  Biso   1.000  C
  C27      1.0000 0.63980  0.51800  0.22980  Biso   1.000  C
  C28      1.0000 0.36020  0.48200  0.77020  Biso   1.000  C
  C29      1.0000 0.52820  0.43130  0.19150  Biso   1.000  C
  C30      1.0000 0.47180  0.56870  0.80850  Biso   1.000  C
  C31      1.0000 0.40030  0.42700  0.21630  Biso   1.000  C
  C32      1.0000 0.59970  0.57300  0.78370  Biso   1.000  C
  C33      1.0000 0.37560  0.50740  0.29620  Biso   1.000  C
  C34      1.0000 0.62440  0.49260  0.70380  Biso   1.000  C
  C35      1.0000 0.24660  0.49270  0.31240  Biso   1.000  C
  C36      1.0000 0.75340  0.50730  0.68760  Biso   1.000  C
  C37      1.0000 0.15580  0.40330  0.26110  Biso   1.000  C
  C38      1.0000 0.84420  0.59670  0.73890  Biso   1.000  C
  C39      1.0000 0.18540  0.32670  0.18200  Biso   1.000  C
  C40      1.0000 0.81460  0.67330  0.81800  Biso   1.000  C
  N7       1.0000 0.30530  0.33910  0.15750  Biso   1.000  N
  N8       1.0000 0.69470  0.66090  0.84250  Biso   1.000  N
  Cl1      1.0000 0.34332  0.21308  0.57468  Biso   1.000  Cl
  Cl2      1.0000 0.65668  0.78692  0.42532  Biso   1.000  Cl
  O1       1.0000 0.41270  0.23350  0.76200  Biso   1.000  O
  O2       1.0000 0.58730  0.76650  0.23800  Biso   1.000  O
  O3       1.0000 0.42920  0.26680  0.46680  Biso   1.000  O
  O4       1.0000 0.57080  0.73320  0.53320  Biso   1.000  O
  O5       1.0000 0.29720  0.11190  0.50650  Biso   1.000  O
  O6       1.0000 0.70280  0.88810  0.49350  Biso   1.000  O
  O7       1.0000 0.23440  0.24200  0.56720  Biso   1.000  O
  O8       1.0000 0.76560  0.75800  0.43280  Biso   1.000  O
  H1       1.0000 0.09490  0.19610  0.84550  Biso   1.000  H
  H2       1.0000 0.90510  0.80390  0.15450  Biso   1.000  H
  H3       1.0000 0.93980  0.04730  0.65610  Biso   1.000  H
  H4       1.0000 0.06020  0.95270  0.34390  Biso   1.000  H
  H5       1.0000 0.94490  0.89020  0.65560  Biso   1.000  H
  H6       1.0000 0.05510  0.10980  0.34440  Biso   1.000  H
  H7       1.0000 0.14030  0.88120  0.85130  Biso   1.000  H
  H8       1.0000 0.85970  0.11880  0.14870  Biso   1.000  H
  H9       1.0000 0.28250  0.88340  0.08380  Biso   1.000  H
  H10      1.0000 0.71750  0.11660  0.91620  Biso   1.000  H
  H11      1.0000 0.48830  0.90190  0.28710  Biso   1.000  H
  H12      1.0000 0.51170  0.09810  0.71290  Biso   1.000  H
  H13      1.0000 0.65460  0.06430  0.40180  Biso   1.000  H
  H14      1.0000 0.34540  0.93570  0.59820  Biso   1.000  H
  H15      1.0000 0.61570  0.20800  0.31180  Biso   1.000  H
  H16      1.0000 0.38430  0.79200  0.68820  Biso   1.000  H
  H17      1.0000 0.65030  0.27540  0.03420  Biso   1.000  H
  H18      1.0000 0.34970  0.72460  0.96580  Biso   1.000  H
  H19      1.0000 0.84800  0.42340  0.09620  Biso   1.000  H
  H20      1.0000 0.15200  0.57660  0.90380  Biso   1.000  H
  H21      1.0000 0.84130  0.57830  0.22700  Biso   1.000  H
  H22      1.0000 0.15870  0.42170  0.77300  Biso   1.000  H
  H23      1.0000 0.63370  0.58670  0.28140  Biso   1.000  H
  H24      1.0000 0.36630  0.41330  0.71860  Biso   1.000  H
  H25      1.0000 0.45260  0.57810  0.34230  Biso   1.000  H
  H26      1.0000 0.54740  0.42190  0.65770  Biso   1.000  H
  H27      1.0000 0.22200  0.55300  0.36630  Biso   1.000  H
  H28      1.0000 0.77800  0.44700  0.63370  Biso   1.000  H
  H29      1.0000 0.05910  0.39140  0.28210  Biso   1.000  H
  H30      1.0000 0.94090  0.60860  0.71790  Biso   1.000  H
  H31      1.0000 0.10940  0.25540  0.13820  Biso   1.000  H
  H32      1.0000 0.89060  0.74460  0.86180  Biso   1.000  H
  O9       1.0000 0.08450  0.63980  0.40780  Biso   1.000  O
  O10      1.0000 0.91550  0.36020  0.59220  Biso   1.000  O
  O11      1.0000 0.07410  0.72550  0.15060  Biso   1.000  O
  O12      1.0000 0.92590  0.27450  0.84940  Biso   1.000  O
  O13      1.0000 0.11210  0.79430  0.42660  Biso   1.000  O
  O14      1.0000 0.88790  0.20570  0.57340  Biso   1.000  O
  Cl3      1.0000 0.13040  0.72210  0.32120  Biso   1.000  Cl
  Cl4      1.0000 0.86960  0.27790  0.67880  Biso   1.000  Cl
  O15      1.0000 0.25930  0.73680  0.32350  Biso   1.000  O
  O16      1.0000 0.74070  0.26320  0.67650  Biso   1.000  O
