data_image0
_cell_length_a       7.416
_cell_length_b       11.259
_cell_length_c       14.888
_cell_angle_alpha    110.139
_cell_angle_beta     96.235
_cell_angle_gamma    99.347

_symmetry_space_group_name_H-M    "P 1"
_symmetry_int_tables_number       1

loop_
  _symmetry_equiv_pos_as_xyz
  'x, y, z'

loop_
  _atom_site_label
  _atom_site_occupancy
  _atom_site_fract_x
  _atom_site_fract_y
  _atom_site_fract_z
  _atom_site_thermal_displace_type
  _atom_site_B_iso_or_equiv
  _atom_site_type_symbol
  C1       1.0000 0.76000  0.54210  0.63620  Biso   1.000  C
  C2       1.0000 0.24000  0.45790  0.36380  Biso   1.000  C
  H1       1.0000 0.80710  0.60300  0.69840  Biso   1.000  H
  H2       1.0000 0.19290  0.39700  0.30160  Biso   1.000  H
  C3       1.0000 0.81250  0.56730  0.55770  Biso   1.000  C
  C4       1.0000 0.18750  0.43270  0.44230  Biso   1.000  C
  H3       1.0000 0.88910  0.64580  0.56620  Biso   1.000  H
  H4       1.0000 0.11090  0.35420  0.43380  Biso   1.000  H
  C5       1.0000 0.74910  0.47340  0.46550  Biso   1.000  C
  C6       1.0000 0.25090  0.52660  0.53450  Biso   1.000  C
  H5       1.0000 0.78380  0.48780  0.41130  Biso   1.000  H
  H6       1.0000 0.21620  0.51220  0.58870  Biso   1.000  H
  C7       1.0000 0.63410  0.35870  0.45510  Biso   1.000  C
  C8       1.0000 0.36590  0.64130  0.54490  Biso   1.000  C
  H7       1.0000 0.59170  0.29460  0.39370  Biso   1.000  H
  H8       1.0000 0.40830  0.70540  0.60630  Biso   1.000  H
  C9       1.0000 0.58190  0.33920  0.53590  Biso   1.000  C
  C10      1.0000 0.41810  0.66080  0.46410  Biso   1.000  C
  C11      1.0000 0.45900  0.22050  0.53340  Biso   1.000  C
  C12      1.0000 0.54100  0.77950  0.46660  Biso   1.000  C
  C13      1.0000 0.35200  0.12790  0.44820  Biso   1.000  C
  C14      1.0000 0.64800  0.87210  0.55180  Biso   1.000  C
  H9       1.0000 0.35370  0.13880  0.38910  Biso   1.000  H
  H10      1.0000 0.64630  0.86120  0.61090  Biso   1.000  H
  C15      1.0000 0.24250  0.01880  0.45310  Biso   1.000  C
  C16      1.0000 0.75750  0.98120  0.54690  Biso   1.000  C
  H11      1.0000 0.17050  0.95490  0.39700  Biso   1.000  H
  H12      1.0000 0.82950  0.04510  0.60300  Biso   1.000  H
  C17      1.0000 0.24150  0.00600  0.54150  Biso   1.000  C
  C18      1.0000 0.75850  0.99400  0.45850  Biso   1.000  C
  H13      1.0000 0.17000  0.93270  0.54560  Biso   1.000  H
  H14      1.0000 0.83000  0.06730  0.45440  Biso   1.000  H
  C19      1.0000 0.34750  0.10290  0.62460  Biso   1.000  C
  C20      1.0000 0.65250  0.89710  0.37540  Biso   1.000  C
  H15      1.0000 0.34260  0.09520  0.68460  Biso   1.000  H
  H16      1.0000 0.65740  0.90480  0.31540  Biso   1.000  H
  C21      1.0000 0.58970  0.64820  0.84460  Biso   1.000  C
  C22      1.0000 0.41030  0.35180  0.15540  Biso   1.000  C
  H17      1.0000 0.54160  0.65270  0.78580  Biso   1.000  H
  H18      1.0000 0.45840  0.34730  0.21420  Biso   1.000  H
  C23      1.0000 0.62600  0.75920  0.92910  Biso   1.000  C
  C24      1.0000 0.37400  0.24080  0.07090  Biso   1.000  C
  H19      1.0000 0.60190  0.83690  0.92700  Biso   1.000  H
  H20      1.0000 0.39810  0.16310  0.07300  Biso   1.000  H
  C25      1.0000 0.69700  0.75100  0.01440  Biso   1.000  C
  C26      1.0000 0.30300  0.24900  0.98560  Biso   1.000  C
  H21      1.0000 0.72450  0.82470  0.07100  Biso   1.000  H
  H22      1.0000 0.27550  0.17530  0.92900  Biso   1.000  H
  C27      1.0000 0.72860  0.63520  0.01860  Biso   1.000  C
  C28      1.0000 0.27140  0.36480  0.98140  Biso   1.000  C
  H23      1.0000 0.77380  0.62960  0.07740  Biso   1.000  H
  H24      1.0000 0.22620  0.37040  0.92260  Biso   1.000  H
  C29      1.0000 0.69110  0.52710  0.93240  Biso   1.000  C
  C30      1.0000 0.30890  0.47290  0.06760  Biso   1.000  C
  C31      1.0000 0.71510  0.39860  0.92740  Biso   1.000  C
  C32      1.0000 0.28490  0.60140  0.07260  Biso   1.000  C
  C33      1.0000 0.79360  0.37200  0.00530  Biso   1.000  C
  C34      1.0000 0.20640  0.62800  0.99470  Biso   1.000  C
  H25      1.0000 0.83420  0.43840  0.06570  Biso   1.000  H
  H26      1.0000 0.16580  0.56160  0.93430  Biso   1.000  H
  C35      1.0000 0.81200  0.24860  0.99410  Biso   1.000  C
  C36      1.0000 0.18800  0.75140  0.00590  Biso   1.000  C
  H27      1.0000 0.85930  0.22950  0.04680  Biso   1.000  H
  H28      1.0000 0.14070  0.77050  0.95320  Biso   1.000  H
  C37      1.0000 0.75890  0.15430  0.90310  Biso   1.000  C
  C38      1.0000 0.24110  0.84570  0.09690  Biso   1.000  C
  H29      1.0000 0.77820  0.07130  0.89220  Biso   1.000  H
  H30      1.0000 0.22180  0.92870  0.10780  Biso   1.000  H
  C39      1.0000 0.67610  0.18320  0.82690  Biso   1.000  C
  C40      1.0000 0.32390  0.81680  0.17310  Biso   1.000  C
  H31      1.0000 0.63510  0.11750  0.76610  Biso   1.000  H
  H32      1.0000 0.36490  0.88250  0.23390  Biso   1.000  H
  N1       1.0000 0.64280  0.43210  0.62580  Biso   1.000  N
  N2       1.0000 0.35720  0.56790  0.37420  Biso   1.000  N
  N3       1.0000 0.45780  0.20820  0.62050  Biso   1.000  N
  N4       1.0000 0.54220  0.79180  0.37950  Biso   1.000  N
  N5       1.0000 0.62280  0.53480  0.84640  Biso   1.000  N
  N6       1.0000 0.37720  0.46520  0.15360  Biso   1.000  N
  N7       1.0000 0.65370  0.30310  0.83880  Biso   1.000  N
  N8       1.0000 0.34630  0.69690  0.16120  Biso   1.000  N
  O1       1.0000 0.25470  0.40250  0.73630  Biso   1.000  O
  O2       1.0000 0.74530  0.59750  0.26370  Biso   1.000  O
  O3       1.0000 0.01070  0.29750  0.61220  Biso   1.000  O
  O4       1.0000 0.98930  0.70250  0.38780  Biso   1.000  O
  O5       1.0000 0.95720  0.42060  0.76330  Biso   1.000  O
  O6       1.0000 0.04280  0.57940  0.23670  Biso   1.000  O
  O7       1.0000 0.06880  0.23260  0.74240  Biso   1.000  O
  O8       1.0000 0.93120  0.76740  0.25760  Biso   1.000  O
  Cl1      1.0000 0.07440  0.34355  0.71326  Biso   1.000  Cl
  Cl2      1.0000 0.92560  0.65645  0.28674  Biso   1.000  Cl
  Cu1      1.0000 0.58261  0.36883  0.73314  Biso   1.000  Cu
  Cu2      1.0000 0.41739  0.63117  0.26686  Biso   1.000  Cu
  O9       1.0000 0.08700  0.88900  0.70820  Biso   1.000  O
  O10      1.0000 0.91300  0.11100  0.29180  Biso   1.000  O
  O11      1.0000 0.20100  0.93530  0.87390  Biso   1.000  O
  O12      1.0000 0.79900  0.06470  0.12610  Biso   1.000  O
  O13      1.0000 0.17800  0.74070  0.76340  Biso   1.000  O
  O14      1.0000 0.82200  0.25930  0.23660  Biso   1.000  O
  O15      1.0000 0.35300  0.92600  0.77270  Biso   1.000  O
  O16      1.0000 0.64700  0.07400  0.22730  Biso   1.000  O
  Cl3      1.0000 0.18470  0.86950  0.77790  Biso   1.000  Cl
  Cl4      1.0000 0.81530  0.13050  0.22210  Biso   1.000  Cl
