data_image0
_cell_length_a       12.586
_cell_length_b       12.883
_cell_length_c       21.532
_cell_angle_alpha    90
_cell_angle_beta     104.73
_cell_angle_gamma    90

_symmetry_space_group_name_H-M    "P 1"
_symmetry_int_tables_number       1

loop_
  _symmetry_equiv_pos_as_xyz
  'x, y, z'

loop_
  _atom_site_label
  _atom_site_occupancy
  _atom_site_fract_x
  _atom_site_fract_y
  _atom_site_fract_z
  _atom_site_thermal_displace_type
  _atom_site_B_iso_or_equiv
  _atom_site_type_symbol
  Cu1      1.0000 0.11600  0.22800  0.24280  Biso   1.000  Cu
  Cu2      1.0000 0.38400  0.72800  0.75720  Biso   1.000  Cu
  Cu3      1.0000 0.88400  0.77200  0.75720  Biso   1.000  Cu
  Cu4      1.0000 0.61600  0.27200  0.24280  Biso   1.000  Cu
  Cu5      1.0000 0.34930  0.27460  0.20260  Biso   1.000  Cu
  Cu6      1.0000 0.15070  0.77460  0.79740  Biso   1.000  Cu
  Cu7      1.0000 0.65070  0.72540  0.79740  Biso   1.000  Cu
  Cu8      1.0000 0.84930  0.22540  0.20260  Biso   1.000  Cu
  Cl1      1.0000 0.27860  0.10220  0.57570  Biso   1.000  Cl
  Cl2      1.0000 0.22140  0.60220  0.42430  Biso   1.000  Cl
  Cl3      1.0000 0.72140  0.89780  0.42430  Biso   1.000  Cl
  Cl4      1.0000 0.77860  0.39780  0.57570  Biso   1.000  Cl
  Cl5      1.0000 0.20310  0.39440  0.86960  Biso   1.000  Cl
  Cl6      1.0000 0.29690  0.89440  0.13040  Biso   1.000  Cl
  Cl7      1.0000 0.79690  0.60560  0.13040  Biso   1.000  Cl
  Cl8      1.0000 0.70310  0.10560  0.86960  Biso   1.000  Cl
  O1       1.0000 0.16700  0.34270  0.19950  Biso   1.000  O
  O2       1.0000 0.33300  0.84270  0.80050  Biso   1.000  O
  O3       1.0000 0.83300  0.65730  0.80050  Biso   1.000  O
  O4       1.0000 0.66700  0.15730  0.19950  Biso   1.000  O
  O5       1.0000 0.00180  0.39070  0.14830  Biso   1.000  O
  O6       1.0000 0.49820  0.89070  0.85170  Biso   1.000  O
  O7       1.0000 0.99820  0.60930  0.85170  Biso   1.000  O
  O8       1.0000 0.50180  0.10930  0.14830  Biso   1.000  O
  O9       1.0000 0.29700  0.16360  0.24670  Biso   1.000  O
  O10      1.0000 0.20300  0.66360  0.75330  Biso   1.000  O
  O11      1.0000 0.70300  0.83640  0.75330  Biso   1.000  O
  O12      1.0000 0.79700  0.33640  0.24670  Biso   1.000  O
  O13      1.0000 0.46820  0.11560  0.28930  Biso   1.000  O
  O14      1.0000 0.03180  0.61560  0.71070  Biso   1.000  O
  O15      1.0000 0.53180  0.88440  0.71070  Biso   1.000  O
  O16      1.0000 0.96820  0.38440  0.28930  Biso   1.000  O
  O17      1.0000 0.06990  0.14990  0.16280  Biso   1.000  O
  O18      1.0000 0.43010  0.64990  0.83720  Biso   1.000  O
  O19      1.0000 0.93010  0.85010  0.83720  Biso   1.000  O
  O20      1.0000 0.56990  0.35010  0.16280  Biso   1.000  O
  O21      1.0000 0.07320  0.11800  0.29220  Biso   1.000  O
  O22      1.0000 0.42680  0.61800  0.70780  Biso   1.000  O
  O23      1.0000 0.92680  0.88200  0.70780  Biso   1.000  O
  O24      1.0000 0.57320  0.38200  0.29220  Biso   1.000  O
  O25      1.0000 0.89480  0.11750  0.15300  Biso   1.000  O
  O26      1.0000 0.60520  0.61750  0.84700  Biso   1.000  O
  O27      1.0000 0.10520  0.88250  0.84700  Biso   1.000  O
  O28      1.0000 0.39480  0.38250  0.15300  Biso   1.000  O
  O29      1.0000 0.89510  0.14750  0.28270  Biso   1.000  O
  O30      1.0000 0.60490  0.64750  0.71730  Biso   1.000  O
  O31      1.0000 0.10490  0.85250  0.71730  Biso   1.000  O
  O32      1.0000 0.39510  0.35250  0.28270  Biso   1.000  O
  N1       1.0000 0.18350  0.31550  0.32370  Biso   1.000  N
  N2       1.0000 0.31650  0.81550  0.67630  Biso   1.000  N
  N3       1.0000 0.81650  0.68450  0.67630  Biso   1.000  N
  N4       1.0000 0.68350  0.18450  0.32370  Biso   1.000  N
  N5       1.0000 0.28470  0.18610  0.12190  Biso   1.000  N
  N6       1.0000 0.21530  0.68610  0.87810  Biso   1.000  N
  N7       1.0000 0.71530  0.81390  0.87810  Biso   1.000  N
  N8       1.0000 0.78470  0.31390  0.12190  Biso   1.000  N
  C1       1.0000 0.20900  0.26800  0.38610  Biso   1.000  C
  C2       1.0000 0.29100  0.76800  0.61390  Biso   1.000  C
  C3       1.0000 0.79100  0.73200  0.61390  Biso   1.000  C
  C4       1.0000 0.70900  0.23200  0.38610  Biso   1.000  C
  C5       1.0000 0.13320  0.26900  0.42180  Biso   1.000  C
  C6       1.0000 0.36680  0.76900  0.57820  Biso   1.000  C
  C7       1.0000 0.86680  0.73100  0.57820  Biso   1.000  C
  C8       1.0000 0.63320  0.23100  0.42180  Biso   1.000  C
  C9       1.0000 0.15350  0.21600  0.47970  Biso   1.000  C
  C10      1.0000 0.34650  0.71600  0.52030  Biso   1.000  C
  C11      1.0000 0.84650  0.78400  0.52030  Biso   1.000  C
  C12      1.0000 0.65350  0.28400  0.47970  Biso   1.000  C
  C13      1.0000 0.25000  0.16800  0.50250  Biso   1.000  C
  C14      1.0000 0.25000  0.66800  0.49750  Biso   1.000  C
  C15      1.0000 0.75000  0.83200  0.49750  Biso   1.000  C
  C16      1.0000 0.75000  0.33200  0.50250  Biso   1.000  C
  C17      1.0000 0.33000  0.16800  0.46760  Biso   1.000  C
  C18      1.0000 0.17000  0.66800  0.53240  Biso   1.000  C
  C19      1.0000 0.67000  0.83200  0.53240  Biso   1.000  C
  C20      1.0000 0.83000  0.33200  0.46760  Biso   1.000  C
  C21      1.0000 0.30710  0.21900  0.40930  Biso   1.000  C
  C22      1.0000 0.19290  0.71900  0.59070  Biso   1.000  C
  C23      1.0000 0.69290  0.78100  0.59070  Biso   1.000  C
  C24      1.0000 0.80710  0.28100  0.40930  Biso   1.000  C
  C25      1.0000 0.26290  0.23500  0.05980  Biso   1.000  C
  C26      1.0000 0.23710  0.73500  0.94020  Biso   1.000  C
  C27      1.0000 0.73710  0.76500  0.94020  Biso   1.000  C
  C28      1.0000 0.76290  0.26500  0.05980  Biso   1.000  C
  C29      1.0000 0.33610  0.22400  0.02260  Biso   1.000  C
  C30      1.0000 0.16390  0.72400  0.97740  Biso   1.000  C
  C31      1.0000 0.66390  0.77600  0.97740  Biso   1.000  C
  C32      1.0000 0.83610  0.27600  0.02260  Biso   1.000  C
  C33      1.0000 0.31920  0.27100  0.96500  Biso   1.000  C
  C34      1.0000 0.18080  0.77100  0.03500  Biso   1.000  C
  C35      1.0000 0.68080  0.72900  0.03500  Biso   1.000  C
  C36      1.0000 0.81920  0.22900  0.96500  Biso   1.000  C
  C37      1.0000 0.22700  0.32900  0.94260  Biso   1.000  C
  C38      1.0000 0.27300  0.82900  0.05740  Biso   1.000  C
  C39      1.0000 0.77300  0.67100  0.05740  Biso   1.000  C
  C40      1.0000 0.72700  0.17100  0.94260  Biso   1.000  C
  C41      1.0000 0.15000  0.33900  0.97800  Biso   1.000  C
  C42      1.0000 0.35000  0.83900  0.02200  Biso   1.000  C
  C43      1.0000 0.85000  0.66100  0.02200  Biso   1.000  C
  C44      1.0000 0.65000  0.16100  0.97800  Biso   1.000  C
  C45      1.0000 0.16590  0.29100  0.03530  Biso   1.000  C
  C46      1.0000 0.33410  0.79100  0.96470  Biso   1.000  C
  C47      1.0000 0.83410  0.70900  0.96470  Biso   1.000  C
  C48      1.0000 0.66590  0.20900  0.03530  Biso   1.000  C
  C49      1.0000 0.98340  0.10290  0.13920  Biso   1.000  C
  C50      1.0000 0.51660  0.60290  0.86080  Biso   1.000  C
  C51      1.0000 0.01660  0.89710  0.86080  Biso   1.000  C
  C52      1.0000 0.48340  0.39710  0.13920  Biso   1.000  C
  C53      1.0000 0.98600  0.02600  0.08750  Biso   1.000  C
  C54      1.0000 0.51400  0.52600  0.91250  Biso   1.000  C
  C55      1.0000 0.01400  0.97400  0.91250  Biso   1.000  C
  C56      1.0000 0.48600  0.47400  0.08750  Biso   1.000  C
  C57      1.0000 0.92900  0.92300  0.09200  Biso   1.000  C
  C58      1.0000 0.57100  0.42300  0.90800  Biso   1.000  C
  C59      1.0000 0.07100  0.07700  0.90800  Biso   1.000  C
  C60      1.0000 0.42900  0.57700  0.09200  Biso   1.000  C
  C61      1.0000 0.97700  0.87500  0.15500  Biso   1.000  C
  C62      1.0000 0.52300  0.37500  0.84500  Biso   1.000  C
  C63      1.0000 0.02300  0.12500  0.84500  Biso   1.000  C
  C64      1.0000 0.47700  0.62500  0.15500  Biso   1.000  C
  C65      1.0000 0.98220  0.10210  0.30720  Biso   1.000  C
  C66      1.0000 0.51780  0.60210  0.69280  Biso   1.000  C
  C67      1.0000 0.01780  0.89790  0.69280  Biso   1.000  C
  C68      1.0000 0.48220  0.39790  0.30720  Biso   1.000  C
  C69      1.0000 0.98200  0.02500  0.35980  Biso   1.000  C
  C70      1.0000 0.51800  0.52500  0.64020  Biso   1.000  C
  C71      1.0000 0.01800  0.97500  0.64020  Biso   1.000  C
  C72      1.0000 0.48200  0.47500  0.35980  Biso   1.000  C
  C73      1.0000 0.07900  0.96000  0.38260  Biso   1.000  C
  C74      1.0000 0.42100  0.46000  0.61740  Biso   1.000  C
  C75      1.0000 0.92100  0.04000  0.61740  Biso   1.000  C
  C76      1.0000 0.57900  0.54000  0.38260  Biso   1.000  C
  C77      1.0000 0.08200  0.89600  0.43800  Biso   1.000  C
  C78      1.0000 0.41800  0.39600  0.56200  Biso   1.000  C
  C79      1.0000 0.91800  0.10400  0.56200  Biso   1.000  C
  C80      1.0000 0.58200  0.60400  0.43800  Biso   1.000  C
  C81      1.0000 0.09990  0.40500  0.16570  Biso   1.000  C
  C82      1.0000 0.40010  0.90500  0.83430  Biso   1.000  C
  C83      1.0000 0.90010  0.59500  0.83430  Biso   1.000  C
  C84      1.0000 0.59990  0.09500  0.16570  Biso   1.000  C
  C85      1.0000 0.14300  0.50300  0.14490  Biso   1.000  C
  C86      1.0000 0.35700  0.00300  0.85510  Biso   1.000  C
  C87      1.0000 0.85700  0.49700  0.85510  Biso   1.000  C
  C88      1.0000 0.64300  0.99700  0.14490  Biso   1.000  C
  C89      1.0000 0.17400  0.58100  0.19200  Biso   1.000  C
  C90      1.0000 0.32600  0.08100  0.80800  Biso   1.000  C
  C91      1.0000 0.82600  0.41900  0.80800  Biso   1.000  C
  C92      1.0000 0.67400  0.91900  0.19200  Biso   1.000  C
  C93      1.0000 0.15400  0.60300  0.24300  Biso   1.000  C
  C94      1.0000 0.34600  0.10300  0.75700  Biso   1.000  C
  C95      1.0000 0.84600  0.39700  0.75700  Biso   1.000  C
  C96      1.0000 0.65400  0.89700  0.24300  Biso   1.000  C
  C97      1.0000 0.36950  0.09900  0.27810  Biso   1.000  C
  C98      1.0000 0.13050  0.59900  0.72190  Biso   1.000  C
  C99      1.0000 0.63050  0.90100  0.72190  Biso   1.000  C
  C100     1.0000 0.86950  0.40100  0.27810  Biso   1.000  C
  C101     1.0000 0.32300  0.00100  0.29960  Biso   1.000  C
  C102     1.0000 0.17700  0.50100  0.70040  Biso   1.000  C
  C103     1.0000 0.67700  0.99900  0.70040  Biso   1.000  C
  C104     1.0000 0.82300  0.49900  0.29960  Biso   1.000  C
  C105     1.0000 0.40300  0.93100  0.33600  Biso   1.000  C
  C106     1.0000 0.09700  0.43100  0.66400  Biso   1.000  C
  C107     1.0000 0.59700  0.06900  0.66400  Biso   1.000  C
  C108     1.0000 0.90300  0.56900  0.33600  Biso   1.000  C
  C109     1.0000 0.37100  0.84000  0.35600  Biso   1.000  C
  C110     1.0000 0.12900  0.34000  0.64400  Biso   1.000  C
  C111     1.0000 0.62900  0.16000  0.64400  Biso   1.000  C
  C112     1.0000 0.87100  0.66000  0.35600  Biso   1.000  C
