data_image0
_cell_length_a       15.561
_cell_length_b       9.2049
_cell_length_c       18.322
_cell_angle_alpha    90
_cell_angle_beta     109.001
_cell_angle_gamma    90

_symmetry_space_group_name_H-M    "P 1"
_symmetry_int_tables_number       1

loop_
  _symmetry_equiv_pos_as_xyz
  'x, y, z'

loop_
  _atom_site_label
  _atom_site_occupancy
  _atom_site_fract_x
  _atom_site_fract_y
  _atom_site_fract_z
  _atom_site_thermal_displace_type
  _atom_site_B_iso_or_equiv
  _atom_site_type_symbol
  Cu1      1.0000 0.50000  0.54857  0.25000  Biso   1.000  Cu
  Cu2      1.0000 0.00000  0.04857  0.25000  Biso   1.000  Cu
  Cu3      1.0000 0.50000  0.45143  0.75000  Biso   1.000  Cu
  Cu4      1.0000 0.00000  0.95143  0.75000  Biso   1.000  Cu
  Br1      1.0000 0.81763  0.46922  0.39035  Biso   1.000  Br
  Br2      1.0000 0.18237  0.46922  0.10965  Biso   1.000  Br
  Br3      1.0000 0.31763  0.96922  0.39035  Biso   1.000  Br
  Br4      1.0000 0.68237  0.96922  0.10965  Biso   1.000  Br
  Br5      1.0000 0.18237  0.53078  0.60965  Biso   1.000  Br
  Br6      1.0000 0.81763  0.53078  0.89035  Biso   1.000  Br
  Br7      1.0000 0.68237  0.03078  0.60965  Biso   1.000  Br
  Br8      1.0000 0.31763  0.03078  0.89035  Biso   1.000  Br
  Br9      1.0000 0.95835  0.22744  0.49909  Biso   1.000  Br
  Br10     1.0000 0.04165  0.22744  0.00091  Biso   1.000  Br
  Br11     1.0000 0.45835  0.72744  0.49909  Biso   1.000  Br
  Br12     1.0000 0.54165  0.72744  0.00091  Biso   1.000  Br
  Br13     1.0000 0.04165  0.77256  0.50091  Biso   1.000  Br
  Br14     1.0000 0.95835  0.77256  0.99909  Biso   1.000  Br
  Br15     1.0000 0.54165  0.27256  0.50091  Biso   1.000  Br
  Br16     1.0000 0.45835  0.27256  0.99909  Biso   1.000  Br
  C1       1.0000 0.77850  0.34280  0.45370  Biso   1.000  C
  C2       1.0000 0.22150  0.34280  0.04630  Biso   1.000  C
  C3       1.0000 0.27850  0.84280  0.45370  Biso   1.000  C
  C4       1.0000 0.72150  0.84280  0.04630  Biso   1.000  C
  C5       1.0000 0.22150  0.65720  0.54630  Biso   1.000  C
  C6       1.0000 0.77850  0.65720  0.95370  Biso   1.000  C
  C7       1.0000 0.72150  0.15720  0.54630  Biso   1.000  C
  C8       1.0000 0.27850  0.15720  0.95370  Biso   1.000  C
  N1       1.0000 0.60520  0.54290  0.20970  Biso   1.000  N
  N2       1.0000 0.39480  0.54290  0.29030  Biso   1.000  N
  N3       1.0000 0.10520  0.04290  0.20970  Biso   1.000  N
  N4       1.0000 0.89480  0.04290  0.29030  Biso   1.000  N
  N5       1.0000 0.39480  0.45710  0.79030  Biso   1.000  N
  N6       1.0000 0.60520  0.45710  0.70970  Biso   1.000  N
  N7       1.0000 0.89480  0.95710  0.79030  Biso   1.000  N
  N8       1.0000 0.10520  0.95710  0.70970  Biso   1.000  N
  N9       1.0000 0.50000  0.77210  0.25000  Biso   1.000  N
  N10      1.0000 0.00000  0.27210  0.25000  Biso   1.000  N
  N11      1.0000 0.50000  0.22790  0.75000  Biso   1.000  N
  N12      1.0000 0.00000  0.72790  0.75000  Biso   1.000  N
  O1       1.0000 0.57700  0.39850  0.33340  Biso   1.000  O
  O2       1.0000 0.42300  0.39850  0.16660  Biso   1.000  O
  O3       1.0000 0.07700  0.89850  0.33340  Biso   1.000  O
  O4       1.0000 0.92300  0.89850  0.16660  Biso   1.000  O
  O5       1.0000 0.42300  0.60150  0.66660  Biso   1.000  O
  O6       1.0000 0.57700  0.60150  0.83340  Biso   1.000  O
  O7       1.0000 0.92300  0.10150  0.66660  Biso   1.000  O
  O8       1.0000 0.07700  0.10150  0.83340  Biso   1.000  O
  C9       1.0000 0.48680  0.84660  0.18490  Biso   1.000  C
  C10      1.0000 0.51320  0.84660  0.31510  Biso   1.000  C
  C11      1.0000 0.98680  0.34660  0.18490  Biso   1.000  C
  C12      1.0000 0.01320  0.34660  0.31510  Biso   1.000  C
  C13      1.0000 0.51320  0.15340  0.81510  Biso   1.000  C
  C14      1.0000 0.48680  0.15340  0.68490  Biso   1.000  C
  C15      1.0000 0.01320  0.65340  0.81510  Biso   1.000  C
  C16      1.0000 0.98680  0.65340  0.68490  Biso   1.000  C
  H1       1.0000 0.47730  0.79600  0.13900  Biso   1.000  H
  H2       1.0000 0.52270  0.79600  0.36100  Biso   1.000  H
  H3       1.0000 0.97730  0.29600  0.13900  Biso   1.000  H
  H4       1.0000 0.02270  0.29600  0.36100  Biso   1.000  H
  H5       1.0000 0.52270  0.20400  0.86100  Biso   1.000  H
  H6       1.0000 0.47730  0.20400  0.63900  Biso   1.000  H
  H7       1.0000 0.02270  0.70400  0.86100  Biso   1.000  H
  H8       1.0000 0.97730  0.70400  0.63900  Biso   1.000  H
  C17      1.0000 0.62260  0.45290  0.39630  Biso   1.000  C
  C18      1.0000 0.37740  0.45290  0.10370  Biso   1.000  C
  C19      1.0000 0.12260  0.95290  0.39630  Biso   1.000  C
  C20      1.0000 0.87740  0.95290  0.10370  Biso   1.000  C
  C21      1.0000 0.37740  0.54710  0.60370  Biso   1.000  C
  C22      1.0000 0.62260  0.54710  0.89630  Biso   1.000  C
  C23      1.0000 0.87740  0.04710  0.60370  Biso   1.000  C
  C24      1.0000 0.12260  0.04710  0.89630  Biso   1.000  C
  C25      1.0000 0.83870  0.24470  0.50170  Biso   1.000  C
  C26      1.0000 0.16130  0.24470  0.99830  Biso   1.000  C
  C27      1.0000 0.33870  0.74470  0.50170  Biso   1.000  C
  C28      1.0000 0.66130  0.74470  0.99830  Biso   1.000  C
  C29      1.0000 0.16130  0.75530  0.49830  Biso   1.000  C
  C30      1.0000 0.83870  0.75530  0.00170  Biso   1.000  C
  C31      1.0000 0.66130  0.25530  0.49830  Biso   1.000  C
  C32      1.0000 0.33870  0.25530  0.00170  Biso   1.000  C
  C33      1.0000 0.68870  0.34900  0.45140  Biso   1.000  C
  C34      1.0000 0.31130  0.34900  0.04860  Biso   1.000  C
  C35      1.0000 0.18870  0.84900  0.45140  Biso   1.000  C
  C36      1.0000 0.81130  0.84900  0.04860  Biso   1.000  C
  C37      1.0000 0.31130  0.65100  0.54860  Biso   1.000  C
  C38      1.0000 0.68870  0.65100  0.95140  Biso   1.000  C
  C39      1.0000 0.81130  0.15100  0.54860  Biso   1.000  C
  C40      1.0000 0.18870  0.15100  0.95140  Biso   1.000  C
  C41      1.0000 0.61180  0.42870  0.16490  Biso   1.000  C
  C42      1.0000 0.38820  0.42870  0.33510  Biso   1.000  C
  C43      1.0000 0.11180  0.92870  0.16490  Biso   1.000  C
  C44      1.0000 0.88820  0.92870  0.33510  Biso   1.000  C
  C45      1.0000 0.38820  0.57130  0.83510  Biso   1.000  C
  C46      1.0000 0.61180  0.57130  0.66490  Biso   1.000  C
  C47      1.0000 0.88820  0.07130  0.83510  Biso   1.000  C
  C48      1.0000 0.11180  0.07130  0.66490  Biso   1.000  C
  H9       1.0000 0.56680  0.35790  0.15350  Biso   1.000  H
  H10      1.0000 0.43320  0.35790  0.34650  Biso   1.000  H
  H11      1.0000 0.06680  0.85790  0.15350  Biso   1.000  H
  H12      1.0000 0.93320  0.85790  0.34650  Biso   1.000  H
  H13      1.0000 0.43320  0.64210  0.84650  Biso   1.000  H
  H14      1.0000 0.56680  0.64210  0.65350  Biso   1.000  H
  H15      1.0000 0.93320  0.14210  0.84650  Biso   1.000  H
  H16      1.0000 0.06680  0.14210  0.65350  Biso   1.000  H
  C49      1.0000 0.67220  0.63910  0.22700  Biso   1.000  C
  C50      1.0000 0.32780  0.63910  0.27300  Biso   1.000  C
  C51      1.0000 0.17220  0.13910  0.22700  Biso   1.000  C
  C52      1.0000 0.82780  0.13910  0.27300  Biso   1.000  C
  C53      1.0000 0.32780  0.36090  0.77300  Biso   1.000  C
  C54      1.0000 0.67220  0.36090  0.72700  Biso   1.000  C
  C55      1.0000 0.82780  0.86090  0.77300  Biso   1.000  C
  C56      1.0000 0.17220  0.86090  0.72700  Biso   1.000  C
  H17      1.0000 0.66990  0.71710  0.25850  Biso   1.000  H
  H18      1.0000 0.33010  0.71710  0.24150  Biso   1.000  H
  H19      1.0000 0.16990  0.21710  0.25850  Biso   1.000  H
  H20      1.0000 0.83010  0.21710  0.24150  Biso   1.000  H
  H21      1.0000 0.33010  0.28290  0.74150  Biso   1.000  H
  H22      1.0000 0.66990  0.28290  0.75850  Biso   1.000  H
  H23      1.0000 0.83010  0.78290  0.74150  Biso   1.000  H
  H24      1.0000 0.16990  0.78290  0.75850  Biso   1.000  H
  C57      1.0000 0.74450  0.62880  0.20060  Biso   1.000  C
  C58      1.0000 0.25550  0.62880  0.29940  Biso   1.000  C
  C59      1.0000 0.24450  0.12880  0.20060  Biso   1.000  C
  C60      1.0000 0.75550  0.12880  0.29940  Biso   1.000  C
  C61      1.0000 0.25550  0.37120  0.79940  Biso   1.000  C
  C62      1.0000 0.74450  0.37120  0.70060  Biso   1.000  C
  C63      1.0000 0.75550  0.87120  0.79940  Biso   1.000  C
  C64      1.0000 0.24450  0.87120  0.70060  Biso   1.000  C
  H25      1.0000 0.79000  0.69890  0.21440  Biso   1.000  H
  H26      1.0000 0.21000  0.69890  0.28560  Biso   1.000  H
  H27      1.0000 0.29000  0.19890  0.21440  Biso   1.000  H
  H28      1.0000 0.71000  0.19890  0.28560  Biso   1.000  H
  H29      1.0000 0.21000  0.30110  0.78560  Biso   1.000  H
  H30      1.0000 0.79000  0.30110  0.71440  Biso   1.000  H
  H31      1.0000 0.71000  0.80110  0.78560  Biso   1.000  H
  H32      1.0000 0.29000  0.80110  0.71440  Biso   1.000  H
  C65      1.0000 0.48670  0.99660  0.18340  Biso   1.000  C
  C66      1.0000 0.51330  0.99660  0.31660  Biso   1.000  C
  C67      1.0000 0.98670  0.49660  0.18340  Biso   1.000  C
  C68      1.0000 0.01330  0.49660  0.31660  Biso   1.000  C
  C69      1.0000 0.51330  0.00340  0.81660  Biso   1.000  C
  C70      1.0000 0.48670  0.00340  0.68340  Biso   1.000  C
  C71      1.0000 0.01330  0.50340  0.81660  Biso   1.000  C
  C72      1.0000 0.98670  0.50340  0.68340  Biso   1.000  C
  H33      1.0000 0.47770  0.04640  0.13740  Biso   1.000  H
  H34      1.0000 0.52230  0.04640  0.36260  Biso   1.000  H
  H35      1.0000 0.97770  0.54640  0.13740  Biso   1.000  H
  H36      1.0000 0.02230  0.54640  0.36260  Biso   1.000  H
  H37      1.0000 0.52230  0.95360  0.86260  Biso   1.000  H
  H38      1.0000 0.47770  0.95360  0.63740  Biso   1.000  H
  H39      1.0000 0.02230  0.45360  0.86260  Biso   1.000  H
  H40      1.0000 0.97770  0.45360  0.63740  Biso   1.000  H
  C73      1.0000 0.75010  0.51720  0.15440  Biso   1.000  C
  C74      1.0000 0.24990  0.51720  0.34560  Biso   1.000  C
  C75      1.0000 0.25010  0.01720  0.15440  Biso   1.000  C
  C76      1.0000 0.74990  0.01720  0.34560  Biso   1.000  C
  C77      1.0000 0.24990  0.48280  0.84560  Biso   1.000  C
  C78      1.0000 0.75010  0.48280  0.65440  Biso   1.000  C
  C79      1.0000 0.74990  0.98280  0.84560  Biso   1.000  C
  C80      1.0000 0.25010  0.98280  0.65440  Biso   1.000  C
  H41      1.0000 0.79860  0.51010  0.13550  Biso   1.000  H
  H42      1.0000 0.20140  0.51010  0.36450  Biso   1.000  H
  H43      1.0000 0.29860  0.01010  0.13550  Biso   1.000  H
  H44      1.0000 0.70140  0.01010  0.36450  Biso   1.000  H
  H45      1.0000 0.20140  0.48990  0.86450  Biso   1.000  H
  H46      1.0000 0.79860  0.48990  0.63550  Biso   1.000  H
  H47      1.0000 0.70140  0.98990  0.86450  Biso   1.000  H
  H48      1.0000 0.29860  0.98990  0.63550  Biso   1.000  H
  C81      1.0000 0.68160  0.41340  0.13590  Biso   1.000  C
  C82      1.0000 0.31840  0.41340  0.36410  Biso   1.000  C
  C83      1.0000 0.18160  0.91340  0.13590  Biso   1.000  C
  C84      1.0000 0.81840  0.91340  0.36410  Biso   1.000  C
  C85      1.0000 0.31840  0.58660  0.86410  Biso   1.000  C
  C86      1.0000 0.68160  0.58660  0.63590  Biso   1.000  C
  C87      1.0000 0.81840  0.08660  0.86410  Biso   1.000  C
  C88      1.0000 0.18160  0.08660  0.63590  Biso   1.000  C
  H49      1.0000 0.68330  0.33500  0.10440  Biso   1.000  H
  H50      1.0000 0.31670  0.33500  0.39560  Biso   1.000  H
  H51      1.0000 0.18330  0.83500  0.10440  Biso   1.000  H
  H52      1.0000 0.81670  0.83500  0.39560  Biso   1.000  H
  H53      1.0000 0.31670  0.66500  0.89560  Biso   1.000  H
  H54      1.0000 0.68330  0.66500  0.60440  Biso   1.000  H
  H55      1.0000 0.81670  0.16500  0.89560  Biso   1.000  H
  H56      1.0000 0.18330  0.16500  0.60440  Biso   1.000  H
  O9       1.0000 0.61920  0.57650  0.41830  Biso   1.000  O
  O10      1.0000 0.38080  0.57650  0.08170  Biso   1.000  O
  O11      1.0000 0.11920  0.07650  0.41830  Biso   1.000  O
  O12      1.0000 0.88080  0.07650  0.08170  Biso   1.000  O
  O13      1.0000 0.38080  0.42350  0.58170  Biso   1.000  O
  O14      1.0000 0.61920  0.42350  0.91830  Biso   1.000  O
  O15      1.0000 0.88080  0.92350  0.58170  Biso   1.000  O
  O16      1.0000 0.11920  0.92350  0.91830  Biso   1.000  O
  C89      1.0000 0.50000  0.06920  0.25000  Biso   1.000  C
  C90      1.0000 0.00000  0.56920  0.25000  Biso   1.000  C
  C91      1.0000 0.50000  0.93080  0.75000  Biso   1.000  C
  C92      1.0000 0.00000  0.43080  0.75000  Biso   1.000  C
  H57      1.0000 0.50000  0.17020  0.25000  Biso   1.000  H
  H58      1.0000 0.00000  0.67020  0.25000  Biso   1.000  H
  H59      1.0000 0.50000  0.82980  0.75000  Biso   1.000  H
  H60      1.0000 0.00000  0.32980  0.75000  Biso   1.000  H
