data_image0
_cell_length_a       10.89
_cell_length_b       10.8796
_cell_length_c       13.672
_cell_angle_alpha    90
_cell_angle_beta     108.386
_cell_angle_gamma    90

_symmetry_space_group_name_H-M    "P 1"
_symmetry_int_tables_number       1

loop_
  _symmetry_equiv_pos_as_xyz
  'x, y, z'

loop_
  _atom_site_label
  _atom_site_occupancy
  _atom_site_fract_x
  _atom_site_fract_y
  _atom_site_fract_z
  _atom_site_thermal_displace_type
  _atom_site_B_iso_or_equiv
  _atom_site_type_symbol
  Cu1      1.0000 0.79135  0.80724  0.85336  Biso   1.000  Cu
  Cu2      1.0000 0.70865  0.80724  0.64664  Biso   1.000  Cu
  Cu3      1.0000 0.20865  0.19276  0.14664  Biso   1.000  Cu
  Cu4      1.0000 0.29135  0.19276  0.35336  Biso   1.000  Cu
  C1       1.0000 0.75000  0.03970  0.75000  Biso   1.000  C
  C2       1.0000 0.25000  0.96030  0.25000  Biso   1.000  C
  C3       1.0000 0.75000  0.17860  0.75000  Biso   1.000  C
  C4       1.0000 0.25000  0.82140  0.25000  Biso   1.000  C
  C5       1.0000 0.79090  0.24410  0.84220  Biso   1.000  C
  C6       1.0000 0.70910  0.24410  0.65780  Biso   1.000  C
  C7       1.0000 0.20910  0.75590  0.15780  Biso   1.000  C
  C8       1.0000 0.29090  0.75590  0.34220  Biso   1.000  C
  H1       1.0000 0.81830  0.20190  0.90450  Biso   1.000  H
  H2       1.0000 0.68170  0.20190  0.59550  Biso   1.000  H
  H3       1.0000 0.18170  0.79810  0.09550  Biso   1.000  H
  H4       1.0000 0.31830  0.79810  0.40450  Biso   1.000  H
  C9       1.0000 0.79110  0.36970  0.84190  Biso   1.000  C
  C10      1.0000 0.70890  0.36970  0.65810  Biso   1.000  C
  C11      1.0000 0.20890  0.63030  0.15810  Biso   1.000  C
  C12      1.0000 0.29110  0.63030  0.34190  Biso   1.000  C
  H5       1.0000 0.81900  0.41210  0.90410  Biso   1.000  H
  H6       1.0000 0.68100  0.41210  0.59590  Biso   1.000  H
  H7       1.0000 0.18100  0.58790  0.09590  Biso   1.000  H
  H8       1.0000 0.31900  0.58790  0.40410  Biso   1.000  H
  C13      1.0000 0.75000  0.43460  0.75000  Biso   1.000  C
  C14      1.0000 0.25000  0.56540  0.25000  Biso   1.000  C
  C15      1.0000 0.75000  0.57330  0.75000  Biso   1.000  C
  C16      1.0000 0.25000  0.42670  0.25000  Biso   1.000  C
  C17      1.0000 0.88980  0.90660  0.07850  Biso   1.000  C
  C18      1.0000 0.61020  0.90660  0.42150  Biso   1.000  C
  C19      1.0000 0.11020  0.09340  0.92150  Biso   1.000  C
  C20      1.0000 0.38980  0.09340  0.57850  Biso   1.000  C
  H9       1.0000 0.89290  0.98630  0.05480  Biso   1.000  H
  H10      1.0000 0.60710  0.98630  0.44520  Biso   1.000  H
  H11      1.0000 0.10710  0.01370  0.94520  Biso   1.000  H
  H12      1.0000 0.39290  0.01370  0.55480  Biso   1.000  H
  C21      1.0000 0.91750  0.87490  0.17760  Biso   1.000  C
  C22      1.0000 0.58250  0.87490  0.32240  Biso   1.000  C
  C23      1.0000 0.08250  0.12510  0.82240  Biso   1.000  C
  C24      1.0000 0.41750  0.12510  0.67760  Biso   1.000  C
  H13      1.0000 0.94200  0.92750  0.23410  Biso   1.000  H
  H14      1.0000 0.55800  0.92750  0.26590  Biso   1.000  H
  H15      1.0000 0.05800  0.07250  0.76590  Biso   1.000  H
  H16      1.0000 0.44200  0.07250  0.73410  Biso   1.000  H
  C25      1.0000 0.86760  0.71280  0.08090  Biso   1.000  C
  C26      1.0000 0.63240  0.71280  0.41910  Biso   1.000  C
  C27      1.0000 0.13240  0.28720  0.91910  Biso   1.000  C
  C28      1.0000 0.36760  0.28720  0.58090  Biso   1.000  C
  H17      1.0000 0.85310  0.63120  0.06050  Biso   1.000  H
  H18      1.0000 0.64690  0.63120  0.43950  Biso   1.000  H
  H19      1.0000 0.14690  0.36880  0.93950  Biso   1.000  H
  H20      1.0000 0.35310  0.36880  0.56050  Biso   1.000  H
  C29      1.0000 0.92520  0.67530  0.27010  Biso   1.000  C
  C30      1.0000 0.57480  0.67530  0.22990  Biso   1.000  C
  C31      1.0000 0.07480  0.32470  0.72990  Biso   1.000  C
  C32      1.0000 0.42520  0.32470  0.77010  Biso   1.000  C
  C33      1.0000 0.91310  0.72690  0.35890  Biso   1.000  C
  C34      1.0000 0.58690  0.72690  0.14110  Biso   1.000  C
  C35      1.0000 0.08690  0.27310  0.64110  Biso   1.000  C
  C36      1.0000 0.41310  0.27310  0.85890  Biso   1.000  C
  H21      1.0000 0.88730  0.80840  0.35890  Biso   1.000  H
  H22      1.0000 0.61270  0.80840  0.14110  Biso   1.000  H
  H23      1.0000 0.11270  0.19160  0.64110  Biso   1.000  H
  H24      1.0000 0.38730  0.19160  0.85890  Biso   1.000  H
  C37      1.0000 0.93940  0.65700  0.44780  Biso   1.000  C
  C38      1.0000 0.56060  0.65700  0.05220  Biso   1.000  C
  C39      1.0000 0.06060  0.34300  0.55220  Biso   1.000  C
  C40      1.0000 0.43940  0.34300  0.94780  Biso   1.000  C
  H25      1.0000 0.92780  0.69140  0.50650  Biso   1.000  H
  H26      1.0000 0.57220  0.69140  0.99350  Biso   1.000  H
  H27      1.0000 0.07220  0.30860  0.49350  Biso   1.000  H
  H28      1.0000 0.42780  0.30860  0.00650  Biso   1.000  H
  C41      1.0000 0.98270  0.53650  0.45120  Biso   1.000  C
  C42      1.0000 0.51730  0.53650  0.04880  Biso   1.000  C
  C43      1.0000 0.01730  0.46350  0.54880  Biso   1.000  C
  C44      1.0000 0.48270  0.46350  0.95120  Biso   1.000  C
  C45      1.0000 0.98950  0.48700  0.36010  Biso   1.000  C
  C46      1.0000 0.51050  0.48700  0.13990  Biso   1.000  C
  C47      1.0000 0.01050  0.51300  0.63990  Biso   1.000  C
  C48      1.0000 0.48950  0.51300  0.86010  Biso   1.000  C
  H29      1.0000 0.01430  0.40530  0.35930  Biso   1.000  H
  H30      1.0000 0.48570  0.40530  0.14070  Biso   1.000  H
  H31      1.0000 0.98570  0.59470  0.64070  Biso   1.000  H
  H32      1.0000 0.51430  0.59470  0.85930  Biso   1.000  H
  C49      1.0000 0.96080  0.55440  0.27040  Biso   1.000  C
  C50      1.0000 0.53920  0.55440  0.22960  Biso   1.000  C
  C51      1.0000 0.03920  0.44560  0.72960  Biso   1.000  C
  C52      1.0000 0.46080  0.44560  0.77040  Biso   1.000  C
  H33      1.0000 0.96570  0.51800  0.21010  Biso   1.000  H
  H34      1.0000 0.53430  0.51800  0.28990  Biso   1.000  H
  H35      1.0000 0.03430  0.48200  0.78990  Biso   1.000  H
  H36      1.0000 0.46570  0.48200  0.71010  Biso   1.000  H
  C53      1.0000 0.15030  0.82050  0.65910  Biso   1.000  C
  C54      1.0000 0.34970  0.82050  0.84090  Biso   1.000  C
  C55      1.0000 0.84970  0.17950  0.34090  Biso   1.000  C
  C56      1.0000 0.65030  0.17950  0.15910  Biso   1.000  C
  H37      1.0000 0.08310  0.82420  0.59700  Biso   1.000  H
  H38      1.0000 0.41690  0.82420  0.90300  Biso   1.000  H
  H39      1.0000 0.91690  0.17580  0.40300  Biso   1.000  H
  H40      1.0000 0.58310  0.17580  0.09700  Biso   1.000  H
  C57      1.0000 0.27660  0.81830  0.65850  Biso   1.000  C
  C58      1.0000 0.22340  0.81830  0.84150  Biso   1.000  C
  C59      1.0000 0.72340  0.18170  0.34150  Biso   1.000  C
  C60      1.0000 0.77660  0.18170  0.15850  Biso   1.000  C
  H41      1.0000 0.29350  0.81750  0.59590  Biso   1.000  H
  H42      1.0000 0.20650  0.81750  0.90410  Biso   1.000  H
  H43      1.0000 0.70650  0.18250  0.40410  Biso   1.000  H
  H44      1.0000 0.79350  0.18250  0.09590  Biso   1.000  H
  C61      1.0000 0.12240  0.81720  0.75150  Biso   1.000  C
  C62      1.0000 0.37760  0.81720  0.74850  Biso   1.000  C
  C63      1.0000 0.87760  0.18280  0.24850  Biso   1.000  C
  C64      1.0000 0.62240  0.18280  0.25150  Biso   1.000  C
  C65      1.0000 0.98440  0.81240  0.75200  Biso   1.000  C
  C66      1.0000 0.51560  0.81240  0.74800  Biso   1.000  C
  C67      1.0000 0.01560  0.18760  0.24800  Biso   1.000  C
  C68      1.0000 0.48440  0.18760  0.25200  Biso   1.000  C
  N1       1.0000 0.85600  0.80460  0.01690  Biso   1.000  N
  N2       1.0000 0.64400  0.80460  0.48310  Biso   1.000  N
  N3       1.0000 0.14400  0.19540  0.98310  Biso   1.000  N
  N4       1.0000 0.35600  0.19540  0.51690  Biso   1.000  N
  N5       1.0000 0.90290  0.74990  0.17978  Biso   1.000  N
  N6       1.0000 0.59710  0.74990  0.32022  Biso   1.000  N
  N7       1.0000 0.09710  0.25010  0.82022  Biso   1.000  N
  N8       1.0000 0.40290  0.25010  0.67978  Biso   1.000  N
  O1       1.0000 0.77820  0.98709  0.83618  Biso   1.000  O
  O2       1.0000 0.72180  0.98709  0.66382  Biso   1.000  O
  O3       1.0000 0.22180  0.01291  0.16382  Biso   1.000  O
  O4       1.0000 0.27820  0.01291  0.33618  Biso   1.000  O
  O5       1.0000 0.78930  0.62639  0.83615  Biso   1.000  O
  O6       1.0000 0.71070  0.62639  0.66385  Biso   1.000  O
  O7       1.0000 0.21070  0.37361  0.16385  Biso   1.000  O
  O8       1.0000 0.28930  0.37361  0.33615  Biso   1.000  O
  O9       1.0000 0.96610  0.81432  0.83755  Biso   1.000  O
  O10      1.0000 0.53390  0.81432  0.66245  Biso   1.000  O
  O11      1.0000 0.03390  0.18568  0.16245  Biso   1.000  O
  O12      1.0000 0.46610  0.18568  0.33755  Biso   1.000  O
  O13      1.0000 0.89740  0.80495  0.66571  Biso   1.000  O
  O14      1.0000 0.60260  0.80495  0.83429  Biso   1.000  O
  O15      1.0000 0.10260  0.19505  0.33429  Biso   1.000  O
  O16      1.0000 0.39740  0.19505  0.16571  Biso   1.000  O
