data_image0
_cell_length_a       9.0054
_cell_length_b       20.5792
_cell_length_c       13.5181
_cell_angle_alpha    90
_cell_angle_beta     99.438
_cell_angle_gamma    90

_symmetry_space_group_name_H-M    "P 1"
_symmetry_int_tables_number       1

loop_
  _symmetry_equiv_pos_as_xyz
  'x, y, z'

loop_
  _atom_site_label
  _atom_site_occupancy
  _atom_site_fract_x
  _atom_site_fract_y
  _atom_site_fract_z
  _atom_site_thermal_displace_type
  _atom_site_B_iso_or_equiv
  _atom_site_type_symbol
  Cu1      1.0000 0.14429  0.71158  0.37718  Biso   1.000  Cu
  Cu2      1.0000 0.35571  0.21158  0.12282  Biso   1.000  Cu
  Cu3      1.0000 0.85571  0.28842  0.62282  Biso   1.000  Cu
  Cu4      1.0000 0.64429  0.78842  0.87718  Biso   1.000  Cu
  Cu5      1.0000 0.00000  0.50000  0.50000  Biso   1.000  Cu
  Cu6      1.0000 0.50000  0.00000  0.00000  Biso   1.000  Cu
  C1       1.0000 0.89290  0.59956  0.35700  Biso   1.000  C
  C2       1.0000 0.60710  0.09956  0.14300  Biso   1.000  C
  C3       1.0000 0.10710  0.40044  0.64300  Biso   1.000  C
  C4       1.0000 0.39290  0.90044  0.85700  Biso   1.000  C
  C5       1.0000 0.76590  0.63713  0.29660  Biso   1.000  C
  C6       1.0000 0.73410  0.13713  0.20340  Biso   1.000  C
  C7       1.0000 0.23410  0.36287  0.70340  Biso   1.000  C
  C8       1.0000 0.26590  0.86287  0.79660  Biso   1.000  C
  C9       1.0000 0.62620  0.64241  0.32870  Biso   1.000  C
  C10      1.0000 0.87380  0.14241  0.17130  Biso   1.000  C
  C11      1.0000 0.37380  0.35759  0.67130  Biso   1.000  C
  C12      1.0000 0.12620  0.85759  0.82870  Biso   1.000  C
  H1       1.0000 0.60950  0.62080  0.38630  Biso   1.000  H
  H2       1.0000 0.89050  0.12080  0.11370  Biso   1.000  H
  H3       1.0000 0.39050  0.37920  0.61370  Biso   1.000  H
  H4       1.0000 0.10950  0.87920  0.88630  Biso   1.000  H
  C13      1.0000 0.36650  0.68698  0.31050  Biso   1.000  C
  C14      1.0000 0.13350  0.18698  0.18950  Biso   1.000  C
  C15      1.0000 0.63350  0.31302  0.68950  Biso   1.000  C
  C16      1.0000 0.86650  0.81302  0.81050  Biso   1.000  C
  C17      1.0000 0.51330  0.67968  0.27490  Biso   1.000  C
  C18      1.0000 0.98670  0.17968  0.22510  Biso   1.000  C
  C19      1.0000 0.48670  0.32032  0.72510  Biso   1.000  C
  C20      1.0000 0.01330  0.82032  0.77490  Biso   1.000  C
  C21      1.0000 0.53710  0.71148  0.18660  Biso   1.000  C
  C22      1.0000 0.96290  0.21148  0.31340  Biso   1.000  C
  C23      1.0000 0.46290  0.28852  0.81340  Biso   1.000  C
  C24      1.0000 0.03710  0.78852  0.68660  Biso   1.000  C
  H5       1.0000 0.46100  0.73670  0.15070  Biso   1.000  H
  H6       1.0000 0.03900  0.23670  0.34930  Biso   1.000  H
  H7       1.0000 0.53900  0.26330  0.84930  Biso   1.000  H
  H8       1.0000 0.96100  0.76330  0.65070  Biso   1.000  H
  C25      1.0000 0.70310  0.73440  0.05610  Biso   1.000  C
  C26      1.0000 0.79690  0.23440  0.44390  Biso   1.000  C
  C27      1.0000 0.29690  0.26560  0.94390  Biso   1.000  C
  C28      1.0000 0.20310  0.76560  0.55610  Biso   1.000  C
  C29      1.0000 0.67370  0.70527  0.15330  Biso   1.000  C
  C30      1.0000 0.82630  0.20527  0.34670  Biso   1.000  C
  C31      1.0000 0.32630  0.29473  0.84670  Biso   1.000  C
  C32      1.0000 0.17370  0.79473  0.65330  Biso   1.000  C
  C33      1.0000 0.78790  0.66807  0.20960  Biso   1.000  C
  C34      1.0000 0.71210  0.16807  0.29040  Biso   1.000  C
  C35      1.0000 0.21210  0.33193  0.79040  Biso   1.000  C
  C36      1.0000 0.28790  0.83193  0.70960  Biso   1.000  C
  H9       1.0000 0.88030  0.66420  0.18790  Biso   1.000  H
  H10      1.0000 0.61970  0.16420  0.31210  Biso   1.000  H
  H11      1.0000 0.11970  0.33580  0.81210  Biso   1.000  H
  H12      1.0000 0.38030  0.83580  0.68790  Biso   1.000  H
  C37      1.0000 0.96180  0.80850  0.23830  Biso   1.000  C
  C38      1.0000 0.53820  0.30850  0.26170  Biso   1.000  C
  C39      1.0000 0.03820  0.19150  0.76170  Biso   1.000  C
  C40      1.0000 0.46180  0.69150  0.73830  Biso   1.000  C
  H13      1.0000 0.01040  0.80060  0.18390  Biso   1.000  H
  H14      1.0000 0.48960  0.30060  0.31610  Biso   1.000  H
  H15      1.0000 0.98960  0.19940  0.81610  Biso   1.000  H
  H16      1.0000 0.51040  0.69940  0.68390  Biso   1.000  H
  C41      1.0000 0.85330  0.85270  0.24080  Biso   1.000  C
  C42      1.0000 0.64670  0.35270  0.25920  Biso   1.000  C
  C43      1.0000 0.14670  0.14730  0.75920  Biso   1.000  C
  C44      1.0000 0.35330  0.64730  0.74080  Biso   1.000  C
  H17      1.0000 0.81370  0.88080  0.18930  Biso   1.000  H
  H18      1.0000 0.68630  0.38080  0.31070  Biso   1.000  H
  H19      1.0000 0.18630  0.11920  0.81070  Biso   1.000  H
  H20      1.0000 0.31370  0.61920  0.68930  Biso   1.000  H
  C45      1.0000 0.89780  0.80190  0.38360  Biso   1.000  C
  C46      1.0000 0.60220  0.30190  0.11640  Biso   1.000  C
  C47      1.0000 0.10220  0.19810  0.61640  Biso   1.000  C
  C48      1.0000 0.39780  0.69810  0.88360  Biso   1.000  C
  H21      1.0000 0.89150  0.78950  0.44890  Biso   1.000  H
  H22      1.0000 0.60850  0.28950  0.05110  Biso   1.000  H
  H23      1.0000 0.10850  0.21050  0.55110  Biso   1.000  H
  H24      1.0000 0.39150  0.71050  0.94890  Biso   1.000  H
  C49      1.0000 0.71320  0.89110  0.37630  Biso   1.000  C
  C50      1.0000 0.78680  0.39110  0.12370  Biso   1.000  C
  C51      1.0000 0.28680  0.10890  0.62370  Biso   1.000  C
  C52      1.0000 0.21320  0.60890  0.87630  Biso   1.000  C
  C53      1.0000 0.68040  0.95180  0.33720  Biso   1.000  C
  C54      1.0000 0.81960  0.45180  0.16280  Biso   1.000  C
  C55      1.0000 0.31960  0.04820  0.66280  Biso   1.000  C
  C56      1.0000 0.18040  0.54820  0.83720  Biso   1.000  C
  H25      1.0000 0.71390  0.96480  0.27880  Biso   1.000  H
  H26      1.0000 0.78610  0.46480  0.22120  Biso   1.000  H
  H27      1.0000 0.28610  0.03520  0.72120  Biso   1.000  H
  H28      1.0000 0.21390  0.53520  0.77880  Biso   1.000  H
  C57      1.0000 0.59540  0.99380  0.38690  Biso   1.000  C
  C58      1.0000 0.90460  0.49380  0.11310  Biso   1.000  C
  C59      1.0000 0.40460  0.00620  0.61310  Biso   1.000  C
  C60      1.0000 0.09540  0.50620  0.88690  Biso   1.000  C
  H29      1.0000 0.57370  0.03510  0.36050  Biso   1.000  H
  H30      1.0000 0.92630  0.53510  0.13950  Biso   1.000  H
  H31      1.0000 0.42630  0.96490  0.63950  Biso   1.000  H
  H32      1.0000 0.07370  0.46490  0.86050  Biso   1.000  H
  C61      1.0000 0.54250  0.97680  0.47300  Biso   1.000  C
  C62      1.0000 0.95750  0.47680  0.02700  Biso   1.000  C
  C63      1.0000 0.45750  0.02320  0.52700  Biso   1.000  C
  C64      1.0000 0.04250  0.52320  0.97300  Biso   1.000  C
  C65      1.0000 0.57270  0.91440  0.50500  Biso   1.000  C
  C66      1.0000 0.92730  0.41440  0.99500  Biso   1.000  C
  C67      1.0000 0.42730  0.08560  0.49500  Biso   1.000  C
  C68      1.0000 0.07270  0.58560  0.00500  Biso   1.000  C
  H33      1.0000 0.53610  0.90020  0.56170  Biso   1.000  H
  H34      1.0000 0.96390  0.40020  0.93830  Biso   1.000  H
  H35      1.0000 0.46390  0.09980  0.43830  Biso   1.000  H
  H36      1.0000 0.03610  0.59980  0.06170  Biso   1.000  H
  C69      1.0000 0.65470  0.87150  0.45730  Biso   1.000  C
  C70      1.0000 0.84530  0.37150  0.04270  Biso   1.000  C
  C71      1.0000 0.34530  0.12850  0.54270  Biso   1.000  C
  C72      1.0000 0.15470  0.62850  0.95730  Biso   1.000  C
  H37      1.0000 0.66980  0.82910  0.48070  Biso   1.000  H
  H38      1.0000 0.83020  0.32910  0.01930  Biso   1.000  H
  H39      1.0000 0.33020  0.17090  0.51930  Biso   1.000  H
  H40      1.0000 0.16980  0.67090  0.98070  Biso   1.000  H
  C73      1.0000 0.91240  0.60979  0.62590  Biso   1.000  C
  C74      1.0000 0.58760  0.10979  0.87410  Biso   1.000  C
  C75      1.0000 0.08760  0.39021  0.37410  Biso   1.000  C
  C76      1.0000 0.41240  0.89021  0.12590  Biso   1.000  C
  H41      1.0000 0.95750  0.64210  0.59280  Biso   1.000  H
  H42      1.0000 0.54250  0.14210  0.90720  Biso   1.000  H
  H43      1.0000 0.04250  0.35790  0.40720  Biso   1.000  H
  H44      1.0000 0.45750  0.85790  0.09280  Biso   1.000  H
  C77      1.0000 0.83100  0.61980  0.70090  Biso   1.000  C
  C78      1.0000 0.66900  0.11980  0.79910  Biso   1.000  C
  C79      1.0000 0.16900  0.38020  0.29910  Biso   1.000  C
  C80      1.0000 0.33100  0.88020  0.20090  Biso   1.000  C
  H45      1.0000 0.81220  0.65950  0.72910  Biso   1.000  H
  H46      1.0000 0.68780  0.15950  0.77090  Biso   1.000  H
  H47      1.0000 0.18780  0.34050  0.27090  Biso   1.000  H
  H48      1.0000 0.31220  0.84050  0.22910  Biso   1.000  H
  C81      1.0000 0.83760  0.51612  0.66840  Biso   1.000  C
  C82      1.0000 0.66240  0.01612  0.83160  Biso   1.000  C
  C83      1.0000 0.16240  0.48388  0.33160  Biso   1.000  C
  C84      1.0000 0.33760  0.98388  0.16840  Biso   1.000  C
  H49      1.0000 0.82170  0.47160  0.67110  Biso   1.000  H
  H50      1.0000 0.67830  0.97160  0.82890  Biso   1.000  H
  H51      1.0000 0.17830  0.52840  0.32890  Biso   1.000  H
  H52      1.0000 0.32170  0.02840  0.17110  Biso   1.000  H
  C85      1.0000 0.70010  0.58465  0.88580  Biso   1.000  C
  C86      1.0000 0.79990  0.08465  0.61420  Biso   1.000  C
  C87      1.0000 0.29990  0.41535  0.11420  Biso   1.000  C
  C88      1.0000 0.20010  0.91535  0.38580  Biso   1.000  C
  H53      1.0000 0.75510  0.62310  0.89060  Biso   1.000  H
  H54      1.0000 0.74490  0.12310  0.60940  Biso   1.000  H
  H55      1.0000 0.24490  0.37690  0.10940  Biso   1.000  H
  H56      1.0000 0.25510  0.87690  0.39060  Biso   1.000  H
  C89      1.0000 0.62240  0.56698  0.96080  Biso   1.000  C
  C90      1.0000 0.87760  0.06698  0.53920  Biso   1.000  C
  C91      1.0000 0.37760  0.43302  0.03920  Biso   1.000  C
  C92      1.0000 0.12240  0.93302  0.46080  Biso   1.000  C
  H57      1.0000 0.62530  0.59430  0.01590  Biso   1.000  H
  H58      1.0000 0.87470  0.09430  0.48410  Biso   1.000  H
  H59      1.0000 0.37470  0.40570  0.98410  Biso   1.000  H
  H60      1.0000 0.12530  0.90570  0.51590  Biso   1.000  H
  C93      1.0000 0.53970  0.50999  0.95770  Biso   1.000  C
  C94      1.0000 0.96030  0.00999  0.54230  Biso   1.000  C
  C95      1.0000 0.46030  0.49001  0.04230  Biso   1.000  C
  C96      1.0000 0.03970  0.99001  0.45770  Biso   1.000  C
  C97      1.0000 0.53290  0.47160  0.87220  Biso   1.000  C
  C98      1.0000 0.96710  0.97160  0.62780  Biso   1.000  C
  C99      1.0000 0.46710  0.52840  0.12780  Biso   1.000  C
  C100     1.0000 0.03290  0.02840  0.37220  Biso   1.000  C
  H61      1.0000 0.47660  0.43350  0.86690  Biso   1.000  H
  H62      1.0000 0.02340  0.93350  0.63310  Biso   1.000  H
  H63      1.0000 0.52340  0.56650  0.13310  Biso   1.000  H
  H64      1.0000 0.97660  0.06650  0.36690  Biso   1.000  H
  C101     1.0000 0.60910  0.48940  0.79470  Biso   1.000  C
  C102     1.0000 0.89090  0.98940  0.70530  Biso   1.000  C
  C103     1.0000 0.39090  0.51060  0.20530  Biso   1.000  C
  C104     1.0000 0.10910  0.01060  0.29470  Biso   1.000  C
  H65      1.0000 0.60130  0.46380  0.73730  Biso   1.000  H
  H66      1.0000 0.89870  0.96380  0.76270  Biso   1.000  H
  H67      1.0000 0.39870  0.53620  0.26270  Biso   1.000  H
  H68      1.0000 0.10130  0.03620  0.23730  Biso   1.000  H
  C105     1.0000 0.69610  0.54469  0.80300  Biso   1.000  C
  C106     1.0000 0.80390  0.04469  0.69700  Biso   1.000  C
  C107     1.0000 0.30390  0.45531  0.19700  Biso   1.000  C
  C108     1.0000 0.19610  0.95531  0.30300  Biso   1.000  C
  N1       1.0000 0.99030  0.77652  0.32980  Biso   1.000  N
  N2       1.0000 0.50970  0.27652  0.17020  Biso   1.000  N
  N3       1.0000 0.00970  0.22348  0.67020  Biso   1.000  N
  N4       1.0000 0.49030  0.72348  0.82980  Biso   1.000  N
  N5       1.0000 0.81230  0.84862  0.33250  Biso   1.000  N
  N6       1.0000 0.68770  0.34862  0.16750  Biso   1.000  N
  N7       1.0000 0.18770  0.15138  0.66750  Biso   1.000  N
  N8       1.0000 0.31230  0.65138  0.83250  Biso   1.000  N
  N9       1.0000 0.91720  0.54464  0.60700  Biso   1.000  N
  N10      1.0000 0.58280  0.04464  0.89300  Biso   1.000  N
  N11      1.0000 0.08280  0.45536  0.39300  Biso   1.000  N
  N12      1.0000 0.41720  0.95536  0.10700  Biso   1.000  N
  N13      1.0000 0.78210  0.56042  0.72680  Biso   1.000  N
  N14      1.0000 0.71790  0.06042  0.77320  Biso   1.000  N
  N15      1.0000 0.21790  0.43958  0.27320  Biso   1.000  N
  N16      1.0000 0.28210  0.93958  0.22680  Biso   1.000  N
  O1       1.0000 0.85490  0.55098  0.40416  Biso   1.000  O
  O2       1.0000 0.64510  0.05098  0.09584  Biso   1.000  O
  O3       1.0000 0.14510  0.44902  0.59584  Biso   1.000  O
  O4       1.0000 0.35490  0.94902  0.90416  Biso   1.000  O
  O5       1.0000 0.02480  0.61757  0.35630  Biso   1.000  O
  O6       1.0000 0.47520  0.11757  0.14370  Biso   1.000  O
  O7       1.0000 0.97520  0.38243  0.64370  Biso   1.000  O
  O8       1.0000 0.52480  0.88243  0.85630  Biso   1.000  O
  O9       1.0000 0.34420  0.65952  0.39055  Biso   1.000  O
  O10      1.0000 0.15580  0.15952  0.10945  Biso   1.000  O
  O11      1.0000 0.65580  0.34048  0.60945  Biso   1.000  O
  O12      1.0000 0.84420  0.84048  0.89055  Biso   1.000  O
  O13      1.0000 0.26130  0.72104  0.26180  Biso   1.000  O
  O14      1.0000 0.23870  0.22104  0.23820  Biso   1.000  O
  O15      1.0000 0.73870  0.27896  0.73820  Biso   1.000  O
  O16      1.0000 0.76130  0.77896  0.76180  Biso   1.000  O
  O17      1.0000 0.80860  0.71381  0.01800  Biso   1.000  O
  O18      1.0000 0.69140  0.21381  0.48200  Biso   1.000  O
  O19      1.0000 0.19140  0.28619  0.98200  Biso   1.000  O
  O20      1.0000 0.30860  0.78619  0.51800  Biso   1.000  O
  O21      1.0000 0.61040  0.77845  0.01650  Biso   1.000  O
  O22      1.0000 0.88960  0.27845  0.48350  Biso   1.000  O
  O23      1.0000 0.38960  0.22155  0.98350  Biso   1.000  O
  O24      1.0000 0.11040  0.72155  0.51650  Biso   1.000  O
  O25      1.0000 0.24800  0.56820  0.53300  Biso   1.000  O
  O26      1.0000 0.25200  0.06820  0.96700  Biso   1.000  O
  O27      1.0000 0.75200  0.43180  0.46700  Biso   1.000  O
  O28      1.0000 0.74800  0.93180  0.03300  Biso   1.000  O
  O29      1.0000 0.46700  0.52860  0.51970  Biso   1.000  O
  O30      1.0000 0.03300  0.02860  0.98030  Biso   1.000  O
  O31      1.0000 0.53300  0.47140  0.48030  Biso   1.000  O
  O32      1.0000 0.96700  0.97140  0.01970  Biso   1.000  O
  O33      1.0000 0.62580  0.73430  0.53650  Biso   1.000  O
  O34      1.0000 0.87420  0.23430  0.96350  Biso   1.000  O
  O35      1.0000 0.37420  0.26570  0.46350  Biso   1.000  O
  O36      1.0000 0.12580  0.76570  0.03650  Biso   1.000  O
