data_image0
_cell_length_a       14.508
_cell_length_b       11.747
_cell_length_c       9.407
_cell_angle_alpha    90
_cell_angle_beta     101.805
_cell_angle_gamma    90

_symmetry_space_group_name_H-M    "P 1"
_symmetry_int_tables_number       1

loop_
  _symmetry_equiv_pos_as_xyz
  'x, y, z'

loop_
  _atom_site_label
  _atom_site_occupancy
  _atom_site_fract_x
  _atom_site_fract_y
  _atom_site_fract_z
  _atom_site_thermal_displace_type
  _atom_site_B_iso_or_equiv
  _atom_site_type_symbol
  Cu1      1.0000 0.75480  0.40947  0.14007  Biso   1.000  Cu
  Cu2      1.0000 0.24520  0.90947  0.35993  Biso   1.000  Cu
  Cu3      1.0000 0.24520  0.59053  0.85993  Biso   1.000  Cu
  Cu4      1.0000 0.75480  0.09053  0.64007  Biso   1.000  Cu
  C1       1.0000 0.58094  0.47447  0.22690  Biso   1.000  C
  C2       1.0000 0.41906  0.97447  0.27310  Biso   1.000  C
  C3       1.0000 0.41906  0.52553  0.77310  Biso   1.000  C
  C4       1.0000 0.58094  0.02553  0.72690  Biso   1.000  C
  C5       1.0000 0.53738  0.54340  0.31950  Biso   1.000  C
  C6       1.0000 0.46262  0.04340  0.18050  Biso   1.000  C
  C7       1.0000 0.46262  0.45660  0.68050  Biso   1.000  C
  C8       1.0000 0.53738  0.95660  0.81950  Biso   1.000  C
  H1       1.0000 0.57340  0.59670  0.37970  Biso   1.000  H
  H2       1.0000 0.42660  0.09670  0.12030  Biso   1.000  H
  H3       1.0000 0.42660  0.40330  0.62030  Biso   1.000  H
  H4       1.0000 0.57340  0.90330  0.87970  Biso   1.000  H
  C9       1.0000 0.44485  0.53270  0.32160  Biso   1.000  C
  C10      1.0000 0.55515  0.03270  0.17840  Biso   1.000  C
  C11      1.0000 0.55515  0.46730  0.67840  Biso   1.000  C
  C12      1.0000 0.44485  0.96730  0.82160  Biso   1.000  C
  H5       1.0000 0.41940  0.57740  0.38550  Biso   1.000  H
  H6       1.0000 0.58060  0.07740  0.11450  Biso   1.000  H
  H7       1.0000 0.58060  0.42260  0.61450  Biso   1.000  H
  H8       1.0000 0.41940  0.92260  0.88550  Biso   1.000  H
  C13      1.0000 0.38571  0.45590  0.22990  Biso   1.000  C
  C14      1.0000 0.61429  0.95590  0.27010  Biso   1.000  C
  C15      1.0000 0.61429  0.54410  0.77010  Biso   1.000  C
  C16      1.0000 0.38571  0.04410  0.72990  Biso   1.000  C
  C17      1.0000 0.28967  0.44440  0.23610  Biso   1.000  C
  C18      1.0000 0.71033  0.94440  0.26390  Biso   1.000  C
  C19      1.0000 0.71033  0.55560  0.76390  Biso   1.000  C
  C20      1.0000 0.28967  0.05560  0.73610  Biso   1.000  C
  H9       1.0000 0.26570  0.48640  0.30410  Biso   1.000  H
  H10      1.0000 0.73430  0.98640  0.19590  Biso   1.000  H
  H11      1.0000 0.73430  0.51360  0.69590  Biso   1.000  H
  H12      1.0000 0.26570  0.01360  0.80410  Biso   1.000  H
  C21      1.0000 0.23200  0.37360  0.14570  Biso   1.000  C
  C22      1.0000 0.76800  0.87360  0.35430  Biso   1.000  C
  C23      1.0000 0.76800  0.62640  0.85430  Biso   1.000  C
  C24      1.0000 0.23200  0.12640  0.64570  Biso   1.000  C
  H13      1.0000 0.16930  0.36590  0.15250  Biso   1.000  H
  H14      1.0000 0.83070  0.86590  0.34750  Biso   1.000  H
  H15      1.0000 0.83070  0.63410  0.84750  Biso   1.000  H
  H16      1.0000 0.16930  0.13410  0.65250  Biso   1.000  H
  C25      1.0000 0.26763  0.31220  0.04170  Biso   1.000  C
  C26      1.0000 0.73237  0.81220  0.45830  Biso   1.000  C
  C27      1.0000 0.73237  0.68780  0.95830  Biso   1.000  C
  C28      1.0000 0.26763  0.18780  0.54170  Biso   1.000  C
  H17      1.0000 0.22790  0.26470  0.97760  Biso   1.000  H
  H18      1.0000 0.77210  0.76470  0.52240  Biso   1.000  H
  H19      1.0000 0.77210  0.73530  0.02240  Biso   1.000  H
  H20      1.0000 0.22790  0.23530  0.47760  Biso   1.000  H
  C29      1.0000 0.36069  0.32110  0.03310  Biso   1.000  C
  C30      1.0000 0.63931  0.82110  0.46690  Biso   1.000  C
  C31      1.0000 0.63931  0.67890  0.96690  Biso   1.000  C
  C32      1.0000 0.36069  0.17890  0.53310  Biso   1.000  C
  H21      1.0000 0.38270  0.28010  0.96220  Biso   1.000  H
  H22      1.0000 0.61730  0.78010  0.53780  Biso   1.000  H
  H23      1.0000 0.61730  0.71990  0.03780  Biso   1.000  H
  H24      1.0000 0.38270  0.21990  0.46220  Biso   1.000  H
  C33      1.0000 0.42367  0.39105  0.12920  Biso   1.000  C
  C34      1.0000 0.57633  0.89105  0.37080  Biso   1.000  C
  C35      1.0000 0.57633  0.60895  0.87080  Biso   1.000  C
  C36      1.0000 0.42367  0.10895  0.62920  Biso   1.000  C
  C37      1.0000 0.52409  0.39925  0.12970  Biso   1.000  C
  C38      1.0000 0.47591  0.89925  0.37030  Biso   1.000  C
  C39      1.0000 0.47591  0.60075  0.87030  Biso   1.000  C
  C40      1.0000 0.52409  0.10075  0.62970  Biso   1.000  C
  C41      1.0000 0.56303  0.33185  0.03110  Biso   1.000  C
  C42      1.0000 0.43697  0.83185  0.46890  Biso   1.000  C
  C43      1.0000 0.43697  0.66815  0.96890  Biso   1.000  C
  C44      1.0000 0.56303  0.16815  0.53110  Biso   1.000  C
  H25      1.0000 0.52140  0.28840  0.96430  Biso   1.000  H
  H26      1.0000 0.47860  0.78840  0.53570  Biso   1.000  H
  H27      1.0000 0.47860  0.71160  0.03570  Biso   1.000  H
  H28      1.0000 0.52140  0.21160  0.46430  Biso   1.000  H
  C45      1.0000 0.68024  0.25177  0.91900  Biso   1.000  C
  C46      1.0000 0.31976  0.75177  0.58100  Biso   1.000  C
  C47      1.0000 0.31976  0.74823  0.08100  Biso   1.000  C
  C48      1.0000 0.68024  0.24823  0.41900  Biso   1.000  C
  H29      1.0000 0.63760  0.26120  0.82580  Biso   1.000  H
  H30      1.0000 0.36240  0.76120  0.67420  Biso   1.000  H
  H31      1.0000 0.36240  0.73880  0.17420  Biso   1.000  H
  H32      1.0000 0.63760  0.23880  0.32580  Biso   1.000  H
  H33      1.0000 0.67750  0.17290  0.94850  Biso   1.000  H
  H34      1.0000 0.32250  0.67290  0.55150  Biso   1.000  H
  H35      1.0000 0.32250  0.82710  0.05150  Biso   1.000  H
  H36      1.0000 0.67750  0.32710  0.44850  Biso   1.000  H
  C49      1.0000 0.77987  0.28074  0.90450  Biso   1.000  C
  C50      1.0000 0.22013  0.78074  0.59550  Biso   1.000  C
  C51      1.0000 0.22013  0.71926  0.09550  Biso   1.000  C
  C52      1.0000 0.77987  0.21926  0.40450  Biso   1.000  C
  C53      1.0000 0.93488  0.53070  0.16880  Biso   1.000  C
  C54      1.0000 0.06512  0.03070  0.33120  Biso   1.000  C
  C55      1.0000 0.06512  0.46930  0.83120  Biso   1.000  C
  C56      1.0000 0.93488  0.96930  0.66880  Biso   1.000  C
  H37      1.0000 0.93530  0.49590  0.08020  Biso   1.000  H
  H38      1.0000 0.06470  0.99590  0.41980  Biso   1.000  H
  H39      1.0000 0.06470  0.50410  0.91980  Biso   1.000  H
  H40      1.0000 0.93530  0.00410  0.58020  Biso   1.000  H
  C57      1.0000 0.00760  0.60140  0.22620  Biso   1.000  C
  C58      1.0000 0.99240  0.10140  0.27380  Biso   1.000  C
  C59      1.0000 0.99240  0.39860  0.77380  Biso   1.000  C
  C60      1.0000 0.00760  0.89860  0.72620  Biso   1.000  C
  H41      1.0000 0.05600  0.61460  0.17680  Biso   1.000  H
  H42      1.0000 0.94400  0.11460  0.32320  Biso   1.000  H
  H43      1.0000 0.94400  0.38540  0.82320  Biso   1.000  H
  H44      1.0000 0.05600  0.88540  0.67680  Biso   1.000  H
  C61      1.0000 0.00878  0.65230  0.35570  Biso   1.000  C
  C62      1.0000 0.99122  0.15230  0.14430  Biso   1.000  C
  C63      1.0000 0.99122  0.34770  0.64430  Biso   1.000  C
  C64      1.0000 0.00878  0.84770  0.85570  Biso   1.000  C
  H45      1.0000 0.05720  0.70170  0.39570  Biso   1.000  H
  H46      1.0000 0.94280  0.20170  0.10430  Biso   1.000  H
  H47      1.0000 0.94280  0.29830  0.60430  Biso   1.000  H
  H48      1.0000 0.05720  0.79830  0.89570  Biso   1.000  H
  C65      1.0000 0.93720  0.62940  0.42690  Biso   1.000  C
  C66      1.0000 0.06280  0.12940  0.07310  Biso   1.000  C
  C67      1.0000 0.06280  0.37060  0.57310  Biso   1.000  C
  C68      1.0000 0.93720  0.87060  0.92690  Biso   1.000  C
  H49      1.0000 0.93710  0.66130  0.51730  Biso   1.000  H
  H50      1.0000 0.06290  0.16130  0.98270  Biso   1.000  H
  H51      1.0000 0.06290  0.33870  0.48270  Biso   1.000  H
  H52      1.0000 0.93710  0.83870  0.01730  Biso   1.000  H
  C69      1.0000 0.86512  0.55790  0.36150  Biso   1.000  C
  C70      1.0000 0.13488  0.05790  0.13850  Biso   1.000  C
  C71      1.0000 0.13488  0.44210  0.63850  Biso   1.000  C
  C72      1.0000 0.86512  0.94210  0.86150  Biso   1.000  C
  H53      1.0000 0.81610  0.54360  0.40900  Biso   1.000  H
  H54      1.0000 0.18390  0.04360  0.09100  Biso   1.000  H
  H55      1.0000 0.18390  0.45640  0.59100  Biso   1.000  H
  H56      1.0000 0.81610  0.95640  0.90900  Biso   1.000  H
  N1       1.0000 0.65107  0.32565  0.02613  Biso   1.000  N
  N2       1.0000 0.34893  0.82565  0.47387  Biso   1.000  N
  N3       1.0000 0.34893  0.67435  0.97387  Biso   1.000  N
  N4       1.0000 0.65107  0.17435  0.52613  Biso   1.000  N
  N5       1.0000 0.86312  0.50919  0.23400  Biso   1.000  N
  N6       1.0000 0.13688  0.00919  0.26600  Biso   1.000  N
  N7       1.0000 0.13688  0.49081  0.76600  Biso   1.000  N
  N8       1.0000 0.86312  0.99081  0.73400  Biso   1.000  N
  O1       1.0000 0.67150  0.48556  0.24244  Biso   1.000  O
  O2       1.0000 0.32850  0.98556  0.25756  Biso   1.000  O
  O3       1.0000 0.32850  0.51444  0.75756  Biso   1.000  O
  O4       1.0000 0.67150  0.01444  0.74244  Biso   1.000  O
  O5       1.0000 0.82497  0.34878  0.99821  Biso   1.000  O
  O6       1.0000 0.17503  0.84878  0.50179  Biso   1.000  O
  O7       1.0000 0.17503  0.65122  0.00179  Biso   1.000  O
  O8       1.0000 0.82497  0.15122  0.49821  Biso   1.000  O
  O9       1.0000 0.81199  0.23568  0.80713  Biso   1.000  O
  O10      1.0000 0.18801  0.73568  0.69287  Biso   1.000  O
  O11      1.0000 0.18801  0.76432  0.19287  Biso   1.000  O
  O12      1.0000 0.81199  0.26432  0.30713  Biso   1.000  O
