data_image0
_cell_length_a       21.542
_cell_length_b       11.746
_cell_length_c       12.271
_cell_angle_alpha    90
_cell_angle_beta     104.31
_cell_angle_gamma    90

_symmetry_space_group_name_H-M    "P 1"
_symmetry_int_tables_number       1

loop_
  _symmetry_equiv_pos_as_xyz
  'x, y, z'

loop_
  _atom_site_label
  _atom_site_occupancy
  _atom_site_fract_x
  _atom_site_fract_y
  _atom_site_fract_z
  _atom_site_thermal_displace_type
  _atom_site_B_iso_or_equiv
  _atom_site_type_symbol
  Br1      1.0000 0.36048  0.10765  0.45763  Biso   1.000  Br
  Br2      1.0000 0.63952  0.60765  0.04237  Biso   1.000  Br
  Br3      1.0000 0.63952  0.89235  0.54237  Biso   1.000  Br
  Br4      1.0000 0.36048  0.39235  0.95763  Biso   1.000  Br
  Br5      1.0000 0.77833  0.73066  0.95041  Biso   1.000  Br
  Br6      1.0000 0.22167  0.23066  0.54959  Biso   1.000  Br
  Br7      1.0000 0.22167  0.26934  0.04959  Biso   1.000  Br
  Br8      1.0000 0.77833  0.76934  0.45041  Biso   1.000  Br
  Br9      1.0000 0.65085  0.30249  0.80653  Biso   1.000  Br
  Br10     1.0000 0.34915  0.80249  0.69347  Biso   1.000  Br
  Br11     1.0000 0.34915  0.69751  0.19347  Biso   1.000  Br
  Br12     1.0000 0.65085  0.19751  0.30653  Biso   1.000  Br
  Br13     1.0000 0.13503  0.89082  0.08445  Biso   1.000  Br
  Br14     1.0000 0.86497  0.39082  0.41555  Biso   1.000  Br
  Br15     1.0000 0.86497  0.10918  0.91555  Biso   1.000  Br
  Br16     1.0000 0.13503  0.60918  0.58445  Biso   1.000  Br
  Cu1      1.0000 0.51869  0.47756  0.40781  Biso   1.000  Cu
  Cu2      1.0000 0.48131  0.97756  0.09219  Biso   1.000  Cu
  Cu3      1.0000 0.48131  0.52244  0.59219  Biso   1.000  Cu
  Cu4      1.0000 0.51869  0.02244  0.90781  Biso   1.000  Cu
  Cu5      1.0000 0.02261  0.48099  0.10871  Biso   1.000  Cu
  Cu6      1.0000 0.97739  0.98099  0.39129  Biso   1.000  Cu
  Cu7      1.0000 0.97739  0.51901  0.89129  Biso   1.000  Cu
  Cu8      1.0000 0.02261  0.01901  0.60871  Biso   1.000  Cu
  N1       1.0000 0.46040  0.95560  0.25340  Biso   1.000  N
  N2       1.0000 0.53960  0.45560  0.24660  Biso   1.000  N
  N3       1.0000 0.53960  0.04440  0.74660  Biso   1.000  N
  N4       1.0000 0.46040  0.54440  0.75340  Biso   1.000  N
  N5       1.0000 0.79237  0.58870  0.65280  Biso   1.000  N
  N6       1.0000 0.20763  0.08870  0.84720  Biso   1.000  N
  N7       1.0000 0.20763  0.41130  0.34720  Biso   1.000  N
  N8       1.0000 0.79237  0.91130  0.15280  Biso   1.000  N
  N9       1.0000 0.04924  0.04760  0.78850  Biso   1.000  N
  N10      1.0000 0.95076  0.54760  0.71150  Biso   1.000  N
  N11      1.0000 0.95076  0.95240  0.21150  Biso   1.000  N
  N12      1.0000 0.04924  0.45240  0.28850  Biso   1.000  N
  N13      1.0000 0.76951  0.26950  0.12280  Biso   1.000  N
  N14      1.0000 0.23049  0.76950  0.37720  Biso   1.000  N
  N15      1.0000 0.23049  0.73050  0.87720  Biso   1.000  N
  N16      1.0000 0.76951  0.23050  0.62280  Biso   1.000  N
  O1       1.0000 0.60554  0.50980  0.49690  Biso   1.000  O
  O2       1.0000 0.39446  0.00980  0.00310  Biso   1.000  O
  O3       1.0000 0.39446  0.49020  0.50310  Biso   1.000  O
  O4       1.0000 0.60554  0.99020  0.99690  Biso   1.000  O
  O5       1.0000 0.57262  0.55550  0.65020  Biso   1.000  O
  O6       1.0000 0.42738  0.05550  0.84980  Biso   1.000  O
  O7       1.0000 0.42738  0.44450  0.34980  Biso   1.000  O
  O8       1.0000 0.57262  0.94450  0.15020  Biso   1.000  O
  O9       1.0000 0.50236  0.64210  0.38710  Biso   1.000  O
  O10      1.0000 0.49764  0.14210  0.11290  Biso   1.000  O
  O11      1.0000 0.49764  0.35790  0.61290  Biso   1.000  O
  O12      1.0000 0.50236  0.85790  0.88710  Biso   1.000  O
  O13      1.0000 0.46875  0.68270  0.54180  Biso   1.000  O
  O14      1.0000 0.53125  0.18270  0.95820  Biso   1.000  O
  O15      1.0000 0.53125  0.31730  0.45820  Biso   1.000  O
  O16      1.0000 0.46875  0.81730  0.04180  Biso   1.000  O
  O17      1.0000 0.04325  0.32620  0.06520  Biso   1.000  O
  O18      1.0000 0.95675  0.82620  0.43480  Biso   1.000  O
  O19      1.0000 0.95675  0.67380  0.93480  Biso   1.000  O
  O20      1.0000 0.04325  0.17380  0.56520  Biso   1.000  O
  O21      1.0000 0.00415  0.36130  0.88150  Biso   1.000  O
  O22      1.0000 0.99585  0.86130  0.61850  Biso   1.000  O
  O23      1.0000 0.99585  0.63870  0.11850  Biso   1.000  O
  O24      1.0000 0.00415  0.13870  0.38150  Biso   1.000  O
  O25      1.0000 0.93424  0.42810  0.09660  Biso   1.000  O
  O26      1.0000 0.06576  0.92810  0.40340  Biso   1.000  O
  O27      1.0000 0.06576  0.57190  0.90340  Biso   1.000  O
  O28      1.0000 0.93424  0.07190  0.59660  Biso   1.000  O
  O29      1.0000 0.89517  0.46370  0.91280  Biso   1.000  O
  O30      1.0000 0.10483  0.96370  0.58720  Biso   1.000  O
  O31      1.0000 0.10483  0.53630  0.08720  Biso   1.000  O
  O32      1.0000 0.89517  0.03630  0.41280  Biso   1.000  O
  C1       1.0000 0.48052  0.70790  0.45000  Biso   1.000  C
  C2       1.0000 0.51948  0.20790  0.05000  Biso   1.000  C
  C3       1.0000 0.51948  0.29210  0.55000  Biso   1.000  C
  C4       1.0000 0.48052  0.79210  0.95000  Biso   1.000  C
  C5       1.0000 0.46378  0.82490  0.40440  Biso   1.000  C
  C6       1.0000 0.53622  0.32490  0.09560  Biso   1.000  C
  C7       1.0000 0.53622  0.17510  0.59560  Biso   1.000  C
  C8       1.0000 0.46378  0.67510  0.90440  Biso   1.000  C
  C9       1.0000 0.42926  0.90030  0.45360  Biso   1.000  C
  C10      1.0000 0.57074  0.40030  0.04640  Biso   1.000  C
  C11      1.0000 0.57074  0.09970  0.54640  Biso   1.000  C
  C12      1.0000 0.42926  0.59970  0.95360  Biso   1.000  C
  H1       1.0000 0.41910  0.88210  0.52340  Biso   1.000  H
  H2       1.0000 0.58090  0.38210  0.97660  Biso   1.000  H
  H3       1.0000 0.58090  0.11790  0.47660  Biso   1.000  H
  H4       1.0000 0.41910  0.61790  0.02340  Biso   1.000  H
  C13      1.0000 0.41056  0.00270  0.40040  Biso   1.000  C
  C14      1.0000 0.58944  0.50270  0.09960  Biso   1.000  C
  C15      1.0000 0.58944  0.99730  0.59960  Biso   1.000  C
  C16      1.0000 0.41056  0.49730  0.90040  Biso   1.000  C
  C17      1.0000 0.42629  0.02790  0.29940  Biso   1.000  C
  C18      1.0000 0.57371  0.52790  0.20060  Biso   1.000  C
  C19      1.0000 0.57371  0.97210  0.70060  Biso   1.000  C
  C20      1.0000 0.42629  0.47210  0.79940  Biso   1.000  C
  H5       1.0000 0.41440  0.09490  0.26570  Biso   1.000  H
  H6       1.0000 0.58560  0.59490  0.23430  Biso   1.000  H
  H7       1.0000 0.58560  0.90510  0.73430  Biso   1.000  H
  H8       1.0000 0.41440  0.40510  0.76570  Biso   1.000  H
  C21      1.0000 0.47896  0.85670  0.30540  Biso   1.000  C
  C22      1.0000 0.52104  0.35670  0.19460  Biso   1.000  C
  C23      1.0000 0.52104  0.14330  0.69460  Biso   1.000  C
  C24      1.0000 0.47896  0.64330  0.80540  Biso   1.000  C
  H9       1.0000 0.50270  0.81040  0.27250  Biso   1.000  H
  H10      1.0000 0.49730  0.31040  0.22750  Biso   1.000  H
  H11      1.0000 0.49730  0.18960  0.72750  Biso   1.000  H
  H12      1.0000 0.50270  0.68960  0.77250  Biso   1.000  H
  C25      1.0000 0.61466  0.54400  0.59590  Biso   1.000  C
  C26      1.0000 0.38534  0.04400  0.90410  Biso   1.000  C
  C27      1.0000 0.38534  0.45600  0.40410  Biso   1.000  C
  C28      1.0000 0.61466  0.95600  0.09590  Biso   1.000  C
  C29      1.0000 0.68162  0.57640  0.65470  Biso   1.000  C
  C30      1.0000 0.31838  0.07640  0.84530  Biso   1.000  C
  C31      1.0000 0.31838  0.42360  0.34530  Biso   1.000  C
  C32      1.0000 0.68162  0.92360  0.15470  Biso   1.000  C
  C33      1.0000 0.69450  0.62700  0.76040  Biso   1.000  C
  C34      1.0000 0.30550  0.12700  0.73960  Biso   1.000  C
  C35      1.0000 0.30550  0.37300  0.23960  Biso   1.000  C
  C36      1.0000 0.69450  0.87300  0.26040  Biso   1.000  C
  H13      1.0000 0.66120  0.63940  0.79850  Biso   1.000  H
  H14      1.0000 0.33880  0.13940  0.70150  Biso   1.000  H
  H15      1.0000 0.33880  0.36060  0.20150  Biso   1.000  H
  H16      1.0000 0.66120  0.86060  0.29850  Biso   1.000  H
  C37      1.0000 0.75734  0.65860  0.80910  Biso   1.000  C
  C38      1.0000 0.24266  0.15860  0.69090  Biso   1.000  C
  C39      1.0000 0.24266  0.34140  0.19090  Biso   1.000  C
  C40      1.0000 0.75734  0.84140  0.30910  Biso   1.000  C
  C41      1.0000 0.80445  0.63890  0.75360  Biso   1.000  C
  C42      1.0000 0.19555  0.13890  0.74640  Biso   1.000  C
  C43      1.0000 0.19555  0.36110  0.24640  Biso   1.000  C
  C44      1.0000 0.80445  0.86110  0.25360  Biso   1.000  C
  H17      1.0000 0.84750  0.66190  0.78850  Biso   1.000  H
  H18      1.0000 0.15250  0.16190  0.71150  Biso   1.000  H
  H19      1.0000 0.15250  0.33810  0.21150  Biso   1.000  H
  H20      1.0000 0.84750  0.83810  0.28850  Biso   1.000  H
  C45      1.0000 0.73210  0.55860  0.60540  Biso   1.000  C
  C46      1.0000 0.26790  0.05860  0.89460  Biso   1.000  C
  C47      1.0000 0.26790  0.44140  0.39460  Biso   1.000  C
  C48      1.0000 0.73210  0.94140  0.10540  Biso   1.000  C
  H21      1.0000 0.72310  0.52280  0.53280  Biso   1.000  H
  H22      1.0000 0.27690  0.02280  0.96720  Biso   1.000  H
  H23      1.0000 0.27690  0.47720  0.46720  Biso   1.000  H
  H24      1.0000 0.72310  0.97720  0.03280  Biso   1.000  H
  C49      1.0000 0.89075  0.42750  0.00670  Biso   1.000  C
  C50      1.0000 0.10925  0.92750  0.49330  Biso   1.000  C
  C51      1.0000 0.10925  0.57250  0.99330  Biso   1.000  C
  C52      1.0000 0.89075  0.07250  0.50670  Biso   1.000  C
  C53      1.0000 0.82826  0.37490  0.01290  Biso   1.000  C
  C54      1.0000 0.17174  0.87490  0.48710  Biso   1.000  C
  C55      1.0000 0.17174  0.62510  0.98710  Biso   1.000  C
  C56      1.0000 0.82826  0.12510  0.51290  Biso   1.000  C
  C57      1.0000 0.77755  0.36850  0.91830  Biso   1.000  C
  C58      1.0000 0.22245  0.86850  0.58170  Biso   1.000  C
  C59      1.0000 0.22245  0.63150  0.08170  Biso   1.000  C
  C60      1.0000 0.77755  0.13150  0.41830  Biso   1.000  C
  H25      1.0000 0.78030  0.40120  0.84800  Biso   1.000  H
  H26      1.0000 0.21970  0.90120  0.65200  Biso   1.000  H
  H27      1.0000 0.21970  0.59880  0.15200  Biso   1.000  H
  H28      1.0000 0.78030  0.09880  0.34800  Biso   1.000  H
  C61      1.0000 0.72308  0.31280  0.92950  Biso   1.000  C
  C62      1.0000 0.27692  0.81280  0.57050  Biso   1.000  C
  C63      1.0000 0.27692  0.68720  0.07050  Biso   1.000  C
  C64      1.0000 0.72308  0.18720  0.42950  Biso   1.000  C
  C65      1.0000 0.72030  0.26480  0.03050  Biso   1.000  C
  C66      1.0000 0.27970  0.76480  0.46950  Biso   1.000  C
  C67      1.0000 0.27970  0.73520  0.96950  Biso   1.000  C
  C68      1.0000 0.72030  0.23520  0.53050  Biso   1.000  C
  H29      1.0000 0.68170  0.22660  0.03540  Biso   1.000  H
  H30      1.0000 0.31830  0.72660  0.46460  Biso   1.000  H
  H31      1.0000 0.31830  0.77340  0.96460  Biso   1.000  H
  H32      1.0000 0.68170  0.27340  0.53540  Biso   1.000  H
  C69      1.0000 0.82210  0.32530  0.11220  Biso   1.000  C
  C70      1.0000 0.17790  0.82530  0.38780  Biso   1.000  C
  C71      1.0000 0.17790  0.67470  0.88780  Biso   1.000  C
  C72      1.0000 0.82210  0.17470  0.61220  Biso   1.000  C
  H33      1.0000 0.85730  0.33130  0.17740  Biso   1.000  H
  H34      1.0000 0.14270  0.83130  0.32260  Biso   1.000  H
  H35      1.0000 0.14270  0.66870  0.82260  Biso   1.000  H
  H36      1.0000 0.85730  0.16870  0.67740  Biso   1.000  H
  C73      1.0000 0.02976  0.29860  0.96300  Biso   1.000  C
  C74      1.0000 0.97024  0.79860  0.53700  Biso   1.000  C
  C75      1.0000 0.97024  0.70140  0.03700  Biso   1.000  C
  C76      1.0000 0.02976  0.20140  0.46300  Biso   1.000  C
  C77      1.0000 0.04662  0.18140  0.93320  Biso   1.000  C
  C78      1.0000 0.95338  0.68140  0.56680  Biso   1.000  C
  C79      1.0000 0.95338  0.81860  0.06680  Biso   1.000  C
  C80      1.0000 0.04662  0.31860  0.43320  Biso   1.000  C
  C81      1.0000 0.07623  0.10350  0.01490  Biso   1.000  C
  C82      1.0000 0.92377  0.60350  0.48510  Biso   1.000  C
  C83      1.0000 0.92377  0.89650  0.98510  Biso   1.000  C
  C84      1.0000 0.07623  0.39650  0.51490  Biso   1.000  C
  H37      1.0000 0.08410  0.12300  0.09500  Biso   1.000  H
  H38      1.0000 0.91590  0.62300  0.40500  Biso   1.000  H
  H39      1.0000 0.91590  0.87700  0.90500  Biso   1.000  H
  H40      1.0000 0.08410  0.37700  0.59500  Biso   1.000  H
  C85      1.0000 0.09175  0.99900  0.97900  Biso   1.000  C
  C86      1.0000 0.90825  0.49900  0.52100  Biso   1.000  C
  C87      1.0000 0.90825  0.00100  0.02100  Biso   1.000  C
  C88      1.0000 0.09175  0.50100  0.47900  Biso   1.000  C
  C89      1.0000 0.07778  0.97290  0.86580  Biso   1.000  C
  C90      1.0000 0.92222  0.47290  0.63420  Biso   1.000  C
  C91      1.0000 0.92222  0.02710  0.13420  Biso   1.000  C
  C92      1.0000 0.07778  0.52710  0.36580  Biso   1.000  C
  H41      1.0000 0.08920  0.89930  0.84280  Biso   1.000  H
  H42      1.0000 0.91080  0.39930  0.65720  Biso   1.000  H
  H43      1.0000 0.91080  0.10070  0.15720  Biso   1.000  H
  H44      1.0000 0.08920  0.60070  0.34280  Biso   1.000  H
  C93      1.0000 0.03400  0.14940  0.82200  Biso   1.000  C
  C94      1.0000 0.96600  0.64940  0.67800  Biso   1.000  C
  C95      1.0000 0.96600  0.85060  0.17800  Biso   1.000  C
  C96      1.0000 0.03400  0.35060  0.32200  Biso   1.000  C
  H45      1.0000 0.01140  0.20120  0.76260  Biso   1.000  H
  H46      1.0000 0.98860  0.70120  0.73740  Biso   1.000  H
  H47      1.0000 0.98860  0.79880  0.23740  Biso   1.000  H
  H48      1.0000 0.01140  0.29880  0.26260  Biso   1.000  H
