data_image0
_cell_length_a       11.2259
_cell_length_b       11.646
_cell_length_c       12.8181
_cell_angle_alpha    90
_cell_angle_beta     116.694
_cell_angle_gamma    90

_symmetry_space_group_name_H-M    "P 1"
_symmetry_int_tables_number       1

loop_
  _symmetry_equiv_pos_as_xyz
  'x, y, z'

loop_
  _atom_site_label
  _atom_site_occupancy
  _atom_site_fract_x
  _atom_site_fract_y
  _atom_site_fract_z
  _atom_site_thermal_displace_type
  _atom_site_B_iso_or_equiv
  _atom_site_type_symbol
  O1       1.0000 0.64500  0.43530  0.43920  Biso   1.000  O
  O2       1.0000 0.35500  0.93530  0.06080  Biso   1.000  O
  O3       1.0000 0.35500  0.56470  0.56080  Biso   1.000  O
  O4       1.0000 0.64500  0.06470  0.93920  Biso   1.000  O
  Br1      1.0000 0.24136  0.87210  0.39945  Biso   1.000  Br
  Br2      1.0000 0.75864  0.37210  0.10055  Biso   1.000  Br
  Br3      1.0000 0.75864  0.12790  0.60055  Biso   1.000  Br
  Br4      1.0000 0.24136  0.62790  0.89945  Biso   1.000  Br
  Br5      1.0000 0.06356  0.26024  0.39047  Biso   1.000  Br
  Br6      1.0000 0.93644  0.76024  0.10953  Biso   1.000  Br
  Br7      1.0000 0.93644  0.73976  0.60953  Biso   1.000  Br
  Br8      1.0000 0.06356  0.23976  0.89047  Biso   1.000  Br
  Cu1      1.0000 0.45688  0.47341  0.38811  Biso   1.000  Cu
  Cu2      1.0000 0.54312  0.97341  0.11189  Biso   1.000  Cu
  Cu3      1.0000 0.54312  0.52659  0.61189  Biso   1.000  Cu
  Cu4      1.0000 0.45688  0.02659  0.88811  Biso   1.000  Cu
  O5       1.0000 0.42720  0.31550  0.42970  Biso   1.000  O
  O6       1.0000 0.57280  0.81550  0.07030  Biso   1.000  O
  O7       1.0000 0.57280  0.68450  0.57030  Biso   1.000  O
  O8       1.0000 0.42720  0.18450  0.92970  Biso   1.000  O
  O9       1.0000 0.50020  0.36290  0.61740  Biso   1.000  O
  O10      1.0000 0.49980  0.86290  0.88260  Biso   1.000  O
  O11      1.0000 0.49980  0.63710  0.38260  Biso   1.000  O
  O12      1.0000 0.50020  0.13710  0.11740  Biso   1.000  O
  O13      1.0000 0.71910  0.48190  0.62810  Biso   1.000  O
  O14      1.0000 0.28090  0.98190  0.87190  Biso   1.000  O
  O15      1.0000 0.28090  0.51810  0.37190  Biso   1.000  O
  O16      1.0000 0.71910  0.01810  0.12810  Biso   1.000  O
  N1       1.0000 0.40560  0.05340  0.70520  Biso   1.000  N
  N2       1.0000 0.59440  0.55340  0.79480  Biso   1.000  N
  N3       1.0000 0.59440  0.94660  0.29480  Biso   1.000  N
  N4       1.0000 0.40560  0.44660  0.20520  Biso   1.000  N
  N5       1.0000 0.10490  0.39570  0.69940  Biso   1.000  N
  N6       1.0000 0.89510  0.89570  0.80060  Biso   1.000  N
  N7       1.0000 0.89510  0.60430  0.30060  Biso   1.000  N
  N8       1.0000 0.10490  0.10430  0.19940  Biso   1.000  N
  C1       1.0000 0.34850  0.97310  0.62390  Biso   1.000  C
  C2       1.0000 0.65150  0.47310  0.87610  Biso   1.000  C
  C3       1.0000 0.65150  0.02690  0.37610  Biso   1.000  C
  C4       1.0000 0.34850  0.52690  0.12390  Biso   1.000  C
  H1       1.0000 0.32400  0.90360  0.64440  Biso   1.000  H
  H2       1.0000 0.67600  0.40360  0.85560  Biso   1.000  H
  H3       1.0000 0.67600  0.09640  0.35560  Biso   1.000  H
  H4       1.0000 0.32400  0.59640  0.14440  Biso   1.000  H
  C5       1.0000 0.32480  0.99080  0.50940  Biso   1.000  C
  C6       1.0000 0.67520  0.49080  0.99060  Biso   1.000  C
  C7       1.0000 0.67520  0.00920  0.49060  Biso   1.000  C
  C8       1.0000 0.32480  0.50920  0.00940  Biso   1.000  C
  C9       1.0000 0.35770  0.09330  0.47590  Biso   1.000  C
  C10      1.0000 0.64230  0.59330  0.02410  Biso   1.000  C
  C11      1.0000 0.64230  0.90670  0.52410  Biso   1.000  C
  C12      1.0000 0.35770  0.40670  0.97590  Biso   1.000  C
  H5       1.0000 0.34150  0.10590  0.39900  Biso   1.000  H
  H6       1.0000 0.65850  0.60590  0.10100  Biso   1.000  H
  H7       1.0000 0.65850  0.89410  0.60100  Biso   1.000  H
  H8       1.0000 0.34150  0.39410  0.89900  Biso   1.000  H
  C13      1.0000 0.41600  0.17730  0.56040  Biso   1.000  C
  C14      1.0000 0.58400  0.67730  0.93960  Biso   1.000  C
  C15      1.0000 0.58400  0.82270  0.43960  Biso   1.000  C
  C16      1.0000 0.41600  0.32270  0.06040  Biso   1.000  C
  C17      1.0000 0.43950  0.15280  0.67420  Biso   1.000  C
  C18      1.0000 0.56050  0.65280  0.82580  Biso   1.000  C
  C19      1.0000 0.56050  0.84720  0.32580  Biso   1.000  C
  C20      1.0000 0.43950  0.34720  0.17420  Biso   1.000  C
  H9       1.0000 0.48080  0.20830  0.73140  Biso   1.000  H
  H10      1.0000 0.51920  0.70830  0.76860  Biso   1.000  H
  H11      1.0000 0.51920  0.79170  0.26860  Biso   1.000  H
  H12      1.0000 0.48080  0.29170  0.23140  Biso   1.000  H
  C21      1.0000 0.45140  0.29430  0.53270  Biso   1.000  C
  C22      1.0000 0.54860  0.79430  0.96730  Biso   1.000  C
  C23      1.0000 0.54860  0.70570  0.46730  Biso   1.000  C
  C24      1.0000 0.45140  0.20570  0.03270  Biso   1.000  C
  C25      1.0000 0.12450  0.34600  0.61530  Biso   1.000  C
  C26      1.0000 0.87550  0.84600  0.88470  Biso   1.000  C
  C27      1.0000 0.87550  0.65400  0.38470  Biso   1.000  C
  C28      1.0000 0.12450  0.15400  0.11530  Biso   1.000  C
  H13      1.0000 0.21020  0.32190  0.63190  Biso   1.000  H
  H14      1.0000 0.78980  0.82190  0.86810  Biso   1.000  H
  H15      1.0000 0.78980  0.67810  0.36810  Biso   1.000  H
  H16      1.0000 0.21020  0.17810  0.13190  Biso   1.000  H
  C29      1.0000 0.02360  0.32850  0.50460  Biso   1.000  C
  C30      1.0000 0.97640  0.82850  0.99540  Biso   1.000  C
  C31      1.0000 0.97640  0.67150  0.49540  Biso   1.000  C
  C32      1.0000 0.02360  0.17150  0.00460  Biso   1.000  C
  C33      1.0000 0.89550  0.36160  0.47730  Biso   1.000  C
  C34      1.0000 0.10450  0.86160  0.02270  Biso   1.000  C
  C35      1.0000 0.10450  0.63840  0.52270  Biso   1.000  C
  C36      1.0000 0.89550  0.13840  0.97730  Biso   1.000  C
  H17      1.0000 0.82650  0.35090  0.40280  Biso   1.000  H
  H18      1.0000 0.17350  0.85090  0.09720  Biso   1.000  H
  H19      1.0000 0.17350  0.64910  0.59720  Biso   1.000  H
  H20      1.0000 0.82650  0.14910  0.90280  Biso   1.000  H
  C37      1.0000 0.87280  0.41180  0.56500  Biso   1.000  C
  C38      1.0000 0.12720  0.91180  0.93500  Biso   1.000  C
  C39      1.0000 0.12720  0.58820  0.43500  Biso   1.000  C
  C40      1.0000 0.87280  0.08820  0.06500  Biso   1.000  C
  C41      1.0000 0.98030  0.42740  0.67330  Biso   1.000  C
  C42      1.0000 0.01970  0.92740  0.82670  Biso   1.000  C
  C43      1.0000 0.01970  0.57260  0.32670  Biso   1.000  C
  C44      1.0000 0.98030  0.07260  0.17330  Biso   1.000  C
  H21      1.0000 0.96490  0.46210  0.73150  Biso   1.000  H
  H22      1.0000 0.03510  0.96210  0.76850  Biso   1.000  H
  H23      1.0000 0.03510  0.53790  0.26850  Biso   1.000  H
  H24      1.0000 0.96490  0.03790  0.23150  Biso   1.000  H
  C45      1.0000 0.73410  0.44640  0.54210  Biso   1.000  C
  C46      1.0000 0.26590  0.94640  0.95790  Biso   1.000  C
  C47      1.0000 0.26590  0.55360  0.45790  Biso   1.000  C
  C48      1.0000 0.73410  0.05360  0.04210  Biso   1.000  C
