data_image0
_cell_length_a       11.139
_cell_length_b       11.5866
_cell_length_c       12.6325
_cell_angle_alpha    90
_cell_angle_beta     115.432
_cell_angle_gamma    90

_symmetry_space_group_name_H-M    "P 1"
_symmetry_int_tables_number       1

loop_
  _symmetry_equiv_pos_as_xyz
  'x, y, z'

loop_
  _atom_site_label
  _atom_site_occupancy
  _atom_site_fract_x
  _atom_site_fract_y
  _atom_site_fract_z
  _atom_site_thermal_displace_type
  _atom_site_B_iso_or_equiv
  _atom_site_type_symbol
  Br1      1.0000 0.81944  0.76143  0.88769  Biso   1.000  Br
  Br2      1.0000 0.68056  0.26143  0.61231  Biso   1.000  Br
  Br3      1.0000 0.18056  0.23857  0.11231  Biso   1.000  Br
  Br4      1.0000 0.31944  0.73857  0.38769  Biso   1.000  Br
  Br5      1.0000 0.34249  0.63191  0.10326  Biso   1.000  Br
  Br6      1.0000 0.15751  0.13191  0.39674  Biso   1.000  Br
  Br7      1.0000 0.65751  0.36809  0.89674  Biso   1.000  Br
  Br8      1.0000 0.84249  0.86809  0.60326  Biso   1.000  Br
  Cu1      1.0000 0.56886  0.02600  0.11208  Biso   1.000  Cu
  Cu2      1.0000 0.93114  0.52600  0.38792  Biso   1.000  Cu
  Cu3      1.0000 0.43114  0.97400  0.88792  Biso   1.000  Cu
  Cu4      1.0000 0.06886  0.47400  0.61208  Biso   1.000  Cu
  O1       1.0000 0.40781  0.98221  0.12844  Biso   1.000  O
  O2       1.0000 0.09219  0.48221  0.37156  Biso   1.000  O
  O3       1.0000 0.59219  0.01779  0.87156  Biso   1.000  O
  O4       1.0000 0.90781  0.51779  0.62844  Biso   1.000  O
  O5       1.0000 0.29176  0.93567  0.93847  Biso   1.000  O
  O6       1.0000 0.20824  0.43567  0.56153  Biso   1.000  O
  O7       1.0000 0.70824  0.06433  0.06153  Biso   1.000  O
  O8       1.0000 0.79176  0.56433  0.43847  Biso   1.000  O
  O9       1.0000 0.50043  0.18607  0.07312  Biso   1.000  O
  O10      1.0000 0.99957  0.68607  0.42688  Biso   1.000  O
  O11      1.0000 0.49957  0.81393  0.92688  Biso   1.000  O
  O12      1.0000 0.00043  0.31393  0.57312  Biso   1.000  O
  O13      1.0000 0.38355  0.13849  0.88361  Biso   1.000  O
  O14      1.0000 0.11645  0.63849  0.61639  Biso   1.000  O
  O15      1.0000 0.61645  0.86151  0.11639  Biso   1.000  O
  O16      1.0000 0.88355  0.36151  0.38361  Biso   1.000  O
  N1       1.0000 0.08987  0.89646  0.19994  Biso   1.000  N
  N2       1.0000 0.41013  0.39646  0.30006  Biso   1.000  N
  N3       1.0000 0.91013  0.10354  0.80006  Biso   1.000  N
  N4       1.0000 0.58987  0.60354  0.69994  Biso   1.000  N
  N5       1.0000 0.20137  0.44965  0.79489  Biso   1.000  N
  N6       1.0000 0.29863  0.94965  0.70511  Biso   1.000  N
  N7       1.0000 0.79863  0.55035  0.20511  Biso   1.000  N
  N8       1.0000 0.70137  0.05035  0.29489  Biso   1.000  N
  C1       1.0000 0.98390  0.84740  0.11510  Biso   1.000  C
  C2       1.0000 0.51610  0.34740  0.38490  Biso   1.000  C
  C3       1.0000 0.01610  0.15260  0.88490  Biso   1.000  C
  C4       1.0000 0.48390  0.65260  0.61510  Biso   1.000  C
  H1       1.0000 0.91250  0.82330  0.13200  Biso   1.000  H
  H2       1.0000 0.58750  0.32330  0.36800  Biso   1.000  H
  H3       1.0000 0.08750  0.17670  0.86800  Biso   1.000  H
  H4       1.0000 0.41250  0.67670  0.63200  Biso   1.000  H
  C5       1.0000 0.97420  0.83017  0.00277  Biso   1.000  C
  C6       1.0000 0.52580  0.33017  0.49723  Biso   1.000  C
  C7       1.0000 0.02580  0.16983  0.99723  Biso   1.000  C
  C8       1.0000 0.47420  0.66983  0.50277  Biso   1.000  C
  C9       1.0000 0.07700  0.86282  0.97580  Biso   1.000  C
  C10      1.0000 0.42300  0.36282  0.52420  Biso   1.000  C
  C11      1.0000 0.92300  0.13718  0.02420  Biso   1.000  C
  C12      1.0000 0.57700  0.63718  0.47580  Biso   1.000  C
  H5       1.0000 0.07180  0.85180  0.89940  Biso   1.000  H
  H6       1.0000 0.42820  0.35180  0.60060  Biso   1.000  H
  H7       1.0000 0.92820  0.14820  0.10060  Biso   1.000  H
  H8       1.0000 0.57180  0.64820  0.39940  Biso   1.000  H
  C13      1.0000 0.18860  0.91256  0.06474  Biso   1.000  C
  C14      1.0000 0.31140  0.41256  0.43526  Biso   1.000  C
  C15      1.0000 0.81140  0.08744  0.93526  Biso   1.000  C
  C16      1.0000 0.68860  0.58744  0.56474  Biso   1.000  C
  C17      1.0000 0.19000  0.92849  0.17425  Biso   1.000  C
  C18      1.0000 0.31000  0.42849  0.32575  Biso   1.000  C
  C19      1.0000 0.81000  0.07151  0.82575  Biso   1.000  C
  C20      1.0000 0.69000  0.57151  0.67425  Biso   1.000  C
  H9       1.0000 0.26570  0.96390  0.23400  Biso   1.000  H
  H10      1.0000 0.23430  0.46390  0.26600  Biso   1.000  H
  H11      1.0000 0.73430  0.03610  0.76600  Biso   1.000  H
  H12      1.0000 0.76570  0.53610  0.73400  Biso   1.000  H
  C21      1.0000 0.30570  0.94647  0.04201  Biso   1.000  C
  C22      1.0000 0.19430  0.44647  0.45799  Biso   1.000  C
  C23      1.0000 0.69430  0.05353  0.95799  Biso   1.000  C
  C24      1.0000 0.80570  0.55353  0.54201  Biso   1.000  C
  C25      1.0000 0.22620  0.53120  0.87741  Biso   1.000  C
  C26      1.0000 0.27380  0.03120  0.62259  Biso   1.000  C
  C27      1.0000 0.77380  0.46880  0.12259  Biso   1.000  C
  C28      1.0000 0.72620  0.96880  0.37741  Biso   1.000  C
  H13      1.0000 0.18060  0.60290  0.85610  Biso   1.000  H
  H14      1.0000 0.31940  0.10290  0.64390  Biso   1.000  H
  H15      1.0000 0.81940  0.39710  0.14390  Biso   1.000  H
  H16      1.0000 0.68060  0.89710  0.35610  Biso   1.000  H
  C29      1.0000 0.31660  0.51325  0.99263  Biso   1.000  C
  C30      1.0000 0.18340  0.01325  0.50737  Biso   1.000  C
  C31      1.0000 0.68340  0.48675  0.00737  Biso   1.000  C
  C32      1.0000 0.81660  0.98675  0.49263  Biso   1.000  C
  C33      1.0000 0.38470  0.40961  0.02675  Biso   1.000  C
  C34      1.0000 0.11530  0.90961  0.47325  Biso   1.000  C
  C35      1.0000 0.61530  0.59039  0.97325  Biso   1.000  C
  C36      1.0000 0.88470  0.09039  0.52675  Biso   1.000  C
  H17      1.0000 0.44700  0.39660  0.10560  Biso   1.000  H
  H18      1.0000 0.05300  0.89660  0.39440  Biso   1.000  H
  H19      1.0000 0.55300  0.60340  0.89440  Biso   1.000  H
  H20      1.0000 0.94700  0.10340  0.60560  Biso   1.000  H
  C37      1.0000 0.35843  0.32557  0.94120  Biso   1.000  C
  C38      1.0000 0.14157  0.82557  0.55880  Biso   1.000  C
  C39      1.0000 0.64157  0.67443  0.05880  Biso   1.000  C
  C40      1.0000 0.85843  0.17443  0.44120  Biso   1.000  C
  C41      1.0000 0.26676  0.34926  0.82653  Biso   1.000  C
  C42      1.0000 0.23324  0.84926  0.67347  Biso   1.000  C
  C43      1.0000 0.73324  0.65074  0.17347  Biso   1.000  C
  C44      1.0000 0.76676  0.15074  0.32653  Biso   1.000  C
  H21      1.0000 0.25000  0.29170  0.76830  Biso   1.000  H
  H22      1.0000 0.25000  0.79170  0.73170  Biso   1.000  H
  H23      1.0000 0.75000  0.70830  0.23170  Biso   1.000  H
  H24      1.0000 0.75000  0.20830  0.26830  Biso   1.000  H
  C45      1.0000 0.42049  0.20731  0.96889  Biso   1.000  C
  C46      1.0000 0.07951  0.70731  0.53111  Biso   1.000  C
  C47      1.0000 0.57951  0.79269  0.03111  Biso   1.000  C
  C48      1.0000 0.92049  0.29269  0.46889  Biso   1.000  C
