data_image0
_cell_length_a       18.808
_cell_length_b       16.1023
_cell_length_c       10.3382
_cell_angle_alpha    90
_cell_angle_beta     115.201
_cell_angle_gamma    90

_symmetry_space_group_name_H-M    "P 1"
_symmetry_int_tables_number       1

loop_
  _symmetry_equiv_pos_as_xyz
  'x, y, z'

loop_
  _atom_site_label
  _atom_site_occupancy
  _atom_site_fract_x
  _atom_site_fract_y
  _atom_site_fract_z
  _atom_site_thermal_displace_type
  _atom_site_B_iso_or_equiv
  _atom_site_type_symbol
  Cu1      1.0000 0.00000  0.20440  0.75000  Biso   1.000  Cu
  Cu2      1.0000 0.50000  0.70440  0.75000  Biso   1.000  Cu
  Cu3      1.0000 0.00000  0.79560  0.25000  Biso   1.000  Cu
  Cu4      1.0000 0.50000  0.29560  0.25000  Biso   1.000  Cu
  N1       1.0000 0.91097  0.14287  0.73610  Biso   1.000  N
  N2       1.0000 0.08903  0.14287  0.76390  Biso   1.000  N
  N3       1.0000 0.41097  0.64287  0.73610  Biso   1.000  N
  N4       1.0000 0.58903  0.64287  0.76390  Biso   1.000  N
  N5       1.0000 0.08903  0.85713  0.26390  Biso   1.000  N
  N6       1.0000 0.91097  0.85713  0.23610  Biso   1.000  N
  N7       1.0000 0.58903  0.35713  0.26390  Biso   1.000  N
  N8       1.0000 0.41097  0.35713  0.23610  Biso   1.000  N
  N9       1.0000 0.99452  0.27331  0.89570  Biso   1.000  N
  N10      1.0000 0.00548  0.27331  0.60430  Biso   1.000  N
  N11      1.0000 0.49452  0.77331  0.89570  Biso   1.000  N
  N12      1.0000 0.50548  0.77331  0.60430  Biso   1.000  N
  N13      1.0000 0.00548  0.72669  0.10430  Biso   1.000  N
  N14      1.0000 0.99452  0.72669  0.39570  Biso   1.000  N
  N15      1.0000 0.50548  0.22669  0.10430  Biso   1.000  N
  N16      1.0000 0.49452  0.22669  0.39570  Biso   1.000  N
  C1       1.0000 0.81591  0.04351  0.66070  Biso   1.000  C
  C2       1.0000 0.18409  0.04351  0.83930  Biso   1.000  C
  C3       1.0000 0.31591  0.54351  0.66070  Biso   1.000  C
  C4       1.0000 0.68409  0.54351  0.83930  Biso   1.000  C
  C5       1.0000 0.18409  0.95649  0.33930  Biso   1.000  C
  C6       1.0000 0.81591  0.95649  0.16070  Biso   1.000  C
  C7       1.0000 0.68409  0.45649  0.33930  Biso   1.000  C
  C8       1.0000 0.31591  0.45649  0.16070  Biso   1.000  C
  H1       1.0000 0.78700  0.99600  0.61170  Biso   1.000  H
  H2       1.0000 0.21300  0.99600  0.88830  Biso   1.000  H
  H3       1.0000 0.28700  0.49600  0.61170  Biso   1.000  H
  H4       1.0000 0.71300  0.49600  0.88830  Biso   1.000  H
  H5       1.0000 0.21300  0.00400  0.38830  Biso   1.000  H
  H6       1.0000 0.78700  0.00400  0.11170  Biso   1.000  H
  H7       1.0000 0.71300  0.50400  0.38830  Biso   1.000  H
  H8       1.0000 0.28700  0.50400  0.11170  Biso   1.000  H
  C9       1.0000 0.86945  0.22418  0.89310  Biso   1.000  C
  C10      1.0000 0.13055  0.22418  0.60690  Biso   1.000  C
  C11      1.0000 0.36945  0.72418  0.89310  Biso   1.000  C
  C12      1.0000 0.63055  0.72418  0.60690  Biso   1.000  C
  C13      1.0000 0.13055  0.77582  0.10690  Biso   1.000  C
  C14      1.0000 0.86945  0.77582  0.39310  Biso   1.000  C
  C15      1.0000 0.63055  0.27582  0.10690  Biso   1.000  C
  C16      1.0000 0.36945  0.27582  0.39310  Biso   1.000  C
  C17      1.0000 0.67840  0.28900  0.91280  Biso   1.000  C
  C18      1.0000 0.32160  0.28900  0.58720  Biso   1.000  C
  C19      1.0000 0.17840  0.78900  0.91280  Biso   1.000  C
  C20      1.0000 0.82160  0.78900  0.58720  Biso   1.000  C
  C21      1.0000 0.32160  0.71100  0.08720  Biso   1.000  C
  C22      1.0000 0.67840  0.71100  0.41280  Biso   1.000  C
  C23      1.0000 0.82160  0.21100  0.08720  Biso   1.000  C
  C24      1.0000 0.17840  0.21100  0.41280  Biso   1.000  C
  C25      1.0000 0.60195  0.32908  0.81680  Biso   1.000  C
  C26      1.0000 0.39805  0.32908  0.68320  Biso   1.000  C
  C27      1.0000 0.10195  0.82908  0.81680  Biso   1.000  C
  C28      1.0000 0.89805  0.82908  0.68320  Biso   1.000  C
  C29      1.0000 0.39805  0.67092  0.18320  Biso   1.000  C
  C30      1.0000 0.60195  0.67092  0.31680  Biso   1.000  C
  C31      1.0000 0.89805  0.17092  0.18320  Biso   1.000  C
  C32      1.0000 0.10195  0.17092  0.31680  Biso   1.000  C
  H9       1.0000 0.61230  0.38310  0.78460  Biso   1.000  H
  H10      1.0000 0.38770  0.38310  0.71540  Biso   1.000  H
  H11      1.0000 0.11230  0.88310  0.78460  Biso   1.000  H
  H12      1.0000 0.88770  0.88310  0.71540  Biso   1.000  H
  H13      1.0000 0.38770  0.61690  0.21540  Biso   1.000  H
  H14      1.0000 0.61230  0.61690  0.28460  Biso   1.000  H
  H15      1.0000 0.88770  0.11690  0.21540  Biso   1.000  H
  H16      1.0000 0.11230  0.11690  0.28460  Biso   1.000  H
  H17      1.0000 0.56970  0.33690  0.86940  Biso   1.000  H
  H18      1.0000 0.43030  0.33690  0.63060  Biso   1.000  H
  H19      1.0000 0.06970  0.83690  0.86940  Biso   1.000  H
  H20      1.0000 0.93030  0.83690  0.63060  Biso   1.000  H
  H21      1.0000 0.43030  0.66310  0.13060  Biso   1.000  H
  H22      1.0000 0.56970  0.66310  0.36940  Biso   1.000  H
  H23      1.0000 0.93030  0.16310  0.13060  Biso   1.000  H
  H24      1.0000 0.06970  0.16310  0.36940  Biso   1.000  H
  H25      1.0000 0.57390  0.29340  0.73370  Biso   1.000  H
  H26      1.0000 0.42610  0.29340  0.76630  Biso   1.000  H
  H27      1.0000 0.07390  0.79340  0.73370  Biso   1.000  H
  H28      1.0000 0.92610  0.79340  0.76630  Biso   1.000  H
  H29      1.0000 0.42610  0.70660  0.26630  Biso   1.000  H
  H30      1.0000 0.57390  0.70660  0.23370  Biso   1.000  H
  H31      1.0000 0.92610  0.20660  0.26630  Biso   1.000  H
  H32      1.0000 0.07390  0.20660  0.23370  Biso   1.000  H
  C33      1.0000 0.94640  0.35790  0.01530  Biso   1.000  C
  C34      1.0000 0.05360  0.35790  0.48470  Biso   1.000  C
  C35      1.0000 0.44640  0.85790  0.01530  Biso   1.000  C
  C36      1.0000 0.55360  0.85790  0.48470  Biso   1.000  C
  C37      1.0000 0.05360  0.64210  0.98470  Biso   1.000  C
  C38      1.0000 0.94640  0.64210  0.51530  Biso   1.000  C
  C39      1.0000 0.55360  0.14210  0.98470  Biso   1.000  C
  C40      1.0000 0.44640  0.14210  0.51530  Biso   1.000  C
  C41      1.0000 0.01684  0.38981  0.02130  Biso   1.000  C
  C42      1.0000 0.98316  0.38981  0.47870  Biso   1.000  C
  C43      1.0000 0.51684  0.88981  0.02130  Biso   1.000  C
  C44      1.0000 0.48316  0.88981  0.47870  Biso   1.000  C
  C45      1.0000 0.98316  0.61019  0.97870  Biso   1.000  C
  C46      1.0000 0.01684  0.61019  0.52130  Biso   1.000  C
  C47      1.0000 0.48316  0.11019  0.97870  Biso   1.000  C
  C48      1.0000 0.51684  0.11019  0.52130  Biso   1.000  C
  H33      1.0000 0.04190  0.43930  0.06910  Biso   1.000  H
  H34      1.0000 0.95810  0.43930  0.43090  Biso   1.000  H
  H35      1.0000 0.54190  0.93930  0.06910  Biso   1.000  H
  H36      1.0000 0.45810  0.93930  0.43090  Biso   1.000  H
  H37      1.0000 0.95810  0.56070  0.93090  Biso   1.000  H
  H38      1.0000 0.04190  0.56070  0.56910  Biso   1.000  H
  H39      1.0000 0.45810  0.06070  0.93090  Biso   1.000  H
  H40      1.0000 0.54190  0.06070  0.56910  Biso   1.000  H
  C49      1.0000 0.73255  0.07864  0.79070  Biso   1.000  C
  C50      1.0000 0.26745  0.07864  0.70930  Biso   1.000  C
  C51      1.0000 0.23255  0.57864  0.79070  Biso   1.000  C
  C52      1.0000 0.76745  0.57864  0.70930  Biso   1.000  C
  C53      1.0000 0.26745  0.92136  0.20930  Biso   1.000  C
  C54      1.0000 0.73255  0.92136  0.29070  Biso   1.000  C
  C55      1.0000 0.76745  0.42136  0.20930  Biso   1.000  C
  C56      1.0000 0.23255  0.42136  0.29070  Biso   1.000  C
  H41      1.0000 0.70570  0.02700  0.74610  Biso   1.000  H
  H42      1.0000 0.29430  0.02700  0.75390  Biso   1.000  H
  H43      1.0000 0.20570  0.52700  0.74610  Biso   1.000  H
  H44      1.0000 0.79430  0.52700  0.75390  Biso   1.000  H
  H45      1.0000 0.29430  0.97300  0.25390  Biso   1.000  H
  H46      1.0000 0.70570  0.97300  0.24610  Biso   1.000  H
  H47      1.0000 0.79430  0.47300  0.25390  Biso   1.000  H
  H48      1.0000 0.20570  0.47300  0.24610  Biso   1.000  H
  H49      1.0000 0.69560  0.12510  0.75610  Biso   1.000  H
  H50      1.0000 0.30440  0.12510  0.74390  Biso   1.000  H
  H51      1.0000 0.19560  0.62510  0.75610  Biso   1.000  H
  H52      1.0000 0.80440  0.62510  0.74390  Biso   1.000  H
  H53      1.0000 0.30440  0.87490  0.24390  Biso   1.000  H
  H54      1.0000 0.69560  0.87490  0.25610  Biso   1.000  H
  H55      1.0000 0.80440  0.37490  0.24390  Biso   1.000  H
  H56      1.0000 0.19560  0.37490  0.25610  Biso   1.000  H
  H57      1.0000 0.75230  0.07420  0.89480  Biso   1.000  H
  H58      1.0000 0.24770  0.07420  0.60520  Biso   1.000  H
  H59      1.0000 0.25230  0.57420  0.89480  Biso   1.000  H
  H60      1.0000 0.74770  0.57420  0.60520  Biso   1.000  H
  H61      1.0000 0.24770  0.92580  0.10520  Biso   1.000  H
  H62      1.0000 0.75230  0.92580  0.39480  Biso   1.000  H
  H63      1.0000 0.74770  0.42580  0.10520  Biso   1.000  H
  H64      1.0000 0.25230  0.42580  0.39480  Biso   1.000  H
  C57      1.0000 0.88470  0.07654  0.65240  Biso   1.000  C
  C58      1.0000 0.11530  0.07654  0.84760  Biso   1.000  C
  C59      1.0000 0.38470  0.57654  0.65240  Biso   1.000  C
  C60      1.0000 0.61530  0.57654  0.84760  Biso   1.000  C
  C61      1.0000 0.11530  0.92346  0.34760  Biso   1.000  C
  C62      1.0000 0.88470  0.92346  0.15240  Biso   1.000  C
  C63      1.0000 0.61530  0.42346  0.34760  Biso   1.000  C
  C64      1.0000 0.38470  0.42346  0.15240  Biso   1.000  C
  C65      1.0000 0.79957  0.09316  0.75280  Biso   1.000  C
  C66      1.0000 0.20043  0.09316  0.74720  Biso   1.000  C
  C67      1.0000 0.29957  0.59316  0.75280  Biso   1.000  C
  C68      1.0000 0.70043  0.59316  0.74720  Biso   1.000  C
  C69      1.0000 0.20043  0.90684  0.24720  Biso   1.000  C
  C70      1.0000 0.79957  0.90684  0.25280  Biso   1.000  C
  C71      1.0000 0.70043  0.40684  0.24720  Biso   1.000  C
  C72      1.0000 0.29957  0.40684  0.25280  Biso   1.000  C
  C73      1.0000 0.73717  0.27826  0.86230  Biso   1.000  C
  C74      1.0000 0.26283  0.27826  0.63770  Biso   1.000  C
  C75      1.0000 0.23717  0.77826  0.86230  Biso   1.000  C
  C76      1.0000 0.76283  0.77826  0.63770  Biso   1.000  C
  C77      1.0000 0.26283  0.72174  0.13770  Biso   1.000  C
  C78      1.0000 0.73717  0.72174  0.36230  Biso   1.000  C
  C79      1.0000 0.76283  0.22174  0.13770  Biso   1.000  C
  C80      1.0000 0.23717  0.22174  0.36230  Biso   1.000  C
  C81      1.0000 0.80765  0.23804  0.94970  Biso   1.000  C
  C82      1.0000 0.19235  0.23804  0.55030  Biso   1.000  C
  C83      1.0000 0.30765  0.73804  0.94970  Biso   1.000  C
  C84      1.0000 0.69235  0.73804  0.55030  Biso   1.000  C
  C85      1.0000 0.19235  0.76196  0.05030  Biso   1.000  C
  C86      1.0000 0.80765  0.76196  0.44970  Biso   1.000  C
  C87      1.0000 0.69235  0.26196  0.05030  Biso   1.000  C
  C88      1.0000 0.30765  0.26196  0.44970  Biso   1.000  C
  C89      1.0000 0.86040  0.15668  0.80220  Biso   1.000  C
  C90      1.0000 0.13960  0.15668  0.69780  Biso   1.000  C
  C91      1.0000 0.36040  0.65668  0.80220  Biso   1.000  C
  C92      1.0000 0.63960  0.65668  0.69780  Biso   1.000  C
  C93      1.0000 0.13960  0.84332  0.19780  Biso   1.000  C
  C94      1.0000 0.86040  0.84332  0.30220  Biso   1.000  C
  C95      1.0000 0.63960  0.34332  0.19780  Biso   1.000  C
  C96      1.0000 0.36040  0.34332  0.30220  Biso   1.000  C
  C97      1.0000 0.93270  0.28180  0.93540  Biso   1.000  C
  C98      1.0000 0.06730  0.28180  0.56460  Biso   1.000  C
  C99      1.0000 0.43270  0.78180  0.93540  Biso   1.000  C
  C100     1.0000 0.56730  0.78180  0.56460  Biso   1.000  C
  C101     1.0000 0.06730  0.71820  0.06460  Biso   1.000  C
  C102     1.0000 0.93270  0.71820  0.43540  Biso   1.000  C
  C103     1.0000 0.56730  0.21820  0.06460  Biso   1.000  C
  C104     1.0000 0.43270  0.21820  0.43540  Biso   1.000  C
  C105     1.0000 0.89899  0.39745  0.08230  Biso   1.000  C
  C106     1.0000 0.10101  0.39745  0.41770  Biso   1.000  C
  C107     1.0000 0.39899  0.89745  0.08230  Biso   1.000  C
  C108     1.0000 0.60101  0.89745  0.41770  Biso   1.000  C
  C109     1.0000 0.10101  0.60255  0.91770  Biso   1.000  C
  C110     1.0000 0.89899  0.60255  0.58230  Biso   1.000  C
  C111     1.0000 0.60101  0.10255  0.91770  Biso   1.000  C
  C112     1.0000 0.39899  0.10255  0.58230  Biso   1.000  C
  H65      1.0000 0.92260  0.45090  0.12400  Biso   1.000  H
  H66      1.0000 0.07740  0.45090  0.37600  Biso   1.000  H
  H67      1.0000 0.42260  0.95090  0.12400  Biso   1.000  H
  H68      1.0000 0.57740  0.95090  0.37600  Biso   1.000  H
  H69      1.0000 0.07740  0.54910  0.87600  Biso   1.000  H
  H70      1.0000 0.92260  0.54910  0.62400  Biso   1.000  H
  H71      1.0000 0.57740  0.04910  0.87600  Biso   1.000  H
  H72      1.0000 0.42260  0.04910  0.62400  Biso   1.000  H
  H73      1.0000 0.89790  0.36110  0.15740  Biso   1.000  H
  H74      1.0000 0.10210  0.36110  0.34260  Biso   1.000  H
  H75      1.0000 0.39790  0.86110  0.15740  Biso   1.000  H
  H76      1.0000 0.60210  0.86110  0.34260  Biso   1.000  H
  H77      1.0000 0.10210  0.63890  0.84260  Biso   1.000  H
  H78      1.0000 0.89790  0.63890  0.65740  Biso   1.000  H
  H79      1.0000 0.60210  0.13890  0.84260  Biso   1.000  H
  H80      1.0000 0.39790  0.13890  0.65740  Biso   1.000  H
  H81      1.0000 0.84530  0.40640  0.00960  Biso   1.000  H
  H82      1.0000 0.15470  0.40640  0.49040  Biso   1.000  H
  H83      1.0000 0.34530  0.90640  0.00960  Biso   1.000  H
  H84      1.0000 0.65470  0.90640  0.49040  Biso   1.000  H
  H85      1.0000 0.15470  0.59360  0.99040  Biso   1.000  H
  H86      1.0000 0.84530  0.59360  0.50960  Biso   1.000  H
  H87      1.0000 0.65470  0.09360  0.99040  Biso   1.000  H
  H88      1.0000 0.34530  0.09360  0.50960  Biso   1.000  H
  C113     1.0000 0.72122  0.30955  0.71660  Biso   1.000  C
  C114     1.0000 0.27878  0.30955  0.78340  Biso   1.000  C
  C115     1.0000 0.22122  0.80955  0.71660  Biso   1.000  C
  C116     1.0000 0.77878  0.80955  0.78340  Biso   1.000  C
  C117     1.0000 0.27878  0.69045  0.28340  Biso   1.000  C
  C118     1.0000 0.72122  0.69045  0.21660  Biso   1.000  C
  C119     1.0000 0.77878  0.19045  0.28340  Biso   1.000  C
  C120     1.0000 0.22122  0.19045  0.21660  Biso   1.000  C
  H89      1.0000 0.66910  0.33550  0.67370  Biso   1.000  H
  H90      1.0000 0.33090  0.33550  0.82630  Biso   1.000  H
  H91      1.0000 0.16910  0.83550  0.67370  Biso   1.000  H
  H92      1.0000 0.83090  0.83550  0.82630  Biso   1.000  H
  H93      1.0000 0.33090  0.66450  0.32630  Biso   1.000  H
  H94      1.0000 0.66910  0.66450  0.17370  Biso   1.000  H
  H95      1.0000 0.83090  0.16450  0.32630  Biso   1.000  H
  H96      1.0000 0.16910  0.16450  0.17370  Biso   1.000  H
  H97      1.0000 0.76120  0.35060  0.72380  Biso   1.000  H
  H98      1.0000 0.23880  0.35060  0.77620  Biso   1.000  H
  H99      1.0000 0.26120  0.85060  0.72380  Biso   1.000  H
  H100     1.0000 0.73880  0.85060  0.77620  Biso   1.000  H
  H101     1.0000 0.23880  0.64940  0.27620  Biso   1.000  H
  H102     1.0000 0.76120  0.64940  0.22380  Biso   1.000  H
  H103     1.0000 0.73880  0.14940  0.27620  Biso   1.000  H
  H104     1.0000 0.26120  0.14940  0.22380  Biso   1.000  H
  H105     1.0000 0.72290  0.26310  0.65670  Biso   1.000  H
  H106     1.0000 0.27710  0.26310  0.84330  Biso   1.000  H
  H107     1.0000 0.22290  0.76310  0.65670  Biso   1.000  H
  H108     1.0000 0.77710  0.76310  0.84330  Biso   1.000  H
  H109     1.0000 0.27710  0.73690  0.34330  Biso   1.000  H
  H110     1.0000 0.72290  0.73690  0.15670  Biso   1.000  H
  H111     1.0000 0.77710  0.23690  0.34330  Biso   1.000  H
  H112     1.0000 0.22290  0.23690  0.15670  Biso   1.000  H
  C121     1.0000 0.04398  0.33791  0.94690  Biso   1.000  C
  C122     1.0000 0.95602  0.33791  0.55310  Biso   1.000  C
  C123     1.0000 0.54398  0.83791  0.94690  Biso   1.000  C
  C124     1.0000 0.45602  0.83791  0.55310  Biso   1.000  C
  C125     1.0000 0.95602  0.66209  0.05310  Biso   1.000  C
  C126     1.0000 0.04398  0.66209  0.44690  Biso   1.000  C
  C127     1.0000 0.45602  0.16209  0.05310  Biso   1.000  C
  C128     1.0000 0.54398  0.16209  0.44690  Biso   1.000  C
  C129     1.0000 0.92244  0.04341  0.56240  Biso   1.000  C
  C130     1.0000 0.07756  0.04341  0.93760  Biso   1.000  C
  C131     1.0000 0.42244  0.54341  0.56240  Biso   1.000  C
  C132     1.0000 0.57756  0.54341  0.93760  Biso   1.000  C
  C133     1.0000 0.07756  0.95659  0.43760  Biso   1.000  C
  C134     1.0000 0.92244  0.95659  0.06240  Biso   1.000  C
  C135     1.0000 0.57756  0.45659  0.43760  Biso   1.000  C
  C136     1.0000 0.42244  0.45659  0.06240  Biso   1.000  C
  H113     1.0000 0.89340  0.99450  0.50980  Biso   1.000  H
  H114     1.0000 0.10660  0.99450  0.99020  Biso   1.000  H
  H115     1.0000 0.39340  0.49450  0.50980  Biso   1.000  H
  H116     1.0000 0.60660  0.49450  0.99020  Biso   1.000  H
  H117     1.0000 0.10660  0.00550  0.49020  Biso   1.000  H
  H118     1.0000 0.89340  0.00550  0.00980  Biso   1.000  H
  H119     1.0000 0.60660  0.50550  0.49020  Biso   1.000  H
  H120     1.0000 0.39340  0.50550  0.00980  Biso   1.000  H
  H121     1.0000 0.92190  0.08620  0.49450  Biso   1.000  H
  H122     1.0000 0.07810  0.08620  0.00550  Biso   1.000  H
  H123     1.0000 0.42190  0.58620  0.49450  Biso   1.000  H
  H124     1.0000 0.57810  0.58620  0.00550  Biso   1.000  H
  H125     1.0000 0.07810  0.91380  0.50550  Biso   1.000  H
  H126     1.0000 0.92190  0.91380  0.99450  Biso   1.000  H
  H127     1.0000 0.57810  0.41380  0.50550  Biso   1.000  H
  H128     1.0000 0.42190  0.41380  0.99450  Biso   1.000  H
  H129     1.0000 0.97690  0.02770  0.62360  Biso   1.000  H
  H130     1.0000 0.02310  0.02770  0.87640  Biso   1.000  H
  H131     1.0000 0.47690  0.52770  0.62360  Biso   1.000  H
  H132     1.0000 0.52310  0.52770  0.87640  Biso   1.000  H
  H133     1.0000 0.02310  0.97230  0.37640  Biso   1.000  H
  H134     1.0000 0.97690  0.97230  0.12360  Biso   1.000  H
  H135     1.0000 0.52310  0.47230  0.37640  Biso   1.000  H
  H136     1.0000 0.47690  0.47230  0.12360  Biso   1.000  H
  C137     1.0000 0.11561  0.34800  0.91680  Biso   1.000  C
  C138     1.0000 0.88439  0.34800  0.58320  Biso   1.000  C
  C139     1.0000 0.61561  0.84800  0.91680  Biso   1.000  C
  C140     1.0000 0.38439  0.84800  0.58320  Biso   1.000  C
  C141     1.0000 0.88439  0.65200  0.08320  Biso   1.000  C
  C142     1.0000 0.11561  0.65200  0.41680  Biso   1.000  C
  C143     1.0000 0.38439  0.15200  0.08320  Biso   1.000  C
  C144     1.0000 0.61561  0.15200  0.41680  Biso   1.000  C
  H137     1.0000 0.14390  0.39860  0.96310  Biso   1.000  H
  H138     1.0000 0.85610  0.39860  0.53690  Biso   1.000  H
  H139     1.0000 0.64390  0.89860  0.96310  Biso   1.000  H
  H140     1.0000 0.35610  0.89860  0.53690  Biso   1.000  H
  H141     1.0000 0.85610  0.60140  0.03690  Biso   1.000  H
  H142     1.0000 0.14390  0.60140  0.46310  Biso   1.000  H
  H143     1.0000 0.35610  0.10140  0.03690  Biso   1.000  H
  H144     1.0000 0.64390  0.10140  0.46310  Biso   1.000  H
  H145     1.0000 0.15020  0.29980  0.95430  Biso   1.000  H
  H146     1.0000 0.84980  0.29980  0.54570  Biso   1.000  H
  H147     1.0000 0.65020  0.79980  0.95430  Biso   1.000  H
  H148     1.0000 0.34980  0.79980  0.54570  Biso   1.000  H
  H149     1.0000 0.84980  0.70020  0.04570  Biso   1.000  H
  H150     1.0000 0.15020  0.70020  0.45430  Biso   1.000  H
  H151     1.0000 0.34980  0.20020  0.04570  Biso   1.000  H
  H152     1.0000 0.65020  0.20020  0.45430  Biso   1.000  H
  H153     1.0000 0.09900  0.35200  0.81340  Biso   1.000  H
  H154     1.0000 0.90100  0.35200  0.68660  Biso   1.000  H
  H155     1.0000 0.59900  0.85200  0.81340  Biso   1.000  H
  H156     1.0000 0.40100  0.85200  0.68660  Biso   1.000  H
  H157     1.0000 0.90100  0.64800  0.18660  Biso   1.000  H
  H158     1.0000 0.09900  0.64800  0.31340  Biso   1.000  H
  H159     1.0000 0.40100  0.14800  0.18660  Biso   1.000  H
  H160     1.0000 0.59900  0.14800  0.31340  Biso   1.000  H
