data_image0
_cell_length_a       6.6312
_cell_length_b       9.717
_cell_length_c       12.837
_cell_angle_alpha    76.136
_cell_angle_beta     89.521
_cell_angle_gamma    81.162

_symmetry_space_group_name_H-M    "P 1"
_symmetry_int_tables_number       1

loop_
  _symmetry_equiv_pos_as_xyz
  'x, y, z'

loop_
  _atom_site_label
  _atom_site_occupancy
  _atom_site_fract_x
  _atom_site_fract_y
  _atom_site_fract_z
  _atom_site_thermal_displace_type
  _atom_site_B_iso_or_equiv
  _atom_site_type_symbol
  Cu1      1.0000 0.63285  0.26131  0.26660  Biso   1.000  Cu
  Cu2      1.0000 0.36715  0.73869  0.73340  Biso   1.000  Cu
  Cu3      1.0000 0.14015  0.23439  0.22150  Biso   1.000  Cu
  Cu4      1.0000 0.85985  0.76561  0.77850  Biso   1.000  Cu
  Cl1      1.0000 0.95656  0.44332  0.13756  Biso   1.000  Cl
  Cl2      1.0000 0.04344  0.55668  0.86244  Biso   1.000  Cl
  Cl3      1.0000 0.37357  0.05382  0.32052  Biso   1.000  Cl
  Cl4      1.0000 0.62643  0.94618  0.67948  Biso   1.000  Cl
  Cl5      1.0000 0.85224  0.08294  0.21268  Biso   1.000  Cl
  Cl6      1.0000 0.14776  0.91706  0.78732  Biso   1.000  Cl
  Cl7      1.0000 0.45927  0.45694  0.30974  Biso   1.000  Cl
  Cl8      1.0000 0.54073  0.54306  0.69026  Biso   1.000  Cl
  O1       1.0000 0.52140  0.33530  0.11870  Biso   1.000  O
  O2       1.0000 0.47860  0.66470  0.88130  Biso   1.000  O
  O3       1.0000 0.27570  0.21640  0.08460  Biso   1.000  O
  O4       1.0000 0.72430  0.78360  0.91540  Biso   1.000  O
  C1       1.0000 0.42450  0.27980  0.05870  Biso   1.000  C
  C2       1.0000 0.57550  0.72020  0.94130  Biso   1.000  C
  C3       1.0000 0.49010  0.30650  0.94260  Biso   1.000  C
  C4       1.0000 0.50990  0.69350  0.05740  Biso   1.000  C
  H1       1.0000 0.38590  0.38110  0.89660  Biso   1.000  H
  H2       1.0000 0.61410  0.61890  0.10340  Biso   1.000  H
  C5       1.0000 0.52680  0.17450  0.89570  Biso   1.000  C
  C6       1.0000 0.47320  0.82550  0.10430  Biso   1.000  C
  H3       1.0000 0.43440  0.10540  0.92690  Biso   1.000  H
  H4       1.0000 0.56560  0.89460  0.07310  Biso   1.000  H
  H5       1.0000 0.50660  0.20190  0.81670  Biso   1.000  H
  H6       1.0000 0.49340  0.79810  0.18330  Biso   1.000  H
  C7       1.0000 0.74840  0.11190  0.92790  Biso   1.000  C
  C8       1.0000 0.25160  0.88810  0.07210  Biso   1.000  C
  H7       1.0000 0.76130  0.05730  0.00390  Biso   1.000  H
  H8       1.0000 0.23870  0.94270  0.99610  Biso   1.000  H
  H9       1.0000 0.80610  0.04780  0.88200  Biso   1.000  H
  H10      1.0000 0.19390  0.95220  0.11800  Biso   1.000  H
  C9       1.0000 0.85390  0.24300  0.91070  Biso   1.000  C
  C10      1.0000 0.14610  0.75700  0.08930  Biso   1.000  C
  H11      1.0000 0.97330  0.22510  0.96060  Biso   1.000  H
  H12      1.0000 0.02670  0.77490  0.03940  Biso   1.000  H
  H13      1.0000 0.90010  0.26990  0.83600  Biso   1.000  H
  H14      1.0000 0.09990  0.73010  0.16400  Biso   1.000  H
  N1       1.0000 0.69290  0.35900  0.93340  Biso   1.000  N
  N2       1.0000 0.30710  0.64100  0.06660  Biso   1.000  N
  H15      1.0000 0.73000  0.37900  0.99600  Biso   1.000  H
  H16      1.0000 0.27000  0.62100  0.00400  Biso   1.000  H
  H17      1.0000 0.68000  0.43800  0.87500  Biso   1.000  H
  H18      1.0000 0.32000  0.56200  0.12500  Biso   1.000  H
  O5       1.0000 0.04600  0.26700  0.36230  Biso   1.000  O
  O6       1.0000 0.95400  0.73300  0.63770  Biso   1.000  O
  O7       1.0000 0.74970  0.18840  0.41220  Biso   1.000  O
  O8       1.0000 0.25030  0.81160  0.58780  Biso   1.000  O
  C11      1.0000 0.92620  0.21160  0.43000  Biso   1.000  C
  C12      1.0000 0.07380  0.78840  0.57000  Biso   1.000  C
  C13      1.0000 0.00050  0.17440  0.54630  Biso   1.000  C
  C14      1.0000 0.99950  0.82560  0.45370  Biso   1.000  C
  H19      1.0000 0.94810  0.08640  0.58720  Biso   1.000  H
  H20      1.0000 0.05190  0.91360  0.41280  Biso   1.000  H
  C15      1.0000 0.93550  0.30040  0.59980  Biso   1.000  C
  C16      1.0000 0.06450  0.69960  0.40020  Biso   1.000  C
  H21      1.0000 0.87910  0.38880  0.54570  Biso   1.000  H
  H22      1.0000 0.12090  0.61120  0.45430  Biso   1.000  H
  H23      1.0000 0.83160  0.27700  0.65430  Biso   1.000  H
  H24      1.0000 0.16840  0.72300  0.34570  Biso   1.000  H
  C17      1.0000 0.13250  0.31890  0.65210  Biso   1.000  C
  C18      1.0000 0.86750  0.68110  0.34790  Biso   1.000  C
  H25      1.0000 0.12840  0.41920  0.65740  Biso   1.000  H
  H26      1.0000 0.87160  0.58080  0.34260  Biso   1.000  H
  H27      1.0000 0.15540  0.25440  0.72480  Biso   1.000  H
  H28      1.0000 0.84460  0.74560  0.27520  Biso   1.000  H
  C19      1.0000 0.29630  0.27940  0.57790  Biso   1.000  C
  C20      1.0000 0.70370  0.72060  0.42210  Biso   1.000  C
  H29      1.0000 0.29870  0.35790  0.51270  Biso   1.000  H
  H30      1.0000 0.70130  0.64210  0.48730  Biso   1.000  H
  H31      1.0000 0.43270  0.25520  0.61430  Biso   1.000  H
  H32      1.0000 0.56730  0.74480  0.38570  Biso   1.000  H
  N3       1.0000 0.23000  0.15080  0.55190  Biso   1.000  N
  N4       1.0000 0.77000  0.84920  0.44810  Biso   1.000  N
  H33      1.0000 0.28000  0.07300  0.60200  Biso   1.000  H
  H34      1.0000 0.72000  0.92700  0.39800  Biso   1.000  H
  H35      1.0000 0.28200  0.14800  0.48800  Biso   1.000  H
  H36      1.0000 0.71800  0.85200  0.51200  Biso   1.000  H
