data_image0
_cell_length_a       6.2125
_cell_length_b       9.081
_cell_length_c       11.324
_cell_angle_alpha    90
_cell_angle_beta     108.65
_cell_angle_gamma    90

_symmetry_space_group_name_H-M    "P 1"
_symmetry_int_tables_number       1

loop_
  _symmetry_equiv_pos_as_xyz
  'x, y, z'

loop_
  _atom_site_label
  _atom_site_occupancy
  _atom_site_fract_x
  _atom_site_fract_y
  _atom_site_fract_z
  _atom_site_thermal_displace_type
  _atom_site_B_iso_or_equiv
  _atom_site_type_symbol
  C1       1.0000 0.04460  0.45200  0.05760  Biso   1.000  C
  C2       1.0000 0.95540  0.95200  0.44240  Biso   1.000  C
  C3       1.0000 0.95540  0.54800  0.94240  Biso   1.000  C
  C4       1.0000 0.04460  0.04800  0.55760  Biso   1.000  C
  Cu1      1.0000 0.00000  0.00000  0.00000  Biso   1.000  Cu
  Cu2      1.0000 0.00000  0.50000  0.50000  Biso   1.000  Cu
  S1       1.0000 0.39042  0.27158  0.19541  Biso   1.000  S
  S2       1.0000 0.60958  0.77158  0.30459  Biso   1.000  S
  S3       1.0000 0.60958  0.72842  0.80459  Biso   1.000  S
  S4       1.0000 0.39042  0.22842  0.69541  Biso   1.000  S
  O1       1.0000 0.24370  0.14420  0.16120  Biso   1.000  O
  O2       1.0000 0.75630  0.64420  0.33880  Biso   1.000  O
  O3       1.0000 0.75630  0.85580  0.83880  Biso   1.000  O
  O4       1.0000 0.24370  0.35580  0.66120  Biso   1.000  O
  O5       1.0000 0.38170  0.33800  0.31120  Biso   1.000  O
  O6       1.0000 0.61830  0.83800  0.18880  Biso   1.000  O
  O7       1.0000 0.61830  0.66200  0.68880  Biso   1.000  O
  O8       1.0000 0.38170  0.16200  0.81120  Biso   1.000  O
  O9       1.0000 0.62580  0.24020  0.20280  Biso   1.000  O
  O10      1.0000 0.37420  0.74020  0.29720  Biso   1.000  O
  O11      1.0000 0.37420  0.75980  0.79720  Biso   1.000  O
  O12      1.0000 0.62580  0.25980  0.70280  Biso   1.000  O
  C5       1.0000 0.29020  0.40610  0.07800  Biso   1.000  C
  C6       1.0000 0.70980  0.90610  0.42200  Biso   1.000  C
  C7       1.0000 0.70980  0.59390  0.92200  Biso   1.000  C
  C8       1.0000 0.29020  0.09390  0.57800  Biso   1.000  C
  O13      1.0000 0.27490  0.91210  0.98300  Biso   1.000  O
  O14      1.0000 0.72510  0.41210  0.51700  Biso   1.000  O
  O15      1.0000 0.72510  0.08790  0.01700  Biso   1.000  O
  O16      1.0000 0.27490  0.58790  0.48300  Biso   1.000  O
  O17      1.0000 0.00040  0.14590  0.87410  Biso   1.000  O
  O18      1.0000 0.99960  0.64590  0.62590  Biso   1.000  O
  O19      1.0000 0.99960  0.85410  0.12590  Biso   1.000  O
  O20      1.0000 0.00040  0.35410  0.37410  Biso   1.000  O
  H1       1.0000 0.38800  0.48300  0.10300  Biso   1.000  H
  H2       1.0000 0.61200  0.98300  0.39700  Biso   1.000  H
  H3       1.0000 0.61200  0.51700  0.89700  Biso   1.000  H
  H4       1.0000 0.38800  0.01700  0.60300  Biso   1.000  H
  H5       1.0000 0.30600  0.36300  0.00400  Biso   1.000  H
  H6       1.0000 0.69400  0.86300  0.49600  Biso   1.000  H
  H7       1.0000 0.69400  0.63700  0.99600  Biso   1.000  H
  H8       1.0000 0.30600  0.13700  0.50400  Biso   1.000  H
  H9       1.0000 0.94300  0.36800  0.05400  Biso   1.000  H
  H10      1.0000 0.05700  0.86800  0.44600  Biso   1.000  H
  H11      1.0000 0.05700  0.63200  0.94600  Biso   1.000  H
  H12      1.0000 0.94300  0.13200  0.55400  Biso   1.000  H
  H13      1.0000 0.03400  0.50900  0.12800  Biso   1.000  H
  H14      1.0000 0.96600  0.00900  0.37200  Biso   1.000  H
  H15      1.0000 0.96600  0.49100  0.87200  Biso   1.000  H
  H16      1.0000 0.03400  0.99100  0.62800  Biso   1.000  H
  H17      1.0000 0.38800  0.89400  0.04700  Biso   1.000  H
  H18      1.0000 0.61200  0.39400  0.45300  Biso   1.000  H
  H19      1.0000 0.61200  0.10600  0.95300  Biso   1.000  H
  H20      1.0000 0.38800  0.60600  0.54700  Biso   1.000  H
  H21      1.0000 0.30000  0.86400  0.92700  Biso   1.000  H
  H22      1.0000 0.70000  0.36400  0.57300  Biso   1.000  H
  H23      1.0000 0.70000  0.13600  0.07300  Biso   1.000  H
  H24      1.0000 0.30000  0.63600  0.42700  Biso   1.000  H
  H25      1.0000 0.88300  0.17300  0.82200  Biso   1.000  H
  H26      1.0000 0.11700  0.67300  0.67800  Biso   1.000  H
  H27      1.0000 0.11700  0.82700  0.17800  Biso   1.000  H
  H28      1.0000 0.88300  0.32700  0.32200  Biso   1.000  H
  H29      1.0000 0.09000  0.14800  0.85200  Biso   1.000  H
  H30      1.0000 0.91000  0.64800  0.64800  Biso   1.000  H
  H31      1.0000 0.91000  0.85200  0.14800  Biso   1.000  H
  H32      1.0000 0.09000  0.35200  0.35200  Biso   1.000  H
