data_image0
_cell_length_a       9.375
_cell_length_b       7.37
_cell_length_c       7.821
_cell_angle_alpha    112.17
_cell_angle_beta     112.56
_cell_angle_gamma    76.18

_symmetry_space_group_name_H-M    "P 1"
_symmetry_int_tables_number       1

loop_
  _symmetry_equiv_pos_as_xyz
  'x, y, z'

loop_
  _atom_site_label
  _atom_site_occupancy
  _atom_site_fract_x
  _atom_site_fract_y
  _atom_site_fract_z
  _atom_site_thermal_displace_type
  _atom_site_B_iso_or_equiv
  _atom_site_type_symbol
  Cu1      1.0000 0.65190  0.13380  0.08100  Biso   1.000  Cu
  Cu2      1.0000 0.34810  0.86620  0.91900  Biso   1.000  Cu
  Cu3      1.0000 0.00000  0.00000  0.00000  Biso   1.000  Cu
  Cl1      1.0000 0.52270  0.03410  0.22080  Biso   1.000  Cl
  Cl2      1.0000 0.47730  0.96590  0.77920  Biso   1.000  Cl
  Cl3      1.0000 0.77570  0.21910  0.92730  Biso   1.000  Cl
  Cl4      1.0000 0.22430  0.78090  0.07270  Biso   1.000  Cl
  Cl5      1.0000 0.89760  0.91720  0.17580  Biso   1.000  Cl
  Cl6      1.0000 0.10240  0.08280  0.82420  Biso   1.000  Cl
  S1       1.0000 0.64540  0.43790  0.32550  Biso   1.000  S
  S2       1.0000 0.35460  0.56210  0.67450  Biso   1.000  S
  O1       1.0000 0.88570  0.70170  0.68320  Biso   1.000  O
  O2       1.0000 0.11430  0.29830  0.31680  Biso   1.000  O
  C1       1.0000 0.75960  0.60360  0.32850  Biso   1.000  C
  C2       1.0000 0.24040  0.39640  0.67150  Biso   1.000  C
  C3       1.0000 0.79210  0.76730  0.52020  Biso   1.000  C
  C4       1.0000 0.20790  0.23270  0.47980  Biso   1.000  C
  C5       1.0000 0.81530  0.57180  0.71580  Biso   1.000  C
  C6       1.0000 0.18470  0.42820  0.28420  Biso   1.000  C
  C7       1.0000 0.77850  0.38270  0.54470  Biso   1.000  C
  C8       1.0000 0.22150  0.61730  0.45530  Biso   1.000  C
  H1       1.0000 0.68128  0.83090  0.54108  Biso   1.000  H
  H2       1.0000 0.31872  0.16910  0.45892  Biso   1.000  H
  H3       1.0000 0.84656  0.87834  0.51565  Biso   1.000  H
  H4       1.0000 0.15344  0.12166  0.48435  Biso   1.000  H
  H5       1.0000 0.69831  0.66443  0.21038  Biso   1.000  H
  H6       1.0000 0.30169  0.33557  0.78962  Biso   1.000  H
  H7       1.0000 0.86911  0.52487  0.31236  Biso   1.000  H
  H8       1.0000 0.13089  0.47513  0.68764  Biso   1.000  H
  H9       1.0000 0.88401  0.30237  0.51644  Biso   1.000  H
  H10      1.0000 0.11599  0.69763  0.48356  Biso   1.000  H
  H11      1.0000 0.72535  0.29287  0.58016  Biso   1.000  H
  H12      1.0000 0.27465  0.70713  0.41984  Biso   1.000  H
  H13      1.0000 0.85400  0.52916  0.84024  Biso   1.000  H
  H14      1.0000 0.14600  0.47084  0.15976  Biso   1.000  H
  H15      1.0000 0.70980  0.64801  0.74644  Biso   1.000  H
  H16      1.0000 0.29020  0.35199  0.25356  Biso   1.000  H
