data_image0
_cell_length_a       5.9751
_cell_length_b       10.936
_cell_length_c       9.9216
_cell_angle_alpha    90
_cell_angle_beta     105.165
_cell_angle_gamma    90

_symmetry_space_group_name_H-M    "P 1"
_symmetry_int_tables_number       1

loop_
  _symmetry_equiv_pos_as_xyz
  'x, y, z'

loop_
  _atom_site_label
  _atom_site_occupancy
  _atom_site_fract_x
  _atom_site_fract_y
  _atom_site_fract_z
  _atom_site_thermal_displace_type
  _atom_site_B_iso_or_equiv
  _atom_site_type_symbol
  Cu1      1.0000 0.00000  0.00000  0.00000  Biso   1.000  Cu
  Cu2      1.0000 0.50000  0.50000  0.50000  Biso   1.000  Cu
  S1       1.0000 0.82114  0.80314  0.26528  Biso   1.000  S
  S2       1.0000 0.67886  0.30314  0.23472  Biso   1.000  S
  S3       1.0000 0.17886  0.19686  0.73472  Biso   1.000  S
  S4       1.0000 0.32114  0.69686  0.76528  Biso   1.000  S
  O1       1.0000 0.56984  0.79360  0.24657  Biso   1.000  O
  O2       1.0000 0.93016  0.29360  0.25343  Biso   1.000  O
  O3       1.0000 0.43016  0.20640  0.75343  Biso   1.000  O
  O4       1.0000 0.06984  0.70640  0.74657  Biso   1.000  O
  O5       1.0000 0.93709  0.68811  0.31921  Biso   1.000  O
  O6       1.0000 0.56291  0.18811  0.18079  Biso   1.000  O
  O7       1.0000 0.06291  0.31189  0.68079  Biso   1.000  O
  O8       1.0000 0.43709  0.81189  0.81921  Biso   1.000  O
  O9       1.0000 0.13657  0.09488  0.16954  Biso   1.000  O
  O10      1.0000 0.36343  0.59488  0.33046  Biso   1.000  O
  O11      1.0000 0.86343  0.90512  0.83046  Biso   1.000  O
  O12      1.0000 0.63657  0.40512  0.66954  Biso   1.000  O
  H1       1.0000 0.06700  0.14650  0.19800  Biso   1.000  H
  H2       1.0000 0.43300  0.64650  0.30200  Biso   1.000  H
  H3       1.0000 0.93300  0.85350  0.80200  Biso   1.000  H
  H4       1.0000 0.56700  0.35350  0.69800  Biso   1.000  H
  H5       1.0000 0.24900  0.11700  0.17900  Biso   1.000  H
  H6       1.0000 0.25100  0.61700  0.32100  Biso   1.000  H
  H7       1.0000 0.75100  0.88300  0.82100  Biso   1.000  H
  H8       1.0000 0.74900  0.38300  0.67900  Biso   1.000  H
  O13      1.0000 0.29999  0.92195  0.02858  Biso   1.000  O
  O14      1.0000 0.20001  0.42195  0.47142  Biso   1.000  O
  O15      1.0000 0.70001  0.07805  0.97142  Biso   1.000  O
  O16      1.0000 0.79999  0.57805  0.52858  Biso   1.000  O
  H9       1.0000 0.35700  0.87710  0.09900  Biso   1.000  H
  H10      1.0000 0.14300  0.37710  0.40100  Biso   1.000  H
  H11      1.0000 0.64300  0.12290  0.90100  Biso   1.000  H
  H12      1.0000 0.85700  0.62290  0.59900  Biso   1.000  H
  H13      1.0000 0.34100  0.89000  0.95900  Biso   1.000  H
  H14      1.0000 0.15900  0.39000  0.54100  Biso   1.000  H
  H15      1.0000 0.65900  0.11000  0.04100  Biso   1.000  H
  H16      1.0000 0.84100  0.61000  0.45900  Biso   1.000  H
  O17      1.0000 0.88309  0.84598  0.14179  Biso   1.000  O
  O18      1.0000 0.61691  0.34598  0.35821  Biso   1.000  O
  O19      1.0000 0.11691  0.15402  0.85821  Biso   1.000  O
  O20      1.0000 0.38309  0.65402  0.64179  Biso   1.000  O
  C1       1.0000 0.91980  0.91286  0.39856  Biso   1.000  C
  C2       1.0000 0.58020  0.41286  0.10144  Biso   1.000  C
  C3       1.0000 0.08020  0.08714  0.60144  Biso   1.000  C
  C4       1.0000 0.41980  0.58714  0.89856  Biso   1.000  C
  C5       1.0000 0.76490  0.99545  0.43080  Biso   1.000  C
  C6       1.0000 0.73510  0.49545  0.06920  Biso   1.000  C
  C7       1.0000 0.23510  0.00455  0.56920  Biso   1.000  C
  C8       1.0000 0.26490  0.50455  0.93080  Biso   1.000  C
  H17      1.0000 0.60500  0.99450  0.37960  Biso   1.000  H
  H18      1.0000 0.89500  0.49450  0.12040  Biso   1.000  H
  H19      1.0000 0.39500  0.00550  0.62040  Biso   1.000  H
  H20      1.0000 0.10500  0.50550  0.87960  Biso   1.000  H
  C9       1.0000 0.15500  0.91675  0.46693  Biso   1.000  C
  C10      1.0000 0.34500  0.41675  0.03307  Biso   1.000  C
  C11      1.0000 0.84500  0.08325  0.53307  Biso   1.000  C
  C12      1.0000 0.65500  0.58325  0.96693  Biso   1.000  C
  H21      1.0000 0.25400  0.86050  0.44200  Biso   1.000  H
  H22      1.0000 0.24600  0.36050  0.05800  Biso   1.000  H
  H23      1.0000 0.74600  0.13950  0.55800  Biso   1.000  H
  H24      1.0000 0.75400  0.63950  0.94200  Biso   1.000  H
