data_image0
_cell_length_a       8.1545
_cell_length_b       11.4606
_cell_length_c       11.4697
_cell_angle_alpha    114.593
_cell_angle_beta     102.453
_cell_angle_gamma    103.841

_symmetry_space_group_name_H-M    "P 1"
_symmetry_int_tables_number       1

loop_
  _symmetry_equiv_pos_as_xyz
  'x, y, z'

loop_
  _atom_site_label
  _atom_site_occupancy
  _atom_site_fract_x
  _atom_site_fract_y
  _atom_site_fract_z
  _atom_site_thermal_displace_type
  _atom_site_B_iso_or_equiv
  _atom_site_type_symbol
  Cu1      1.0000 0.00000  0.50000  0.00000  Biso   1.000  Cu
  O1       1.0000 0.06690  0.67680  0.16900  Biso   1.000  O
  O2       1.0000 0.93310  0.32320  0.83100  Biso   1.000  O
  H1       1.0000 0.01400  0.68400  0.21200  Biso   1.000  H
  H2       1.0000 0.98600  0.31600  0.78800  Biso   1.000  H
  H3       1.0000 0.15800  0.71700  0.20000  Biso   1.000  H
  H4       1.0000 0.84200  0.28300  0.80000  Biso   1.000  H
  O3       1.0000 0.25740  0.53420  0.04040  Biso   1.000  O
  O4       1.0000 0.74260  0.46580  0.95960  Biso   1.000  O
  H5       1.0000 0.28400  0.52200  0.96100  Biso   1.000  H
  H6       1.0000 0.71600  0.47800  0.03900  Biso   1.000  H
  H7       1.0000 0.27000  0.48000  0.06700  Biso   1.000  H
  H8       1.0000 0.73000  0.52000  0.93300  Biso   1.000  H
  Cu2      1.0000 0.50000  0.00000  0.00000  Biso   1.000  Cu
  O5       1.0000 0.28450  0.04560  0.00250  Biso   1.000  O
  O6       1.0000 0.71550  0.95440  0.99750  Biso   1.000  O
  H9       1.0000 0.17200  0.96600  0.94800  Biso   1.000  H
  H10      1.0000 0.82800  0.03400  0.05200  Biso   1.000  H
  H11      1.0000 0.31900  0.14300  0.04800  Biso   1.000  H
  H12      1.0000 0.68100  0.85700  0.95200  Biso   1.000  H
  O7       1.0000 0.39030  0.82550  0.99850  Biso   1.000  O
  O8       1.0000 0.60970  0.17450  0.00150  Biso   1.000  O
  H13      1.0000 0.41600  0.82600  0.06000  Biso   1.000  H
  H14      1.0000 0.58400  0.17400  0.94000  Biso   1.000  H
  H15      1.0000 0.28700  0.78600  0.96900  Biso   1.000  H
  H16      1.0000 0.71300  0.21400  0.03100  Biso   1.000  H
  Cu3      1.0000 0.00000  0.00000  0.50000  Biso   1.000  Cu
  O9       1.0000 0.21370  0.99700  0.45190  Biso   1.000  O
  O10      1.0000 0.78630  0.00300  0.54810  Biso   1.000  O
  H17      1.0000 0.26800  0.94600  0.47200  Biso   1.000  H
  H18      1.0000 0.73200  0.05400  0.52800  Biso   1.000  H
  H19      1.0000 0.23000  0.03400  0.41500  Biso   1.000  H
  H20      1.0000 0.77000  0.96600  0.58500  Biso   1.000  H
  O11      1.0000 0.89280  0.00200  0.32900  Biso   1.000  O
  O12      1.0000 0.10720  0.99800  0.67100  Biso   1.000  O
  H21      1.0000 0.82100  0.03800  0.32200  Biso   1.000  H
  H22      1.0000 0.17900  0.96200  0.67800  Biso   1.000  H
  H23      1.0000 0.93200  0.95300  0.26900  Biso   1.000  H
  H24      1.0000 0.06800  0.04700  0.73100  Biso   1.000  H
  S1       1.0000 0.09984  0.32290  0.17763  Biso   1.000  S
  S2       1.0000 0.90016  0.67710  0.82237  Biso   1.000  S
  O13      1.0000 0.96650  0.37280  0.12680  Biso   1.000  O
  O14      1.0000 0.03350  0.62720  0.87320  Biso   1.000  O
  O15      1.0000 0.25620  0.35000  0.13700  Biso   1.000  O
  O16      1.0000 0.74380  0.65000  0.86300  Biso   1.000  O
  O17      1.0000 0.02120  0.17990  0.14380  Biso   1.000  O
  O18      1.0000 0.97880  0.82010  0.85620  Biso   1.000  O
  C1       1.0000 0.18350  0.42290  0.35900  Biso   1.000  C
  C2       1.0000 0.81650  0.57710  0.64100  Biso   1.000  C
  C3       1.0000 0.25410  0.56740  0.42060  Biso   1.000  C
  C4       1.0000 0.74590  0.43260  0.57940  Biso   1.000  C
  H25      1.0000 0.25000  0.61000  0.36100  Biso   1.000  H
  H26      1.0000 0.75000  0.39000  0.63900  Biso   1.000  H
  C5       1.0000 0.33010  0.64450  0.56270  Biso   1.000  C
  C6       1.0000 0.66990  0.35550  0.43730  Biso   1.000  C
  S3       1.0000 0.43245  0.82674  0.64643  Biso   1.000  S
  S4       1.0000 0.56755  0.17326  0.35357  Biso   1.000  S
  O19      1.0000 0.39520  0.86690  0.54140  Biso   1.000  O
  O20      1.0000 0.60480  0.13310  0.45860  Biso   1.000  O
  O21      1.0000 0.34990  0.88080  0.74890  Biso   1.000  O
  O22      1.0000 0.65010  0.11920  0.25110  Biso   1.000  O
  O23      1.0000 0.62450  0.85990  0.70970  Biso   1.000  O
  O24      1.0000 0.37550  0.14010  0.29030  Biso   1.000  O
  C7       1.0000 0.33630  0.58170  0.64430  Biso   1.000  C
  C8       1.0000 0.66370  0.41830  0.35570  Biso   1.000  C
  H27      1.0000 0.40100  0.63900  0.74400  Biso   1.000  H
  H28      1.0000 0.59900  0.36100  0.25600  Biso   1.000  H
  C9       1.0000 0.26460  0.43860  0.57980  Biso   1.000  C
  C10      1.0000 0.73540  0.56140  0.42020  Biso   1.000  C
  S5       1.0000 0.28001  0.35306  0.67728  Biso   1.000  S
  S6       1.0000 0.71999  0.64694  0.32272  Biso   1.000  S
  O25      1.0000 0.35310  0.45960  0.82120  Biso   1.000  O
  O26      1.0000 0.64690  0.54040  0.17880  Biso   1.000  O
  O27      1.0000 0.40050  0.28070  0.63850  Biso   1.000  O
  O28      1.0000 0.59950  0.71930  0.36150  Biso   1.000  O
  O29      1.0000 0.09690  0.25650  0.63590  Biso   1.000  O
  O30      1.0000 0.90310  0.74350  0.36410  Biso   1.000  O
  C11      1.0000 0.18660  0.35720  0.43690  Biso   1.000  C
  C12      1.0000 0.81340  0.64280  0.56310  Biso   1.000  C
  H29      1.0000 0.14500  0.25600  0.39100  Biso   1.000  H
  H30      1.0000 0.85500  0.74400  0.60900  Biso   1.000  H
  O31      1.0000 0.41180  0.83010  0.24660  Biso   1.000  O
  O32      1.0000 0.58820  0.16990  0.75340  Biso   1.000  O
  O33      1.0000 0.05630  0.92140  0.16010  Biso   1.000  O
  O34      1.0000 0.94370  0.07860  0.83990  Biso   1.000  O
  O35      1.0000 0.35490  0.24710  0.91660  Biso   1.000  O
  O36      1.0000 0.64510  0.75290  0.08340  Biso   1.000  O
