data_image0
_cell_length_a       17.0824
_cell_length_b       11.8393
_cell_length_c       19.2662
_cell_angle_alpha    90
_cell_angle_beta     106.856
_cell_angle_gamma    90

_symmetry_space_group_name_H-M    "P 1"
_symmetry_int_tables_number       1

loop_
  _symmetry_equiv_pos_as_xyz
  'x, y, z'

loop_
  _atom_site_label
  _atom_site_occupancy
  _atom_site_fract_x
  _atom_site_fract_y
  _atom_site_fract_z
  _atom_site_thermal_displace_type
  _atom_site_B_iso_or_equiv
  _atom_site_type_symbol
  Cu1      1.0000 0.30519  0.90712  0.10159  Biso   1.000  Cu
  Cu2      1.0000 0.19481  0.40712  0.39841  Biso   1.000  Cu
  Cu3      1.0000 0.69481  0.09288  0.89841  Biso   1.000  Cu
  Cu4      1.0000 0.80519  0.59288  0.60159  Biso   1.000  Cu
  Cu5      1.0000 0.15660  0.15667  0.16901  Biso   1.000  Cu
  Cu6      1.0000 0.34340  0.65667  0.33099  Biso   1.000  Cu
  Cu7      1.0000 0.84340  0.84333  0.83099  Biso   1.000  Cu
  Cu8      1.0000 0.65660  0.34333  0.66901  Biso   1.000  Cu
  O1       1.0000 0.37689  0.10960  0.06586  Biso   1.000  O
  O2       1.0000 0.12311  0.60960  0.43414  Biso   1.000  O
  O3       1.0000 0.62311  0.89040  0.93414  Biso   1.000  O
  O4       1.0000 0.87689  0.39040  0.56586  Biso   1.000  O
  O5       1.0000 0.26159  0.01209  0.02116  Biso   1.000  O
  O6       1.0000 0.23841  0.51209  0.47884  Biso   1.000  O
  O7       1.0000 0.73841  0.98791  0.97884  Biso   1.000  O
  O8       1.0000 0.76159  0.48791  0.52116  Biso   1.000  O
  O9       1.0000 0.07749  0.18970  0.99284  Biso   1.000  O
  O10      1.0000 0.42251  0.68970  0.50716  Biso   1.000  O
  O11      1.0000 0.92251  0.81030  0.00716  Biso   1.000  O
  O12      1.0000 0.57749  0.31030  0.49284  Biso   1.000  O
  O13      1.0000 0.18935  0.21959  0.08538  Biso   1.000  O
  O14      1.0000 0.31065  0.71959  0.41462  Biso   1.000  O
  O15      1.0000 0.81065  0.78041  0.91462  Biso   1.000  O
  O16      1.0000 0.68935  0.28041  0.58538  Biso   1.000  O
  O17      1.0000 0.76588  0.48939  0.66507  Biso   1.000  O
  O18      1.0000 0.73412  0.98939  0.83493  Biso   1.000  O
  O19      1.0000 0.23412  0.51061  0.33493  Biso   1.000  O
  O20      1.0000 0.26588  0.01061  0.16507  Biso   1.000  O
  O21      1.0000 0.77515  0.32841  0.72385  Biso   1.000  O
  O22      1.0000 0.72485  0.82841  0.77615  Biso   1.000  O
  O23      1.0000 0.22485  0.67159  0.27615  Biso   1.000  O
  O24      1.0000 0.27515  0.17159  0.22385  Biso   1.000  O
  O25      1.0000 0.85308  0.68245  0.68940  Biso   1.000  O
  O26      1.0000 0.64692  0.18245  0.81060  Biso   1.000  O
  O27      1.0000 0.14692  0.31755  0.31060  Biso   1.000  O
  O28      1.0000 0.35308  0.81755  0.18940  Biso   1.000  O
  O29      1.0000 0.89967  0.68290  0.80966  Biso   1.000  O
  O30      1.0000 0.60033  0.18290  0.69034  Biso   1.000  O
  O31      1.0000 0.10033  0.31710  0.19034  Biso   1.000  O
  O32      1.0000 0.39967  0.81710  0.30966  Biso   1.000  O
  O33      1.0000 0.05022  0.09920  0.10610  Biso   1.000  O
  O34      1.0000 0.44978  0.59920  0.39390  Biso   1.000  O
  O35      1.0000 0.94978  0.90080  0.89390  Biso   1.000  O
  O36      1.0000 0.55022  0.40080  0.60610  Biso   1.000  O
  N1       1.0000 0.12933  0.06960  0.25111  Biso   1.000  N
  N2       1.0000 0.37067  0.56960  0.24889  Biso   1.000  N
  N3       1.0000 0.87067  0.93040  0.74889  Biso   1.000  N
  N4       1.0000 0.62933  0.43040  0.75111  Biso   1.000  N
  N5       1.0000 0.86914  0.68490  0.54788  Biso   1.000  N
  N6       1.0000 0.63086  0.18490  0.95212  Biso   1.000  N
  N7       1.0000 0.13086  0.31510  0.45212  Biso   1.000  N
  N8       1.0000 0.36914  0.81510  0.04788  Biso   1.000  N
  N9       1.0000 0.19324  0.79510  0.06535  Biso   1.000  N
  N10      1.0000 0.30676  0.29510  0.43465  Biso   1.000  N
  N11      1.0000 0.80676  0.20490  0.93465  Biso   1.000  N
  N12      1.0000 0.69324  0.70490  0.56535  Biso   1.000  N
  C1       1.0000 0.27820  0.29470  0.86346  Biso   1.000  C
  C2       1.0000 0.22180  0.79470  0.63654  Biso   1.000  C
  C3       1.0000 0.72180  0.70530  0.13654  Biso   1.000  C
  C4       1.0000 0.77820  0.20530  0.36346  Biso   1.000  C
  H1       1.0000 0.30590  0.31120  0.82960  Biso   1.000  H
  H2       1.0000 0.19410  0.81120  0.67040  Biso   1.000  H
  H3       1.0000 0.69410  0.68880  0.17040  Biso   1.000  H
  H4       1.0000 0.80590  0.18880  0.32960  Biso   1.000  H
  C5       1.0000 0.31140  0.21750  0.91792  Biso   1.000  C
  C6       1.0000 0.18860  0.71750  0.58208  Biso   1.000  C
  C7       1.0000 0.68860  0.78250  0.08208  Biso   1.000  C
  C8       1.0000 0.81140  0.28250  0.41792  Biso   1.000  C
  H5       1.0000 0.36100  0.18300  0.92020  Biso   1.000  H
  H6       1.0000 0.13900  0.68300  0.57980  Biso   1.000  H
  H7       1.0000 0.63900  0.81700  0.07980  Biso   1.000  H
  H8       1.0000 0.86100  0.31700  0.42020  Biso   1.000  H
  C9       1.0000 0.27159  0.19080  0.96924  Biso   1.000  C
  C10      1.0000 0.22841  0.69080  0.53076  Biso   1.000  C
  C11      1.0000 0.72841  0.80920  0.03076  Biso   1.000  C
  C12      1.0000 0.77159  0.30920  0.46924  Biso   1.000  C
  C13      1.0000 0.19817  0.24460  0.96587  Biso   1.000  C
  C14      1.0000 0.30183  0.74460  0.53413  Biso   1.000  C
  C15      1.0000 0.80183  0.75540  0.03413  Biso   1.000  C
  C16      1.0000 0.69817  0.25540  0.46587  Biso   1.000  C
  C17      1.0000 0.16556  0.32250  0.91127  Biso   1.000  C
  C18      1.0000 0.33444  0.82250  0.58873  Biso   1.000  C
  C19      1.0000 0.83444  0.67750  0.08873  Biso   1.000  C
  C20      1.0000 0.66556  0.17750  0.41127  Biso   1.000  C
  H9       1.0000 0.11670  0.35850  0.90970  Biso   1.000  H
  H10      1.0000 0.38330  0.85850  0.59030  Biso   1.000  H
  H11      1.0000 0.88330  0.64150  0.09030  Biso   1.000  H
  H12      1.0000 0.61670  0.14150  0.40970  Biso   1.000  H
  C21      1.0000 0.20436  0.34820  0.85851  Biso   1.000  C
  C22      1.0000 0.29564  0.84820  0.64149  Biso   1.000  C
  C23      1.0000 0.79564  0.65180  0.14149  Biso   1.000  C
  C24      1.0000 0.70436  0.15180  0.35851  Biso   1.000  C
  C25      1.0000 0.30720  0.09860  0.02416  Biso   1.000  C
  C26      1.0000 0.19280  0.59860  0.47584  Biso   1.000  C
  C27      1.0000 0.69280  0.90140  0.97584  Biso   1.000  C
  C28      1.0000 0.80720  0.40140  0.52416  Biso   1.000  C
  C29      1.0000 0.15080  0.21550  0.01854  Biso   1.000  C
  C30      1.0000 0.34920  0.71550  0.48146  Biso   1.000  C
  C31      1.0000 0.84920  0.78450  0.98146  Biso   1.000  C
  C32      1.0000 0.65080  0.28450  0.51854  Biso   1.000  C
  C33      1.0000 0.16564  0.43620  0.79930  Biso   1.000  C
  C34      1.0000 0.33436  0.93620  0.70070  Biso   1.000  C
  C35      1.0000 0.83436  0.56380  0.20070  Biso   1.000  C
  C36      1.0000 0.66564  0.06380  0.29930  Biso   1.000  C
  C37      1.0000 0.18570  0.41150  0.72671  Biso   1.000  C
  C38      1.0000 0.31430  0.91150  0.77329  Biso   1.000  C
  C39      1.0000 0.81430  0.58850  0.27329  Biso   1.000  C
  C40      1.0000 0.68570  0.08850  0.22671  Biso   1.000  C
  C41      1.0000 0.20340  0.55070  0.82750  Biso   1.000  C
  C42      1.0000 0.29660  0.05070  0.67250  Biso   1.000  C
  C43      1.0000 0.79660  0.44930  0.17250  Biso   1.000  C
  C44      1.0000 0.70340  0.94930  0.32750  Biso   1.000  C
  C45      1.0000 0.07110  0.43680  0.77988  Biso   1.000  C
  C46      1.0000 0.42890  0.93680  0.72012  Biso   1.000  C
  C47      1.0000 0.92890  0.56320  0.22012  Biso   1.000  C
  C48      1.0000 0.57110  0.06320  0.27988  Biso   1.000  C
  C49      1.0000 0.03120  0.33270  0.76515  Biso   1.000  C
  C50      1.0000 0.46880  0.83270  0.73485  Biso   1.000  C
  C51      1.0000 0.96880  0.66730  0.23485  Biso   1.000  C
  C52      1.0000 0.53120  0.16730  0.26515  Biso   1.000  C
  H13      1.0000 0.06160  0.26640  0.77030  Biso   1.000  H
  H14      1.0000 0.43840  0.76640  0.72970  Biso   1.000  H
  H15      1.0000 0.93840  0.73360  0.22970  Biso   1.000  H
  H16      1.0000 0.56160  0.23360  0.27030  Biso   1.000  H
  C53      1.0000 0.94670  0.32780  0.74294  Biso   1.000  C
  C54      1.0000 0.55330  0.82780  0.75706  Biso   1.000  C
  C55      1.0000 0.05330  0.67220  0.25706  Biso   1.000  C
  C56      1.0000 0.44670  0.17220  0.24294  Biso   1.000  C
  H17      1.0000 0.92100  0.25780  0.73430  Biso   1.000  H
  H18      1.0000 0.57900  0.75780  0.76570  Biso   1.000  H
  H19      1.0000 0.07900  0.74220  0.26570  Biso   1.000  H
  H20      1.0000 0.42100  0.24220  0.23430  Biso   1.000  H
  C57      1.0000 0.89948  0.42500  0.73322  Biso   1.000  C
  C58      1.0000 0.60052  0.92500  0.76678  Biso   1.000  C
  C59      1.0000 0.10052  0.57500  0.26678  Biso   1.000  C
  C60      1.0000 0.39948  0.07500  0.23322  Biso   1.000  C
  C61      1.0000 0.93845  0.52890  0.75053  Biso   1.000  C
  C62      1.0000 0.56155  0.02890  0.74947  Biso   1.000  C
  C63      1.0000 0.06155  0.47110  0.24947  Biso   1.000  C
  C64      1.0000 0.43845  0.97110  0.25053  Biso   1.000  C
  C65      1.0000 0.02361  0.53340  0.77429  Biso   1.000  C
  C66      1.0000 0.47639  0.03340  0.72571  Biso   1.000  C
  C67      1.0000 0.97639  0.46660  0.22571  Biso   1.000  C
  C68      1.0000 0.52361  0.96660  0.27429  Biso   1.000  C
  H21      1.0000 0.04930  0.60290  0.78670  Biso   1.000  H
  H22      1.0000 0.45070  0.10290  0.71330  Biso   1.000  H
  H23      1.0000 0.95070  0.39710  0.21330  Biso   1.000  H
  H24      1.0000 0.54930  0.89710  0.28670  Biso   1.000  H
  C69      1.0000 0.80857  0.41370  0.70522  Biso   1.000  C
  C70      1.0000 0.69143  0.91370  0.79478  Biso   1.000  C
  C71      1.0000 0.19143  0.58630  0.29478  Biso   1.000  C
  C72      1.0000 0.30857  0.08630  0.20522  Biso   1.000  C
  C73      1.0000 0.89243  0.63900  0.74951  Biso   1.000  C
  C74      1.0000 0.60757  0.13900  0.75049  Biso   1.000  C
  C75      1.0000 0.10757  0.36100  0.25049  Biso   1.000  C
  C76      1.0000 0.39243  0.86100  0.24951  Biso   1.000  C
  C77      1.0000 0.17600  0.98970  0.29229  Biso   1.000  C
  C78      1.0000 0.32400  0.48970  0.20771  Biso   1.000  C
  C79      1.0000 0.82400  0.01030  0.70771  Biso   1.000  C
  C80      1.0000 0.67600  0.51030  0.79229  Biso   1.000  C
  H25      1.0000 0.22820  0.97800  0.28780  Biso   1.000  H
  H26      1.0000 0.27180  0.47800  0.21220  Biso   1.000  H
  H27      1.0000 0.77180  0.02200  0.71220  Biso   1.000  H
  H28      1.0000 0.72820  0.52200  0.78780  Biso   1.000  H
  C81      1.0000 0.15080  0.92340  0.34122  Biso   1.000  C
  C82      1.0000 0.34920  0.42340  0.15878  Biso   1.000  C
  C83      1.0000 0.84920  0.07660  0.65878  Biso   1.000  C
  C84      1.0000 0.65080  0.57660  0.84122  Biso   1.000  C
  H29      1.0000 0.18520  0.86830  0.36830  Biso   1.000  H
  H30      1.0000 0.31480  0.36830  0.13170  Biso   1.000  H
  H31      1.0000 0.81480  0.13170  0.63170  Biso   1.000  H
  H32      1.0000 0.68520  0.63170  0.86830  Biso   1.000  H
  C85      1.0000 0.07350  0.94060  0.34918  Biso   1.000  C
  C86      1.0000 0.42650  0.44060  0.15082  Biso   1.000  C
  C87      1.0000 0.92650  0.05940  0.65082  Biso   1.000  C
  C88      1.0000 0.57350  0.55940  0.84918  Biso   1.000  C
  C89      1.0000 0.02570  0.02480  0.30688  Biso   1.000  C
  C90      1.0000 0.47430  0.52480  0.19312  Biso   1.000  C
  C91      1.0000 0.97430  0.97520  0.69312  Biso   1.000  C
  C92      1.0000 0.52570  0.47520  0.80688  Biso   1.000  C
  H33      1.0000 0.97340  0.03920  0.31030  Biso   1.000  H
  H34      1.0000 0.52660  0.53920  0.18970  Biso   1.000  H
  H35      1.0000 0.02660  0.96080  0.68970  Biso   1.000  H
  H36      1.0000 0.47340  0.46080  0.81030  Biso   1.000  H
  C93      1.0000 0.05580  0.08640  0.26016  Biso   1.000  C
  C94      1.0000 0.44420  0.58640  0.23984  Biso   1.000  C
  C95      1.0000 0.94420  0.91360  0.73984  Biso   1.000  C
  C96      1.0000 0.55580  0.41360  0.76016  Biso   1.000  C
  H37      1.0000 0.02310  0.14320  0.23320  Biso   1.000  H
  H38      1.0000 0.47690  0.64320  0.26680  Biso   1.000  H
  H39      1.0000 0.97690  0.85680  0.76680  Biso   1.000  H
  H40      1.0000 0.52310  0.35680  0.73320  Biso   1.000  H
  C97      1.0000 0.04240  0.86690  0.39690  Biso   1.000  C
  C98      1.0000 0.45760  0.36690  0.10310  Biso   1.000  C
  C99      1.0000 0.95760  0.13310  0.60310  Biso   1.000  C
  C100     1.0000 0.54240  0.63310  0.89690  Biso   1.000  C
  H41      1.0000 0.06810  0.79770  0.41030  Biso   1.000  H
  H42      1.0000 0.43190  0.29770  0.08970  Biso   1.000  H
  H43      1.0000 0.93190  0.20230  0.58970  Biso   1.000  H
  H44      1.0000 0.56810  0.70230  0.91030  Biso   1.000  H
  C101     1.0000 0.98050  0.89270  0.42184  Biso   1.000  C
  C102     1.0000 0.51950  0.39270  0.07816  Biso   1.000  C
  C103     1.0000 0.01950  0.10730  0.57816  Biso   1.000  C
  C104     1.0000 0.48050  0.60730  0.92184  Biso   1.000  C
  H45      1.0000 0.95710  0.96370  0.41000  Biso   1.000  H
  H46      1.0000 0.54290  0.46370  0.09000  Biso   1.000  H
  H47      1.0000 0.04290  0.03630  0.59000  Biso   1.000  H
  H48      1.0000 0.45710  0.53630  0.91000  Biso   1.000  H
  C105     1.0000 0.94500  0.81930  0.46680  Biso   1.000  C
  C106     1.0000 0.55500  0.31930  0.03320  Biso   1.000  C
  C107     1.0000 0.05500  0.18070  0.53320  Biso   1.000  C
  C108     1.0000 0.44500  0.68070  0.96680  Biso   1.000  C
  C109     1.0000 0.95770  0.70330  0.47270  Biso   1.000  C
  C110     1.0000 0.54230  0.20330  0.02730  Biso   1.000  C
  C111     1.0000 0.04230  0.29670  0.52730  Biso   1.000  C
  C112     1.0000 0.45770  0.79670  0.97270  Biso   1.000  C
  H49      1.0000 0.99220  0.66850  0.44970  Biso   1.000  H
  H50      1.0000 0.50780  0.16850  0.05030  Biso   1.000  H
  H51      1.0000 0.00780  0.33150  0.55030  Biso   1.000  H
  H52      1.0000 0.49220  0.83150  0.94970  Biso   1.000  H
  C113     1.0000 0.91880  0.64040  0.51275  Biso   1.000  C
  C114     1.0000 0.58120  0.14040  0.98725  Biso   1.000  C
  C115     1.0000 0.08120  0.35960  0.48725  Biso   1.000  C
  C116     1.0000 0.41880  0.85960  0.01275  Biso   1.000  C
  H53      1.0000 0.92760  0.56280  0.51560  Biso   1.000  H
  H54      1.0000 0.57240  0.06280  0.98440  Biso   1.000  H
  H55      1.0000 0.07240  0.43720  0.48440  Biso   1.000  H
  H56      1.0000 0.42760  0.93720  0.01560  Biso   1.000  H
  C117     1.0000 0.85860  0.79680  0.54336  Biso   1.000  C
  C118     1.0000 0.64140  0.29680  0.95664  Biso   1.000  C
  C119     1.0000 0.14140  0.20320  0.45664  Biso   1.000  C
  C120     1.0000 0.35860  0.70320  0.04336  Biso   1.000  C
  H57      1.0000 0.82560  0.82980  0.56850  Biso   1.000  H
  H58      1.0000 0.67440  0.32980  0.93150  Biso   1.000  H
  H59      1.0000 0.17440  0.17020  0.43150  Biso   1.000  H
  H60      1.0000 0.32560  0.67020  0.06850  Biso   1.000  H
  C121     1.0000 0.89380  0.86530  0.50360  Biso   1.000  C
  C122     1.0000 0.60620  0.36530  0.99640  Biso   1.000  C
  C123     1.0000 0.10620  0.13470  0.49640  Biso   1.000  C
  C124     1.0000 0.39380  0.63470  0.00360  Biso   1.000  C
  H61      1.0000 0.88340  0.94250  0.50130  Biso   1.000  H
  H62      1.0000 0.61660  0.44250  0.99870  Biso   1.000  H
  H63      1.0000 0.11660  0.05750  0.49870  Biso   1.000  H
  H64      1.0000 0.38340  0.55750  0.00130  Biso   1.000  H
  C125     1.0000 0.14370  0.79780  0.99729  Biso   1.000  C
  C126     1.0000 0.35630  0.29780  0.50271  Biso   1.000  C
  C127     1.0000 0.85630  0.20220  0.00271  Biso   1.000  C
  C128     1.0000 0.64370  0.70220  0.49729  Biso   1.000  C
  H65      1.0000 0.14990  0.85610  0.96700  Biso   1.000  H
  H66      1.0000 0.35010  0.35610  0.53300  Biso   1.000  H
  H67      1.0000 0.85010  0.14390  0.03300  Biso   1.000  H
  H68      1.0000 0.64990  0.64390  0.46700  Biso   1.000  H
  C129     1.0000 0.08390  0.71780  0.97024  Biso   1.000  C
  C130     1.0000 0.41610  0.21780  0.52976  Biso   1.000  C
  C131     1.0000 0.91610  0.28220  0.02976  Biso   1.000  C
  C132     1.0000 0.58390  0.78220  0.47024  Biso   1.000  C
  H69      1.0000 0.05120  0.72350  0.92250  Biso   1.000  H
  H70      1.0000 0.44880  0.22350  0.57750  Biso   1.000  H
  H71      1.0000 0.94880  0.27650  0.07750  Biso   1.000  H
  H72      1.0000 0.55120  0.77650  0.42250  Biso   1.000  H
  C133     1.0000 0.07180  0.62910  0.01291  Biso   1.000  C
  C134     1.0000 0.42820  0.12910  0.48709  Biso   1.000  C
  C135     1.0000 0.92820  0.37090  0.98709  Biso   1.000  C
  C136     1.0000 0.57180  0.87090  0.51291  Biso   1.000  C
  C137     1.0000 0.12370  0.62710  0.08404  Biso   1.000  C
  C138     1.0000 0.37630  0.12710  0.41596  Biso   1.000  C
  C139     1.0000 0.87630  0.37290  0.91596  Biso   1.000  C
  C140     1.0000 0.62370  0.87290  0.58404  Biso   1.000  C
  H73      1.0000 0.11870  0.57010  0.11570  Biso   1.000  H
  H74      1.0000 0.38130  0.07010  0.38430  Biso   1.000  H
  H75      1.0000 0.88130  0.42990  0.88430  Biso   1.000  H
  H76      1.0000 0.61870  0.92990  0.61570  Biso   1.000  H
  C141     1.0000 0.18180  0.70920  0.10689  Biso   1.000  C
  C142     1.0000 0.31820  0.20920  0.39311  Biso   1.000  C
  C143     1.0000 0.81820  0.29080  0.89311  Biso   1.000  C
  C144     1.0000 0.68180  0.79080  0.60689  Biso   1.000  C
  H77      1.0000 0.21570  0.70530  0.15430  Biso   1.000  H
  H78      1.0000 0.28430  0.20530  0.34570  Biso   1.000  H
  H79      1.0000 0.78430  0.29470  0.84570  Biso   1.000  H
  H80      1.0000 0.71570  0.79470  0.65430  Biso   1.000  H
  C145     1.0000 0.00730  0.54580  0.98356  Biso   1.000  C
  C146     1.0000 0.49270  0.04580  0.51644  Biso   1.000  C
  C147     1.0000 0.99270  0.45420  0.01644  Biso   1.000  C
  C148     1.0000 0.50730  0.95420  0.48356  Biso   1.000  C
  H81      1.0000 0.97320  0.55910  0.93700  Biso   1.000  H
  H82      1.0000 0.52680  0.05910  0.56300  Biso   1.000  H
  H83      1.0000 0.02680  0.44090  0.06300  Biso   1.000  H
  H84      1.0000 0.47320  0.94090  0.43700  Biso   1.000  H
  F1       1.0000 0.17150  0.30360  0.70746  Biso   1.000  F
  F2       1.0000 0.32850  0.80360  0.79254  Biso   1.000  F
  F3       1.0000 0.82850  0.69640  0.29254  Biso   1.000  F
  F4       1.0000 0.67150  0.19640  0.20746  Biso   1.000  F
  F5       1.0000 0.26333  0.43280  0.72959  Biso   1.000  F
  F6       1.0000 0.23667  0.93280  0.77041  Biso   1.000  F
  F7       1.0000 0.73667  0.56720  0.27041  Biso   1.000  F
  F8       1.0000 0.76333  0.06720  0.22959  Biso   1.000  F
  F9       1.0000 0.13966  0.47400  0.67293  Biso   1.000  F
  F10      1.0000 0.36034  0.97400  0.82707  Biso   1.000  F
  F11      1.0000 0.86034  0.52600  0.32707  Biso   1.000  F
  F12      1.0000 0.63966  0.02600  0.17293  Biso   1.000  F
  F13      1.0000 0.28530  0.54770  0.84932  Biso   1.000  F
  F14      1.0000 0.21470  0.04770  0.65068  Biso   1.000  F
  F15      1.0000 0.71470  0.45230  0.15068  Biso   1.000  F
  F16      1.0000 0.78530  0.95230  0.34932  Biso   1.000  F
  F17      1.0000 0.18266  0.63406  0.77836  Biso   1.000  F
  F18      1.0000 0.31734  0.13406  0.72164  Biso   1.000  F
  F19      1.0000 0.81734  0.36594  0.22164  Biso   1.000  F
  F20      1.0000 0.68266  0.86594  0.27836  Biso   1.000  F
  F21      1.0000 0.18045  0.58375  0.88513  Biso   1.000  F
  F22      1.0000 0.31955  0.08375  0.61487  Biso   1.000  F
  F23      1.0000 0.81955  0.41625  0.11487  Biso   1.000  F
  F24      1.0000 0.68045  0.91625  0.38513  Biso   1.000  F
  O37      1.0000 0.02680  0.88160  0.13126  Biso   1.000  O
  O38      1.0000 0.47320  0.38160  0.36874  Biso   1.000  O
  O39      1.0000 0.97320  0.11840  0.86874  Biso   1.000  O
  O40      1.0000 0.52680  0.61840  0.63126  Biso   1.000  O
