data_image0
_cell_length_a       6.584
_cell_length_b       23.12
_cell_length_c       7.511
_cell_angle_alpha    90
_cell_angle_beta     97.12
_cell_angle_gamma    90

_symmetry_space_group_name_H-M    "P 1"
_symmetry_int_tables_number       1

loop_
  _symmetry_equiv_pos_as_xyz
  'x, y, z'

loop_
  _atom_site_label
  _atom_site_occupancy
  _atom_site_fract_x
  _atom_site_fract_y
  _atom_site_fract_z
  _atom_site_thermal_displace_type
  _atom_site_B_iso_or_equiv
  _atom_site_type_symbol
  Cu1      1.0000 0.20870  0.25720  0.18920  Biso   1.000  Cu
  Cu2      1.0000 0.29130  0.75720  0.31080  Biso   1.000  Cu
  Cu3      1.0000 0.79130  0.74280  0.81080  Biso   1.000  Cu
  Cu4      1.0000 0.70870  0.24280  0.68920  Biso   1.000  Cu
  O1       1.0000 0.42600  0.20320  0.14160  Biso   1.000  O
  O2       1.0000 0.07400  0.70320  0.35840  Biso   1.000  O
  O3       1.0000 0.57400  0.79680  0.85840  Biso   1.000  O
  O4       1.0000 0.92600  0.29680  0.64160  Biso   1.000  O
  O5       1.0000 0.65250  0.22380  0.37960  Biso   1.000  O
  O6       1.0000 0.84750  0.72380  0.12040  Biso   1.000  O
  O7       1.0000 0.34750  0.77620  0.62040  Biso   1.000  O
  O8       1.0000 0.15250  0.27620  0.87960  Biso   1.000  O
  O9       1.0000 0.01570  0.19190  0.16890  Biso   1.000  O
  O10      1.0000 0.48430  0.69190  0.33110  Biso   1.000  O
  O11      1.0000 0.98430  0.80810  0.83110  Biso   1.000  O
  O12      1.0000 0.51570  0.30810  0.66890  Biso   1.000  O
  O13      1.0000 0.13780  0.16670  0.44860  Biso   1.000  O
  O14      1.0000 0.36220  0.66670  0.05140  Biso   1.000  O
  O15      1.0000 0.86220  0.83330  0.55140  Biso   1.000  O
  O16      1.0000 0.63780  0.33330  0.94860  Biso   1.000  O
  N1       1.0000 0.39120  0.32510  0.25530  Biso   1.000  N
  N2       1.0000 0.10880  0.82510  0.24470  Biso   1.000  N
  N3       1.0000 0.60880  0.67490  0.74470  Biso   1.000  N
  N4       1.0000 0.89120  0.17490  0.75530  Biso   1.000  N
  N5       1.0000 0.98310  0.30930  0.24420  Biso   1.000  N
  N6       1.0000 0.51690  0.80930  0.25580  Biso   1.000  N
  N7       1.0000 0.01690  0.69070  0.75580  Biso   1.000  N
  N8       1.0000 0.48310  0.19070  0.74420  Biso   1.000  N
  C1       1.0000 0.85560  0.11560  0.29890  Biso   1.000  C
  C2       1.0000 0.64440  0.61560  0.20110  Biso   1.000  C
  C3       1.0000 0.14440  0.88440  0.70110  Biso   1.000  C
  C4       1.0000 0.35560  0.38440  0.79890  Biso   1.000  C
  C5       1.0000 0.91560  0.05810  0.31600  Biso   1.000  C
  C6       1.0000 0.58440  0.55810  0.18400  Biso   1.000  C
  C7       1.0000 0.08440  0.94190  0.68400  Biso   1.000  C
  C8       1.0000 0.41560  0.44190  0.81600  Biso   1.000  C
  C9       1.0000 0.76850  0.01410  0.28900  Biso   1.000  C
  C10      1.0000 0.73150  0.51410  0.21100  Biso   1.000  C
  C11      1.0000 0.23150  0.98590  0.71100  Biso   1.000  C
  C12      1.0000 0.26850  0.48590  0.78900  Biso   1.000  C
  C13      1.0000 0.56330  0.02860  0.24300  Biso   1.000  C
  C14      1.0000 0.93670  0.52860  0.25700  Biso   1.000  C
  C15      1.0000 0.43670  0.97140  0.75700  Biso   1.000  C
  C16      1.0000 0.06330  0.47140  0.74300  Biso   1.000  C
  C17      1.0000 0.50320  0.08520  0.22910  Biso   1.000  C
  C18      1.0000 0.99680  0.58520  0.27090  Biso   1.000  C
  C19      1.0000 0.49680  0.91480  0.77090  Biso   1.000  C
  C20      1.0000 0.00320  0.41480  0.72910  Biso   1.000  C
  C21      1.0000 0.64830  0.12940  0.25740  Biso   1.000  C
  C22      1.0000 0.85170  0.62940  0.24260  Biso   1.000  C
  C23      1.0000 0.35170  0.87060  0.74260  Biso   1.000  C
  C24      1.0000 0.14830  0.37060  0.75740  Biso   1.000  C
  C25      1.0000 0.01760  0.16200  0.31000  Biso   1.000  C
  C26      1.0000 0.48240  0.66200  0.19000  Biso   1.000  C
  C27      1.0000 0.98240  0.83800  0.69000  Biso   1.000  C
  C28      1.0000 0.51760  0.33800  0.81000  Biso   1.000  C
  C29      1.0000 0.57320  0.19090  0.26230  Biso   1.000  C
  C30      1.0000 0.92680  0.69090  0.23770  Biso   1.000  C
  C31      1.0000 0.42680  0.80910  0.73770  Biso   1.000  C
  C32      1.0000 0.07320  0.30910  0.76230  Biso   1.000  C
  C33      1.0000 0.27440  0.37530  0.30230  Biso   1.000  C
  C34      1.0000 0.22560  0.87530  0.19770  Biso   1.000  C
  C35      1.0000 0.72560  0.62470  0.69770  Biso   1.000  C
  C36      1.0000 0.77440  0.12470  0.80230  Biso   1.000  C
  C37      1.0000 0.05050  0.36950  0.23160  Biso   1.000  C
  C38      1.0000 0.44950  0.86950  0.26840  Biso   1.000  C
  C39      1.0000 0.94950  0.63050  0.76840  Biso   1.000  C
  C40      1.0000 0.55050  0.13050  0.73160  Biso   1.000  C
