data_image0
_cell_length_a       13.4687
_cell_length_b       18.6557
_cell_length_c       10.2024
_cell_angle_alpha    90
_cell_angle_beta     90
_cell_angle_gamma    90

_symmetry_space_group_name_H-M    "P 1"
_symmetry_int_tables_number       1

loop_
  _symmetry_equiv_pos_as_xyz
  'x, y, z'

loop_
  _atom_site_label
  _atom_site_occupancy
  _atom_site_fract_x
  _atom_site_fract_y
  _atom_site_fract_z
  _atom_site_thermal_displace_type
  _atom_site_B_iso_or_equiv
  _atom_site_type_symbol
  Cu1      1.0000 0.38684  0.34563  0.03594  Biso   1.000  Cu
  Cu2      1.0000 0.11316  0.65437  0.53594  Biso   1.000  Cu
  Cu3      1.0000 0.88684  0.15437  0.46406  Biso   1.000  Cu
  Cu4      1.0000 0.61316  0.84563  0.96406  Biso   1.000  Cu
  Cu5      1.0000 0.61316  0.65437  0.96406  Biso   1.000  Cu
  Cu6      1.0000 0.88684  0.34563  0.46406  Biso   1.000  Cu
  Cu7      1.0000 0.11316  0.84563  0.53594  Biso   1.000  Cu
  Cu8      1.0000 0.38684  0.15437  0.03594  Biso   1.000  Cu
  Cs1      1.0000 0.37673  0.44968  0.39073  Biso   1.000  Cs
  Cs2      1.0000 0.12327  0.55032  0.89073  Biso   1.000  Cs
  Cs3      1.0000 0.87673  0.05032  0.10927  Biso   1.000  Cs
  Cs4      1.0000 0.62327  0.94968  0.60927  Biso   1.000  Cs
  Cs5      1.0000 0.62327  0.55032  0.60927  Biso   1.000  Cs
  Cs6      1.0000 0.87673  0.44968  0.10927  Biso   1.000  Cs
  Cs7      1.0000 0.12327  0.94968  0.89073  Biso   1.000  Cs
  Cs8      1.0000 0.37673  0.05032  0.39073  Biso   1.000  Cs
  C1       1.0000 0.35920  0.49840  0.03030  Biso   1.000  C
  C2       1.0000 0.14080  0.50160  0.53030  Biso   1.000  C
  C3       1.0000 0.85920  0.00160  0.46970  Biso   1.000  C
  C4       1.0000 0.64080  0.99840  0.96970  Biso   1.000  C
  C5       1.0000 0.64080  0.50160  0.96970  Biso   1.000  C
  C6       1.0000 0.85920  0.49840  0.46970  Biso   1.000  C
  C7       1.0000 0.14080  0.99840  0.53030  Biso   1.000  C
  C8       1.0000 0.35920  0.00160  0.03030  Biso   1.000  C
  C9       1.0000 0.33200  0.56380  0.09610  Biso   1.000  C
  C10      1.0000 0.16800  0.43620  0.59610  Biso   1.000  C
  C11      1.0000 0.83200  0.93620  0.40390  Biso   1.000  C
  C12      1.0000 0.66800  0.06380  0.90390  Biso   1.000  C
  C13      1.0000 0.66800  0.43620  0.90390  Biso   1.000  C
  C14      1.0000 0.83200  0.56380  0.40390  Biso   1.000  C
  C15      1.0000 0.16800  0.06380  0.59610  Biso   1.000  C
  C16      1.0000 0.33200  0.93620  0.09610  Biso   1.000  C
  H1       1.0000 0.31030  0.56160  0.18250  Biso   1.000  H
  H2       1.0000 0.18970  0.43840  0.68250  Biso   1.000  H
  H3       1.0000 0.81030  0.93840  0.31750  Biso   1.000  H
  H4       1.0000 0.68970  0.06160  0.81750  Biso   1.000  H
  H5       1.0000 0.68970  0.43840  0.81750  Biso   1.000  H
  H6       1.0000 0.81030  0.56160  0.31750  Biso   1.000  H
  H7       1.0000 0.18970  0.06160  0.68250  Biso   1.000  H
  H8       1.0000 0.31030  0.93840  0.18250  Biso   1.000  H
  C17      1.0000 0.33700  0.62860  0.03550  Biso   1.000  C
  C18      1.0000 0.16300  0.37140  0.53550  Biso   1.000  C
  C19      1.0000 0.83700  0.87140  0.46450  Biso   1.000  C
  C20      1.0000 0.66300  0.12860  0.96450  Biso   1.000  C
  C21      1.0000 0.66300  0.37140  0.96450  Biso   1.000  C
  C22      1.0000 0.83700  0.62860  0.46450  Biso   1.000  C
  C23      1.0000 0.16300  0.12860  0.53550  Biso   1.000  C
  C24      1.0000 0.33700  0.87140  0.03550  Biso   1.000  C
  H9       1.0000 0.32110  0.66980  0.08230  Biso   1.000  H
  H10      1.0000 0.17890  0.33020  0.58230  Biso   1.000  H
  H11      1.0000 0.82110  0.83020  0.41770  Biso   1.000  H
  H12      1.0000 0.67890  0.16980  0.91770  Biso   1.000  H
  H13      1.0000 0.67890  0.33020  0.91770  Biso   1.000  H
  H14      1.0000 0.82110  0.66980  0.41770  Biso   1.000  H
  H15      1.0000 0.17890  0.16980  0.58230  Biso   1.000  H
  H16      1.0000 0.32110  0.83020  0.08230  Biso   1.000  H
  C25      1.0000 0.36560  0.63440  0.90520  Biso   1.000  C
  C26      1.0000 0.13440  0.36560  0.40520  Biso   1.000  C
  C27      1.0000 0.86560  0.86560  0.59480  Biso   1.000  C
  C28      1.0000 0.63440  0.13440  0.09480  Biso   1.000  C
  C29      1.0000 0.63440  0.36560  0.09480  Biso   1.000  C
  C30      1.0000 0.86560  0.63440  0.59480  Biso   1.000  C
  C31      1.0000 0.13440  0.13440  0.40520  Biso   1.000  C
  C32      1.0000 0.36560  0.86560  0.90520  Biso   1.000  C
  H17      1.0000 0.36750  0.67880  0.86380  Biso   1.000  H
  H18      1.0000 0.13250  0.32120  0.36380  Biso   1.000  H
  H19      1.0000 0.86750  0.82120  0.63620  Biso   1.000  H
  H20      1.0000 0.63250  0.17880  0.13620  Biso   1.000  H
  H21      1.0000 0.63250  0.32120  0.13620  Biso   1.000  H
  H22      1.0000 0.86750  0.67880  0.63620  Biso   1.000  H
  H23      1.0000 0.13250  0.17880  0.36380  Biso   1.000  H
  H24      1.0000 0.36750  0.82120  0.86380  Biso   1.000  H
  C33      1.0000 0.39080  0.57280  0.83870  Biso   1.000  C
  C34      1.0000 0.10920  0.42720  0.33870  Biso   1.000  C
  C35      1.0000 0.89080  0.92720  0.66130  Biso   1.000  C
  C36      1.0000 0.60920  0.07280  0.16130  Biso   1.000  C
  C37      1.0000 0.60920  0.42720  0.16130  Biso   1.000  C
  C38      1.0000 0.89080  0.57280  0.66130  Biso   1.000  C
  C39      1.0000 0.10920  0.07280  0.33870  Biso   1.000  C
  C40      1.0000 0.39080  0.92720  0.83870  Biso   1.000  C
  H25      1.0000 0.41070  0.57650  0.75160  Biso   1.000  H
  H26      1.0000 0.08930  0.42350  0.25160  Biso   1.000  H
  H27      1.0000 0.91070  0.92350  0.74840  Biso   1.000  H
  H28      1.0000 0.58930  0.07650  0.24840  Biso   1.000  H
  H29      1.0000 0.58930  0.42350  0.24840  Biso   1.000  H
  H30      1.0000 0.91070  0.57650  0.74840  Biso   1.000  H
  H31      1.0000 0.08930  0.07650  0.25160  Biso   1.000  H
  H32      1.0000 0.41070  0.92350  0.75160  Biso   1.000  H
  C41      1.0000 0.38780  0.50480  0.89740  Biso   1.000  C
  C42      1.0000 0.11220  0.49520  0.39740  Biso   1.000  C
  C43      1.0000 0.88780  0.99520  0.60260  Biso   1.000  C
  C44      1.0000 0.61220  0.00480  0.10260  Biso   1.000  C
  C45      1.0000 0.61220  0.49520  0.10260  Biso   1.000  C
  C46      1.0000 0.88780  0.50480  0.60260  Biso   1.000  C
  C47      1.0000 0.11220  0.00480  0.39740  Biso   1.000  C
  C48      1.0000 0.38780  0.99520  0.89740  Biso   1.000  C
  C49      1.0000 0.41670  0.44260  0.81250  Biso   1.000  C
  C50      1.0000 0.08330  0.55740  0.31250  Biso   1.000  C
  C51      1.0000 0.91670  0.05740  0.68750  Biso   1.000  C
  C52      1.0000 0.58330  0.94260  0.18750  Biso   1.000  C
  C53      1.0000 0.58330  0.55740  0.18750  Biso   1.000  C
  C54      1.0000 0.91670  0.44260  0.68750  Biso   1.000  C
  C55      1.0000 0.08330  0.94260  0.31250  Biso   1.000  C
  C56      1.0000 0.41670  0.05740  0.81250  Biso   1.000  C
  C57      1.0000 0.43020  0.31780  0.77380  Biso   1.000  C
  C58      1.0000 0.06980  0.68220  0.27380  Biso   1.000  C
  C59      1.0000 0.93020  0.18220  0.72620  Biso   1.000  C
  C60      1.0000 0.56980  0.81780  0.22620  Biso   1.000  C
  C61      1.0000 0.56980  0.68220  0.22620  Biso   1.000  C
  C62      1.0000 0.93020  0.31780  0.72620  Biso   1.000  C
  C63      1.0000 0.06980  0.81780  0.27380  Biso   1.000  C
  C64      1.0000 0.43020  0.18220  0.77380  Biso   1.000  C
  H33      1.0000 0.40420  0.32630  0.68650  Biso   1.000  H
  H34      1.0000 0.09580  0.67370  0.18650  Biso   1.000  H
  H35      1.0000 0.90420  0.17370  0.81350  Biso   1.000  H
  H36      1.0000 0.59580  0.82630  0.31350  Biso   1.000  H
  H37      1.0000 0.59580  0.67370  0.31350  Biso   1.000  H
  H38      1.0000 0.90420  0.32630  0.81350  Biso   1.000  H
  H39      1.0000 0.09580  0.82630  0.18650  Biso   1.000  H
  H40      1.0000 0.40420  0.17370  0.68650  Biso   1.000  H
  H41      1.0000 0.50180  0.31360  0.76780  Biso   1.000  H
  H42      1.0000 0.99820  0.68640  0.26780  Biso   1.000  H
  H43      1.0000 0.00180  0.18640  0.73220  Biso   1.000  H
  H44      1.0000 0.49820  0.81360  0.23220  Biso   1.000  H
  H45      1.0000 0.49820  0.68640  0.23220  Biso   1.000  H
  H46      1.0000 0.00180  0.31360  0.73220  Biso   1.000  H
  H47      1.0000 0.99820  0.81360  0.26780  Biso   1.000  H
  H48      1.0000 0.50180  0.18640  0.76780  Biso   1.000  H
  C65      1.0000 0.38700  0.25000  0.82870  Biso   1.000  C
  C66      1.0000 0.11300  0.75000  0.32870  Biso   1.000  C
  C67      1.0000 0.88700  0.25000  0.67130  Biso   1.000  C
  C68      1.0000 0.61300  0.75000  0.17130  Biso   1.000  C
  H49      1.0000 0.31560  0.25000  0.81050  Biso   1.000  H
  H50      1.0000 0.18440  0.75000  0.31050  Biso   1.000  H
  H51      1.0000 0.81560  0.25000  0.68950  Biso   1.000  H
  H52      1.0000 0.68440  0.75000  0.18950  Biso   1.000  H
  C69      1.0000 0.38170  0.25000  0.27190  Biso   1.000  C
  C70      1.0000 0.11830  0.75000  0.77190  Biso   1.000  C
  C71      1.0000 0.88170  0.25000  0.22810  Biso   1.000  C
  C72      1.0000 0.61830  0.75000  0.72810  Biso   1.000  C
  C73      1.0000 0.38450  0.25000  0.41720  Biso   1.000  C
  C74      1.0000 0.11550  0.75000  0.91720  Biso   1.000  C
  C75      1.0000 0.88450  0.25000  0.08280  Biso   1.000  C
  C76      1.0000 0.61550  0.75000  0.58280  Biso   1.000  C
  C77      1.0000 0.64580  0.35070  0.53600  Biso   1.000  C
  C78      1.0000 0.85420  0.64930  0.03600  Biso   1.000  C
  C79      1.0000 0.14580  0.14930  0.96400  Biso   1.000  C
  C80      1.0000 0.35420  0.85070  0.46400  Biso   1.000  C
  C81      1.0000 0.35420  0.64930  0.46400  Biso   1.000  C
  C82      1.0000 0.14580  0.35070  0.96400  Biso   1.000  C
  C83      1.0000 0.85420  0.85070  0.03600  Biso   1.000  C
  C84      1.0000 0.64580  0.14930  0.53600  Biso   1.000  C
  H53      1.0000 0.70470  0.38400  0.53100  Biso   1.000  H
  H54      1.0000 0.79530  0.61600  0.03100  Biso   1.000  H
  H55      1.0000 0.20470  0.11600  0.96900  Biso   1.000  H
  H56      1.0000 0.29530  0.88400  0.46900  Biso   1.000  H
  H57      1.0000 0.29530  0.61600  0.46900  Biso   1.000  H
  H58      1.0000 0.20470  0.38400  0.96900  Biso   1.000  H
  H59      1.0000 0.79530  0.88400  0.03100  Biso   1.000  H
  H60      1.0000 0.70470  0.11600  0.53100  Biso   1.000  H
  H61      1.0000 0.65300  0.31400  0.46500  Biso   1.000  H
  H62      1.0000 0.84700  0.68600  0.96500  Biso   1.000  H
  H63      1.0000 0.15300  0.18600  0.03500  Biso   1.000  H
  H64      1.0000 0.34700  0.81400  0.53500  Biso   1.000  H
  H65      1.0000 0.34700  0.68600  0.53500  Biso   1.000  H
  H66      1.0000 0.15300  0.31400  0.03500  Biso   1.000  H
  H67      1.0000 0.84700  0.81400  0.96500  Biso   1.000  H
  H68      1.0000 0.65300  0.18600  0.46500  Biso   1.000  H
  H69      1.0000 0.64700  0.32600  0.62300  Biso   1.000  H
  H70      1.0000 0.85300  0.67400  0.12300  Biso   1.000  H
  H71      1.0000 0.14700  0.17400  0.87700  Biso   1.000  H
  H72      1.0000 0.35300  0.82600  0.37700  Biso   1.000  H
  H73      1.0000 0.35300  0.67400  0.37700  Biso   1.000  H
  H74      1.0000 0.14700  0.32600  0.87700  Biso   1.000  H
  H75      1.0000 0.85300  0.82600  0.12300  Biso   1.000  H
  H76      1.0000 0.64700  0.17400  0.62300  Biso   1.000  H
  N1       1.0000 0.40400  0.37700  0.85970  Biso   1.000  N
  N2       1.0000 0.09600  0.62300  0.35970  Biso   1.000  N
  N3       1.0000 0.90400  0.12300  0.64030  Biso   1.000  N
  N4       1.0000 0.59600  0.87700  0.14030  Biso   1.000  N
  N5       1.0000 0.59600  0.62300  0.14030  Biso   1.000  N
  N6       1.0000 0.90400  0.37700  0.64030  Biso   1.000  N
  N7       1.0000 0.09600  0.87700  0.35970  Biso   1.000  N
  N8       1.0000 0.40400  0.12300  0.85970  Biso   1.000  N
  O1       1.0000 0.35630  0.43890  0.09870  Biso   1.000  O
  O2       1.0000 0.14370  0.56110  0.59870  Biso   1.000  O
  O3       1.0000 0.85630  0.06110  0.40130  Biso   1.000  O
  O4       1.0000 0.64370  0.93890  0.90130  Biso   1.000  O
  O5       1.0000 0.64370  0.56110  0.90130  Biso   1.000  O
  O6       1.0000 0.85630  0.43890  0.40130  Biso   1.000  O
  O7       1.0000 0.14370  0.93890  0.59870  Biso   1.000  O
  O8       1.0000 0.35630  0.06110  0.09870  Biso   1.000  O
  O9       1.0000 0.44820  0.45483  0.69780  Biso   1.000  O
  O10      1.0000 0.05180  0.54517  0.19780  Biso   1.000  O
  O11      1.0000 0.94820  0.04517  0.80220  Biso   1.000  O
  O12      1.0000 0.55180  0.95483  0.30220  Biso   1.000  O
  O13      1.0000 0.55180  0.54517  0.30220  Biso   1.000  O
  O14      1.0000 0.94820  0.45483  0.80220  Biso   1.000  O
  O15      1.0000 0.05180  0.95483  0.19780  Biso   1.000  O
  O16      1.0000 0.44820  0.04517  0.69780  Biso   1.000  O
  O17      1.0000 0.40030  0.25000  0.96840  Biso   1.000  O
  O18      1.0000 0.09970  0.75000  0.46840  Biso   1.000  O
  O19      1.0000 0.90030  0.25000  0.53160  Biso   1.000  O
  O20      1.0000 0.59970  0.75000  0.03160  Biso   1.000  O
  O21      1.0000 0.38040  0.31050  0.21790  Biso   1.000  O
  O22      1.0000 0.11960  0.68950  0.71790  Biso   1.000  O
  O23      1.0000 0.88040  0.18950  0.28210  Biso   1.000  O
  O24      1.0000 0.61960  0.81050  0.78210  Biso   1.000  O
  O25      1.0000 0.61960  0.68950  0.78210  Biso   1.000  O
  O26      1.0000 0.88040  0.31050  0.28210  Biso   1.000  O
  O27      1.0000 0.11960  0.81050  0.71790  Biso   1.000  O
  O28      1.0000 0.38040  0.18950  0.21790  Biso   1.000  O
  O29      1.0000 0.55860  0.38890  0.51920  Biso   1.000  O
  O30      1.0000 0.94140  0.61110  0.01920  Biso   1.000  O
  O31      1.0000 0.05860  0.11110  0.98080  Biso   1.000  O
  O32      1.0000 0.44140  0.88890  0.48080  Biso   1.000  O
  O33      1.0000 0.44140  0.61110  0.48080  Biso   1.000  O
  O34      1.0000 0.05860  0.38890  0.98080  Biso   1.000  O
  O35      1.0000 0.94140  0.88890  0.01920  Biso   1.000  O
  O36      1.0000 0.55860  0.11110  0.51920  Biso   1.000  O
  H77      1.0000 0.39100  0.30030  0.45000  Biso   1.000  H
  H78      1.0000 0.10900  0.69970  0.95000  Biso   1.000  H
  H79      1.0000 0.89100  0.19970  0.05000  Biso   1.000  H
  H80      1.0000 0.60900  0.80030  0.55000  Biso   1.000  H
  H81      1.0000 0.60900  0.69970  0.55000  Biso   1.000  H
  H82      1.0000 0.89100  0.30030  0.05000  Biso   1.000  H
  H83      1.0000 0.10900  0.80030  0.95000  Biso   1.000  H
  H84      1.0000 0.39100  0.19970  0.45000  Biso   1.000  H
  H85      1.0000 0.44200  0.22100  0.44850  Biso   1.000  H
  H86      1.0000 0.05800  0.77900  0.94850  Biso   1.000  H
  H87      1.0000 0.94200  0.27900  0.05150  Biso   1.000  H
  H88      1.0000 0.55800  0.72100  0.55150  Biso   1.000  H
  H89      1.0000 0.55800  0.77900  0.55150  Biso   1.000  H
  H90      1.0000 0.94200  0.22100  0.05150  Biso   1.000  H
  H91      1.0000 0.05800  0.72100  0.94850  Biso   1.000  H
  H92      1.0000 0.44200  0.27900  0.44850  Biso   1.000  H
  H93      1.0000 0.32200  0.22900  0.45260  Biso   1.000  H
  H94      1.0000 0.17800  0.77100  0.95260  Biso   1.000  H
  H95      1.0000 0.82200  0.27100  0.04740  Biso   1.000  H
  H96      1.0000 0.67800  0.72900  0.54740  Biso   1.000  H
  H97      1.0000 0.67800  0.77100  0.54740  Biso   1.000  H
  H98      1.0000 0.82200  0.22900  0.04740  Biso   1.000  H
  H99      1.0000 0.17800  0.72900  0.95260  Biso   1.000  H
  H100     1.0000 0.32200  0.27100  0.45260  Biso   1.000  H
