data_image0
_cell_length_a       16.0822
_cell_length_b       17.8062
_cell_length_c       12.1685
_cell_angle_alpha    90
_cell_angle_beta     123.97
_cell_angle_gamma    90

_symmetry_space_group_name_H-M    "P 1"
_symmetry_int_tables_number       1

loop_
  _symmetry_equiv_pos_as_xyz
  'x, y, z'

loop_
  _atom_site_label
  _atom_site_occupancy
  _atom_site_fract_x
  _atom_site_fract_y
  _atom_site_fract_z
  _atom_site_thermal_displace_type
  _atom_site_B_iso_or_equiv
  _atom_site_type_symbol
  Cu1      1.0000 0.71447  0.37012  0.97829  Biso   1.000  Cu
  Cu2      1.0000 0.28553  0.37012  0.52171  Biso   1.000  Cu
  Cu3      1.0000 0.21447  0.87012  0.97829  Biso   1.000  Cu
  Cu4      1.0000 0.78553  0.87012  0.52171  Biso   1.000  Cu
  Cu5      1.0000 0.28553  0.62988  0.02171  Biso   1.000  Cu
  Cu6      1.0000 0.71447  0.62988  0.47829  Biso   1.000  Cu
  Cu7      1.0000 0.78553  0.12988  0.02171  Biso   1.000  Cu
  Cu8      1.0000 0.21447  0.12988  0.47829  Biso   1.000  Cu
  N1       1.0000 0.58223  0.37118  0.95341  Biso   1.000  N
  N2       1.0000 0.41777  0.37118  0.54659  Biso   1.000  N
  N3       1.0000 0.08223  0.87118  0.95341  Biso   1.000  N
  N4       1.0000 0.91777  0.87118  0.54659  Biso   1.000  N
  N5       1.0000 0.41777  0.62882  0.04659  Biso   1.000  N
  N6       1.0000 0.58223  0.62882  0.45341  Biso   1.000  N
  N7       1.0000 0.91777  0.12882  0.04659  Biso   1.000  N
  N8       1.0000 0.08223  0.12882  0.45341  Biso   1.000  N
  N9       1.0000 0.84839  0.37386  0.01253  Biso   1.000  N
  N10      1.0000 0.15161  0.37386  0.48747  Biso   1.000  N
  N11      1.0000 0.34839  0.87386  0.01253  Biso   1.000  N
  N12      1.0000 0.65161  0.87386  0.48747  Biso   1.000  N
  N13      1.0000 0.15161  0.62614  0.98747  Biso   1.000  N
  N14      1.0000 0.84839  0.62614  0.51253  Biso   1.000  N
  N15      1.0000 0.65161  0.12614  0.98747  Biso   1.000  N
  N16      1.0000 0.34839  0.12614  0.51253  Biso   1.000  N
  N17      1.0000 0.68333  0.43916  0.82826  Biso   1.000  N
  N18      1.0000 0.31667  0.43916  0.67174  Biso   1.000  N
  N19      1.0000 0.18333  0.93916  0.82826  Biso   1.000  N
  N20      1.0000 0.81667  0.93916  0.67174  Biso   1.000  N
  N21      1.0000 0.31667  0.56084  0.17174  Biso   1.000  N
  N22      1.0000 0.68333  0.56084  0.32826  Biso   1.000  N
  N23      1.0000 0.81667  0.06084  0.17174  Biso   1.000  N
  N24      1.0000 0.18333  0.06084  0.32826  Biso   1.000  N
  O1       1.0000 0.59975  0.46791  0.74268  Biso   1.000  O
  O2       1.0000 0.40025  0.46791  0.75732  Biso   1.000  O
  O3       1.0000 0.09975  0.96791  0.74268  Biso   1.000  O
  O4       1.0000 0.90025  0.96791  0.75732  Biso   1.000  O
  O5       1.0000 0.40025  0.53209  0.25732  Biso   1.000  O
  O6       1.0000 0.59975  0.53209  0.24268  Biso   1.000  O
  O7       1.0000 0.90025  0.03209  0.25732  Biso   1.000  O
  O8       1.0000 0.09975  0.03209  0.24268  Biso   1.000  O
  O9       1.0000 0.93415  0.42594  0.92617  Biso   1.000  O
  O10      1.0000 0.06585  0.42594  0.57383  Biso   1.000  O
  O11      1.0000 0.43415  0.92594  0.92617  Biso   1.000  O
  O12      1.0000 0.56585  0.92594  0.57383  Biso   1.000  O
  O13      1.0000 0.06585  0.57406  0.07383  Biso   1.000  O
  O14      1.0000 0.93415  0.57406  0.42617  Biso   1.000  O
  O15      1.0000 0.56585  0.07406  0.07383  Biso   1.000  O
  O16      1.0000 0.43415  0.07406  0.42617  Biso   1.000  O
  O17      1.0000 0.51425  0.33135  0.07269  Biso   1.000  O
  O18      1.0000 0.48575  0.33135  0.42731  Biso   1.000  O
  O19      1.0000 0.01425  0.83135  0.07269  Biso   1.000  O
  O20      1.0000 0.98575  0.83135  0.42731  Biso   1.000  O
  O21      1.0000 0.48575  0.66865  0.92731  Biso   1.000  O
  O22      1.0000 0.51425  0.66865  0.57269  Biso   1.000  O
  O23      1.0000 0.98575  0.16865  0.92731  Biso   1.000  O
  O24      1.0000 0.01425  0.16865  0.57269  Biso   1.000  O
  N25      1.0000 0.74220  0.28988  0.11396  Biso   1.000  N
  N26      1.0000 0.25780  0.28988  0.38604  Biso   1.000  N
  N27      1.0000 0.24220  0.78988  0.11396  Biso   1.000  N
  N28      1.0000 0.75780  0.78988  0.38604  Biso   1.000  N
  N29      1.0000 0.25780  0.71012  0.88604  Biso   1.000  N
  N30      1.0000 0.74220  0.71012  0.61396  Biso   1.000  N
  N31      1.0000 0.75780  0.21012  0.88604  Biso   1.000  N
  N32      1.0000 0.24220  0.21012  0.61396  Biso   1.000  N
  N33      1.0000 0.76013  0.53280  0.64888  Biso   1.000  N
  N34      1.0000 0.23987  0.53280  0.85112  Biso   1.000  N
  N35      1.0000 0.26013  0.03280  0.64888  Biso   1.000  N
  N36      1.0000 0.73987  0.03280  0.85112  Biso   1.000  N
  N37      1.0000 0.23987  0.46720  0.35112  Biso   1.000  N
  N38      1.0000 0.76013  0.46720  0.14888  Biso   1.000  N
  N39      1.0000 0.73987  0.96720  0.35112  Biso   1.000  N
  N40      1.0000 0.26013  0.96720  0.14888  Biso   1.000  N
  C1       1.0000 0.42459  0.37811  0.99830  Biso   1.000  C
  C2       1.0000 0.57541  0.37811  0.50170  Biso   1.000  C
  C3       1.0000 0.92459  0.87811  0.99830  Biso   1.000  C
  C4       1.0000 0.07541  0.87811  0.50170  Biso   1.000  C
  C5       1.0000 0.57541  0.62189  0.00170  Biso   1.000  C
  C6       1.0000 0.42459  0.62189  0.49830  Biso   1.000  C
  C7       1.0000 0.07541  0.12189  0.00170  Biso   1.000  C
  C8       1.0000 0.92459  0.12189  0.49830  Biso   1.000  C
  H1       1.0000 0.38010  0.35940  0.90640  Biso   1.000  H
  H2       1.0000 0.61990  0.35940  0.59360  Biso   1.000  H
  H3       1.0000 0.88010  0.85940  0.90640  Biso   1.000  H
  H4       1.0000 0.11990  0.85940  0.59360  Biso   1.000  H
  H5       1.0000 0.61990  0.64060  0.09360  Biso   1.000  H
  H6       1.0000 0.38010  0.64060  0.40640  Biso   1.000  H
  H7       1.0000 0.11990  0.14060  0.09360  Biso   1.000  H
  H8       1.0000 0.88010  0.14060  0.40640  Biso   1.000  H
  H9       1.0000 0.44320  0.43070  0.99520  Biso   1.000  H
  H10      1.0000 0.55680  0.43070  0.50480  Biso   1.000  H
  H11      1.0000 0.94320  0.93070  0.99520  Biso   1.000  H
  H12      1.0000 0.05680  0.93070  0.50480  Biso   1.000  H
  H13      1.0000 0.55680  0.56930  0.00480  Biso   1.000  H
  H14      1.0000 0.44320  0.56930  0.49520  Biso   1.000  H
  H15      1.0000 0.05680  0.06930  0.00480  Biso   1.000  H
  H16      1.0000 0.94320  0.06930  0.49520  Biso   1.000  H
  C9       1.0000 0.66876  0.28661  0.13143  Biso   1.000  C
  C10      1.0000 0.33124  0.28661  0.36857  Biso   1.000  C
  C11      1.0000 0.16876  0.78661  0.13143  Biso   1.000  C
  C12      1.0000 0.83124  0.78661  0.36857  Biso   1.000  C
  C13      1.0000 0.33124  0.71339  0.86857  Biso   1.000  C
  C14      1.0000 0.66876  0.71339  0.63143  Biso   1.000  C
  C15      1.0000 0.83124  0.21339  0.86857  Biso   1.000  C
  C16      1.0000 0.16876  0.21339  0.63143  Biso   1.000  C
  C17      1.0000 0.67210  0.23747  0.22670  Biso   1.000  C
  C18      1.0000 0.32790  0.23747  0.27330  Biso   1.000  C
  C19      1.0000 0.17210  0.73747  0.22670  Biso   1.000  C
  C20      1.0000 0.82790  0.73747  0.27330  Biso   1.000  C
  C21      1.0000 0.32790  0.76253  0.77330  Biso   1.000  C
  C22      1.0000 0.67210  0.76253  0.72670  Biso   1.000  C
  C23      1.0000 0.82790  0.26253  0.77330  Biso   1.000  C
  C24      1.0000 0.17210  0.26253  0.72670  Biso   1.000  C
  C25      1.0000 0.85476  0.41375  0.93040  Biso   1.000  C
  C26      1.0000 0.14524  0.41375  0.56960  Biso   1.000  C
  C27      1.0000 0.35476  0.91375  0.93040  Biso   1.000  C
  C28      1.0000 0.64524  0.91375  0.56960  Biso   1.000  C
  C29      1.0000 0.14524  0.58625  0.06960  Biso   1.000  C
  C30      1.0000 0.85476  0.58625  0.43040  Biso   1.000  C
  C31      1.0000 0.64524  0.08625  0.06960  Biso   1.000  C
  C32      1.0000 0.35476  0.08625  0.43040  Biso   1.000  C
  C33      1.0000 0.76406  0.45141  0.82539  Biso   1.000  C
  C34      1.0000 0.23594  0.45141  0.67461  Biso   1.000  C
  C35      1.0000 0.26406  0.95141  0.82539  Biso   1.000  C
  C36      1.0000 0.73594  0.95141  0.67461  Biso   1.000  C
  C37      1.0000 0.23594  0.54859  0.17461  Biso   1.000  C
  C38      1.0000 0.76406  0.54859  0.32539  Biso   1.000  C
  C39      1.0000 0.73594  0.04859  0.17461  Biso   1.000  C
  C40      1.0000 0.26406  0.04859  0.32539  Biso   1.000  C
  C41      1.0000 0.76162  0.49637  0.72725  Biso   1.000  C
  C42      1.0000 0.23838  0.49637  0.77275  Biso   1.000  C
  C43      1.0000 0.26162  0.99637  0.72725  Biso   1.000  C
  C44      1.0000 0.73838  0.99637  0.77275  Biso   1.000  C
  C45      1.0000 0.23838  0.50363  0.27275  Biso   1.000  C
  C46      1.0000 0.76162  0.50363  0.22725  Biso   1.000  C
  C47      1.0000 0.73838  0.00363  0.27275  Biso   1.000  C
  C48      1.0000 0.26162  0.00363  0.22725  Biso   1.000  C
  C49      1.0000 0.58184  0.33448  0.04339  Biso   1.000  C
  C50      1.0000 0.41816  0.33448  0.45661  Biso   1.000  C
  C51      1.0000 0.08184  0.83448  0.04339  Biso   1.000  C
  C52      1.0000 0.91816  0.83448  0.45661  Biso   1.000  C
  C53      1.0000 0.41816  0.66552  0.95661  Biso   1.000  C
  C54      1.0000 0.58184  0.66552  0.54339  Biso   1.000  C
  C55      1.0000 0.91816  0.16552  0.95661  Biso   1.000  C
  C56      1.0000 0.08184  0.16552  0.54339  Biso   1.000  C
  O25      1.0000 0.81758  0.24524  0.17971  Biso   1.000  O
  O26      1.0000 0.18242  0.24524  0.32029  Biso   1.000  O
  O27      1.0000 0.31758  0.74524  0.17971  Biso   1.000  O
  O28      1.0000 0.68242  0.74524  0.32029  Biso   1.000  O
  O29      1.0000 0.18242  0.75476  0.82029  Biso   1.000  O
  O30      1.0000 0.81758  0.75476  0.67971  Biso   1.000  O
  O31      1.0000 0.68242  0.25476  0.82029  Biso   1.000  O
  O32      1.0000 0.31758  0.25476  0.67971  Biso   1.000  O
  N41      1.0000 0.67560  0.19736  0.30215  Biso   1.000  N
  N42      1.0000 0.32440  0.19736  0.19785  Biso   1.000  N
  N43      1.0000 0.17560  0.69736  0.30215  Biso   1.000  N
  N44      1.0000 0.82440  0.69736  0.19785  Biso   1.000  N
  N45      1.0000 0.32440  0.80264  0.69785  Biso   1.000  N
  N46      1.0000 0.67560  0.80264  0.80215  Biso   1.000  N
  N47      1.0000 0.82440  0.30264  0.69785  Biso   1.000  N
  N48      1.0000 0.17560  0.30264  0.80215  Biso   1.000  N
  C57      1.0000 0.02561  0.38477  0.02028  Biso   1.000  C
  C58      1.0000 0.97439  0.38477  0.47972  Biso   1.000  C
  C59      1.0000 0.52561  0.88477  0.02028  Biso   1.000  C
  C60      1.0000 0.47439  0.88477  0.47972  Biso   1.000  C
  C61      1.0000 0.97439  0.61523  0.97972  Biso   1.000  C
  C62      1.0000 0.02561  0.61523  0.52028  Biso   1.000  C
  C63      1.0000 0.47439  0.11523  0.97972  Biso   1.000  C
  C64      1.0000 0.52561  0.11523  0.52028  Biso   1.000  C
  H17      1.0000 0.00950  0.33190  0.02660  Biso   1.000  H
  H18      1.0000 0.99050  0.33190  0.47340  Biso   1.000  H
  H19      1.0000 0.50950  0.83190  0.02660  Biso   1.000  H
  H20      1.0000 0.49050  0.83190  0.47340  Biso   1.000  H
  H21      1.0000 0.99050  0.66810  0.97340  Biso   1.000  H
  H22      1.0000 0.00950  0.66810  0.52660  Biso   1.000  H
  H23      1.0000 0.49050  0.16810  0.97340  Biso   1.000  H
  H24      1.0000 0.50950  0.16810  0.52660  Biso   1.000  H
  H25      1.0000 0.05940  0.40790  0.10930  Biso   1.000  H
  H26      1.0000 0.94060  0.40790  0.39070  Biso   1.000  H
  H27      1.0000 0.55940  0.90790  0.10930  Biso   1.000  H
  H28      1.0000 0.44060  0.90790  0.39070  Biso   1.000  H
  H29      1.0000 0.94060  0.59210  0.89070  Biso   1.000  H
  H30      1.0000 0.05940  0.59210  0.60930  Biso   1.000  H
  H31      1.0000 0.44060  0.09210  0.89070  Biso   1.000  H
  H32      1.0000 0.55940  0.09210  0.60930  Biso   1.000  H
  C65      1.0000 0.37271  0.37363  0.06930  Biso   1.000  C
  C66      1.0000 0.62729  0.37363  0.43070  Biso   1.000  C
  C67      1.0000 0.87271  0.87363  0.06930  Biso   1.000  C
  C68      1.0000 0.12729  0.87363  0.43070  Biso   1.000  C
  C69      1.0000 0.62729  0.62637  0.93070  Biso   1.000  C
  C70      1.0000 0.37271  0.62637  0.56930  Biso   1.000  C
  C71      1.0000 0.12729  0.12637  0.93070  Biso   1.000  C
  C72      1.0000 0.87271  0.12637  0.56930  Biso   1.000  C
  H33      1.0000 0.35910  0.32090  0.07720  Biso   1.000  H
  H34      1.0000 0.64090  0.32090  0.42280  Biso   1.000  H
  H35      1.0000 0.85910  0.82090  0.07720  Biso   1.000  H
  H36      1.0000 0.14090  0.82090  0.42280  Biso   1.000  H
  H37      1.0000 0.64090  0.67910  0.92280  Biso   1.000  H
  H38      1.0000 0.35910  0.67910  0.57720  Biso   1.000  H
  H39      1.0000 0.14090  0.17910  0.92280  Biso   1.000  H
  H40      1.0000 0.85910  0.17910  0.57720  Biso   1.000  H
  H41      1.0000 0.30940  0.40140  0.01910  Biso   1.000  H
  H42      1.0000 0.69060  0.40140  0.48090  Biso   1.000  H
  H43      1.0000 0.80940  0.90140  0.01910  Biso   1.000  H
  H44      1.0000 0.19060  0.90140  0.48090  Biso   1.000  H
  H45      1.0000 0.69060  0.59860  0.98090  Biso   1.000  H
  H46      1.0000 0.30940  0.59860  0.51910  Biso   1.000  H
  H47      1.0000 0.19060  0.09860  0.98090  Biso   1.000  H
  H48      1.0000 0.80940  0.09860  0.51910  Biso   1.000  H
  H49      1.0000 0.41580  0.39560  0.15790  Biso   1.000  H
  H50      1.0000 0.58420  0.39560  0.34210  Biso   1.000  H
  H51      1.0000 0.91580  0.89560  0.15790  Biso   1.000  H
  H52      1.0000 0.08420  0.89560  0.34210  Biso   1.000  H
  H53      1.0000 0.58420  0.60440  0.84210  Biso   1.000  H
  H54      1.0000 0.41580  0.60440  0.65790  Biso   1.000  H
  H55      1.0000 0.08420  0.10440  0.84210  Biso   1.000  H
  H56      1.0000 0.91580  0.10440  0.65790  Biso   1.000  H
  C73      1.0000 0.09238  0.38809  0.97060  Biso   1.000  C
  C74      1.0000 0.90762  0.38809  0.52940  Biso   1.000  C
  C75      1.0000 0.59238  0.88809  0.97060  Biso   1.000  C
  C76      1.0000 0.40762  0.88809  0.52940  Biso   1.000  C
  C77      1.0000 0.90762  0.61191  0.02940  Biso   1.000  C
  C78      1.0000 0.09238  0.61191  0.47060  Biso   1.000  C
  C79      1.0000 0.40762  0.11191  0.02940  Biso   1.000  C
  C80      1.0000 0.59238  0.11191  0.47060  Biso   1.000  C
  H57      1.0000 0.05940  0.36300  0.88440  Biso   1.000  H
  H58      1.0000 0.94060  0.36300  0.61560  Biso   1.000  H
  H59      1.0000 0.55940  0.86300  0.88440  Biso   1.000  H
  H60      1.0000 0.44060  0.86300  0.61560  Biso   1.000  H
  H61      1.0000 0.94060  0.63700  0.11560  Biso   1.000  H
  H62      1.0000 0.05940  0.63700  0.38440  Biso   1.000  H
  H63      1.0000 0.44060  0.13700  0.11560  Biso   1.000  H
  H64      1.0000 0.55940  0.13700  0.38440  Biso   1.000  H
  H65      1.0000 0.15590  0.36280  0.03380  Biso   1.000  H
  H66      1.0000 0.84410  0.36280  0.46620  Biso   1.000  H
  H67      1.0000 0.65590  0.86280  0.03380  Biso   1.000  H
  H68      1.0000 0.34410  0.86280  0.46620  Biso   1.000  H
  H69      1.0000 0.84410  0.63720  0.96620  Biso   1.000  H
  H70      1.0000 0.15590  0.63720  0.53380  Biso   1.000  H
  H71      1.0000 0.34410  0.13720  0.96620  Biso   1.000  H
  H72      1.0000 0.65590  0.13720  0.53380  Biso   1.000  H
  H73      1.0000 0.10540  0.44070  0.96110  Biso   1.000  H
  H74      1.0000 0.89460  0.44070  0.53890  Biso   1.000  H
  H75      1.0000 0.60540  0.94070  0.96110  Biso   1.000  H
  H76      1.0000 0.39460  0.94070  0.53890  Biso   1.000  H
  H77      1.0000 0.89460  0.55930  0.03890  Biso   1.000  H
  H78      1.0000 0.10540  0.55930  0.46110  Biso   1.000  H
  H79      1.0000 0.39460  0.05930  0.03890  Biso   1.000  H
  H80      1.0000 0.60540  0.05930  0.46110  Biso   1.000  H
  H81      1.0000 0.53620  0.39690  0.90600  Biso   1.000  H
  H82      1.0000 0.46380  0.39690  0.59400  Biso   1.000  H
  H83      1.0000 0.03620  0.89690  0.90600  Biso   1.000  H
  H84      1.0000 0.96380  0.89690  0.59400  Biso   1.000  H
  H85      1.0000 0.46380  0.60310  0.09400  Biso   1.000  H
  H86      1.0000 0.53620  0.60310  0.40600  Biso   1.000  H
  H87      1.0000 0.96380  0.10310  0.09400  Biso   1.000  H
  H88      1.0000 0.03620  0.10310  0.40600  Biso   1.000  H
  H89      1.0000 0.89950  0.35700  0.07500  Biso   1.000  H
  H90      1.0000 0.10050  0.35700  0.42500  Biso   1.000  H
  H91      1.0000 0.39950  0.85700  0.07500  Biso   1.000  H
  H92      1.0000 0.60050  0.85700  0.42500  Biso   1.000  H
  H93      1.0000 0.10050  0.64300  0.92500  Biso   1.000  H
  H94      1.0000 0.89950  0.64300  0.57500  Biso   1.000  H
  H95      1.0000 0.60050  0.14300  0.92500  Biso   1.000  H
  H96      1.0000 0.39950  0.14300  0.57500  Biso   1.000  H
  O33      1.0000 0.00000  0.29861  0.25000  Biso   1.000  O
  O34      1.0000 0.50000  0.79861  0.25000  Biso   1.000  O
  O35      1.0000 0.00000  0.70139  0.75000  Biso   1.000  O
  O36      1.0000 0.50000  0.20139  0.75000  Biso   1.000  O
  H97      1.0000 0.95100  0.27260  0.23700  Biso   1.000  H
  H98      1.0000 0.04900  0.27260  0.26300  Biso   1.000  H
  H99      1.0000 0.45100  0.77260  0.23700  Biso   1.000  H
  H100     1.0000 0.54900  0.77260  0.26300  Biso   1.000  H
  H101     1.0000 0.04900  0.72740  0.76300  Biso   1.000  H
  H102     1.0000 0.95100  0.72740  0.73700  Biso   1.000  H
  H103     1.0000 0.54900  0.22740  0.76300  Biso   1.000  H
  H104     1.0000 0.45100  0.22740  0.73700  Biso   1.000  H
