data_image0
_cell_length_a       15.2609
_cell_length_b       27.036
_cell_length_c       9.5603
_cell_angle_alpha    90
_cell_angle_beta     90
_cell_angle_gamma    90

_symmetry_space_group_name_H-M    "P 1"
_symmetry_int_tables_number       1

loop_
  _symmetry_equiv_pos_as_xyz
  'x, y, z'

loop_
  _atom_site_label
  _atom_site_occupancy
  _atom_site_fract_x
  _atom_site_fract_y
  _atom_site_fract_z
  _atom_site_thermal_displace_type
  _atom_site_B_iso_or_equiv
  _atom_site_type_symbol
  Cu1      1.0000 0.00000  0.97094  0.11053  Biso   1.000  Cu
  Cu2      1.0000 0.00000  0.52906  0.11053  Biso   1.000  Cu
  Cu3      1.0000 0.00000  0.47094  0.88947  Biso   1.000  Cu
  Cu4      1.0000 0.00000  0.02906  0.88947  Biso   1.000  Cu
  Cu5      1.0000 0.50000  0.47094  0.61053  Biso   1.000  Cu
  Cu6      1.0000 0.50000  0.02906  0.61053  Biso   1.000  Cu
  Cu7      1.0000 0.50000  0.97094  0.38947  Biso   1.000  Cu
  Cu8      1.0000 0.50000  0.52906  0.38947  Biso   1.000  Cu
  O1       1.0000 0.08950  0.01820  0.17410  Biso   1.000  O
  O2       1.0000 0.91050  0.48180  0.17410  Biso   1.000  O
  O3       1.0000 0.91050  0.51820  0.82590  Biso   1.000  O
  O4       1.0000 0.08950  0.98180  0.82590  Biso   1.000  O
  O5       1.0000 0.58950  0.51820  0.67410  Biso   1.000  O
  O6       1.0000 0.41050  0.98180  0.67410  Biso   1.000  O
  O7       1.0000 0.41050  0.01820  0.32590  Biso   1.000  O
  O8       1.0000 0.58950  0.48180  0.32590  Biso   1.000  O
  O9       1.0000 0.91050  0.98180  0.82590  Biso   1.000  O
  O10      1.0000 0.08950  0.51820  0.82590  Biso   1.000  O
  O11      1.0000 0.08950  0.48180  0.17410  Biso   1.000  O
  O12      1.0000 0.91050  0.01820  0.17410  Biso   1.000  O
  O13      1.0000 0.41050  0.48180  0.32590  Biso   1.000  O
  O14      1.0000 0.58950  0.01820  0.32590  Biso   1.000  O
  O15      1.0000 0.58950  0.98180  0.67410  Biso   1.000  O
  O16      1.0000 0.41050  0.51820  0.67410  Biso   1.000  O
  O17      1.0000 0.08970  0.06650  0.98850  Biso   1.000  O
  O18      1.0000 0.91030  0.43350  0.98850  Biso   1.000  O
  O19      1.0000 0.91030  0.56650  0.01150  Biso   1.000  O
  O20      1.0000 0.08970  0.93350  0.01150  Biso   1.000  O
  O21      1.0000 0.58970  0.56650  0.48850  Biso   1.000  O
  O22      1.0000 0.41030  0.93350  0.48850  Biso   1.000  O
  O23      1.0000 0.41030  0.06650  0.51150  Biso   1.000  O
  O24      1.0000 0.58970  0.43350  0.51150  Biso   1.000  O
  O25      1.0000 0.91030  0.93350  0.01150  Biso   1.000  O
  O26      1.0000 0.08970  0.56650  0.01150  Biso   1.000  O
  O27      1.0000 0.08970  0.43350  0.98850  Biso   1.000  O
  O28      1.0000 0.91030  0.06650  0.98850  Biso   1.000  O
  O29      1.0000 0.41030  0.43350  0.51150  Biso   1.000  O
  O30      1.0000 0.58970  0.06650  0.51150  Biso   1.000  O
  O31      1.0000 0.58970  0.93350  0.48850  Biso   1.000  O
  O32      1.0000 0.41030  0.56650  0.48850  Biso   1.000  O
  O33      1.0000 0.00000  0.92690  0.29580  Biso   1.000  O
  O34      1.0000 0.00000  0.57310  0.29580  Biso   1.000  O
  O35      1.0000 0.00000  0.42690  0.70420  Biso   1.000  O
  O36      1.0000 0.00000  0.07310  0.70420  Biso   1.000  O
  O37      1.0000 0.50000  0.42690  0.79580  Biso   1.000  O
  O38      1.0000 0.50000  0.07310  0.79580  Biso   1.000  O
  O39      1.0000 0.50000  0.92690  0.20420  Biso   1.000  O
  O40      1.0000 0.50000  0.57310  0.20420  Biso   1.000  O
  N1       1.0000 0.28320  0.21210  0.16700  Biso   1.000  N
  N2       1.0000 0.71680  0.28790  0.16700  Biso   1.000  N
  N3       1.0000 0.71680  0.71210  0.83300  Biso   1.000  N
  N4       1.0000 0.28320  0.78790  0.83300  Biso   1.000  N
  N5       1.0000 0.78320  0.71210  0.66700  Biso   1.000  N
  N6       1.0000 0.21680  0.78790  0.66700  Biso   1.000  N
  N7       1.0000 0.21680  0.21210  0.33300  Biso   1.000  N
  N8       1.0000 0.78320  0.28790  0.33300  Biso   1.000  N
  N9       1.0000 0.71680  0.78790  0.83300  Biso   1.000  N
  N10      1.0000 0.28320  0.71210  0.83300  Biso   1.000  N
  N11      1.0000 0.28320  0.28790  0.16700  Biso   1.000  N
  N12      1.0000 0.71680  0.21210  0.16700  Biso   1.000  N
  N13      1.0000 0.21680  0.28790  0.33300  Biso   1.000  N
  N14      1.0000 0.78320  0.21210  0.33300  Biso   1.000  N
  N15      1.0000 0.78320  0.78790  0.66700  Biso   1.000  N
  N16      1.0000 0.21680  0.71210  0.66700  Biso   1.000  N
  C1       1.0000 0.11530  0.05480  0.10740  Biso   1.000  C
  C2       1.0000 0.88470  0.44520  0.10740  Biso   1.000  C
  C3       1.0000 0.88470  0.55480  0.89260  Biso   1.000  C
  C4       1.0000 0.11530  0.94520  0.89260  Biso   1.000  C
  C5       1.0000 0.61530  0.55480  0.60740  Biso   1.000  C
  C6       1.0000 0.38470  0.94520  0.60740  Biso   1.000  C
  C7       1.0000 0.38470  0.05480  0.39260  Biso   1.000  C
  C8       1.0000 0.61530  0.44520  0.39260  Biso   1.000  C
  C9       1.0000 0.88470  0.94520  0.89260  Biso   1.000  C
  C10      1.0000 0.11530  0.55480  0.89260  Biso   1.000  C
  C11      1.0000 0.11530  0.44520  0.10740  Biso   1.000  C
  C12      1.0000 0.88470  0.05480  0.10740  Biso   1.000  C
  C13      1.0000 0.38470  0.44520  0.39260  Biso   1.000  C
  C14      1.0000 0.61530  0.05480  0.39260  Biso   1.000  C
  C15      1.0000 0.61530  0.94520  0.60740  Biso   1.000  C
  C16      1.0000 0.38470  0.55480  0.60740  Biso   1.000  C
  C17      1.0000 0.18440  0.08560  0.17860  Biso   1.000  C
  C18      1.0000 0.81560  0.41440  0.17860  Biso   1.000  C
  C19      1.0000 0.81560  0.58560  0.82140  Biso   1.000  C
  C20      1.0000 0.18440  0.91440  0.82140  Biso   1.000  C
  C21      1.0000 0.68440  0.58560  0.67860  Biso   1.000  C
  C22      1.0000 0.31560  0.91440  0.67860  Biso   1.000  C
  C23      1.0000 0.31560  0.08560  0.32140  Biso   1.000  C
  C24      1.0000 0.68440  0.41440  0.32140  Biso   1.000  C
  C25      1.0000 0.81560  0.91440  0.82140  Biso   1.000  C
  C26      1.0000 0.18440  0.58560  0.82140  Biso   1.000  C
  C27      1.0000 0.18440  0.41440  0.17860  Biso   1.000  C
  C28      1.0000 0.81560  0.08560  0.17860  Biso   1.000  C
  C29      1.0000 0.31560  0.41440  0.32140  Biso   1.000  C
  C30      1.0000 0.68440  0.08560  0.32140  Biso   1.000  C
  C31      1.0000 0.68440  0.91440  0.67860  Biso   1.000  C
  C32      1.0000 0.31560  0.58560  0.67860  Biso   1.000  C
  C33      1.0000 0.18420  0.13560  0.17410  Biso   1.000  C
  C34      1.0000 0.81580  0.36440  0.17410  Biso   1.000  C
  C35      1.0000 0.81580  0.63560  0.82590  Biso   1.000  C
  C36      1.0000 0.18420  0.86440  0.82590  Biso   1.000  C
  C37      1.0000 0.68420  0.63560  0.67410  Biso   1.000  C
  C38      1.0000 0.31580  0.86440  0.67410  Biso   1.000  C
  C39      1.0000 0.31580  0.13560  0.32590  Biso   1.000  C
  C40      1.0000 0.68420  0.36440  0.32590  Biso   1.000  C
  C41      1.0000 0.81580  0.86440  0.82590  Biso   1.000  C
  C42      1.0000 0.18420  0.63560  0.82590  Biso   1.000  C
  C43      1.0000 0.18420  0.36440  0.17410  Biso   1.000  C
  C44      1.0000 0.81580  0.13560  0.17410  Biso   1.000  C
  C45      1.0000 0.31580  0.36440  0.32590  Biso   1.000  C
  C46      1.0000 0.68420  0.13560  0.32590  Biso   1.000  C
  C47      1.0000 0.68420  0.86440  0.67410  Biso   1.000  C
  C48      1.0000 0.31580  0.63560  0.67410  Biso   1.000  C
  C49      1.0000 0.25000  0.15860  0.25000  Biso   1.000  C
  C50      1.0000 0.75000  0.34140  0.25000  Biso   1.000  C
  C51      1.0000 0.75000  0.65860  0.75000  Biso   1.000  C
  C52      1.0000 0.25000  0.84140  0.75000  Biso   1.000  C
  C53      1.0000 0.75000  0.84140  0.75000  Biso   1.000  C
  C54      1.0000 0.25000  0.65860  0.75000  Biso   1.000  C
  C55      1.0000 0.25000  0.34140  0.25000  Biso   1.000  C
  C56      1.0000 0.75000  0.15860  0.25000  Biso   1.000  C
  C57      1.0000 0.10800  0.16790  0.11600  Biso   1.000  C
  C58      1.0000 0.89200  0.33210  0.11600  Biso   1.000  C
  C59      1.0000 0.89200  0.66790  0.88400  Biso   1.000  C
  C60      1.0000 0.10800  0.83210  0.88400  Biso   1.000  C
  C61      1.0000 0.60800  0.66790  0.61600  Biso   1.000  C
  C62      1.0000 0.39200  0.83210  0.61600  Biso   1.000  C
  C63      1.0000 0.39200  0.16790  0.38400  Biso   1.000  C
  C64      1.0000 0.60800  0.33210  0.38400  Biso   1.000  C
  C65      1.0000 0.89200  0.83210  0.88400  Biso   1.000  C
  C66      1.0000 0.10800  0.66790  0.88400  Biso   1.000  C
  C67      1.0000 0.10800  0.33210  0.11600  Biso   1.000  C
  C68      1.0000 0.89200  0.16790  0.11600  Biso   1.000  C
  C69      1.0000 0.39200  0.33210  0.38400  Biso   1.000  C
  C70      1.0000 0.60800  0.16790  0.38400  Biso   1.000  C
  C71      1.0000 0.60800  0.83210  0.61600  Biso   1.000  C
  C72      1.0000 0.39200  0.66790  0.61600  Biso   1.000  C
  H1       1.0000 0.11250  0.16980  0.01350  Biso   1.000  H
  H2       1.0000 0.88750  0.33020  0.01350  Biso   1.000  H
  H3       1.0000 0.88750  0.66980  0.98650  Biso   1.000  H
  H4       1.0000 0.11250  0.83020  0.98650  Biso   1.000  H
  H5       1.0000 0.61250  0.66980  0.51350  Biso   1.000  H
  H6       1.0000 0.38750  0.83020  0.51350  Biso   1.000  H
  H7       1.0000 0.38750  0.16980  0.48650  Biso   1.000  H
  H8       1.0000 0.61250  0.33020  0.48650  Biso   1.000  H
  H9       1.0000 0.88750  0.83020  0.98650  Biso   1.000  H
  H10      1.0000 0.11250  0.66980  0.98650  Biso   1.000  H
  H11      1.0000 0.11250  0.33020  0.01350  Biso   1.000  H
  H12      1.0000 0.88750  0.16980  0.01350  Biso   1.000  H
  H13      1.0000 0.38750  0.33020  0.48650  Biso   1.000  H
  H14      1.0000 0.61250  0.16980  0.48650  Biso   1.000  H
  H15      1.0000 0.61250  0.83020  0.51350  Biso   1.000  H
  H16      1.0000 0.38750  0.66980  0.51350  Biso   1.000  H
  H17      1.0000 0.05170  0.15300  0.14140  Biso   1.000  H
  H18      1.0000 0.94830  0.34700  0.14140  Biso   1.000  H
  H19      1.0000 0.94830  0.65300  0.85860  Biso   1.000  H
  H20      1.0000 0.05170  0.84700  0.85860  Biso   1.000  H
  H21      1.0000 0.55170  0.65300  0.64140  Biso   1.000  H
  H22      1.0000 0.44830  0.84700  0.64140  Biso   1.000  H
  H23      1.0000 0.44830  0.15300  0.35860  Biso   1.000  H
  H24      1.0000 0.55170  0.34700  0.35860  Biso   1.000  H
  H25      1.0000 0.94830  0.84700  0.85860  Biso   1.000  H
  H26      1.0000 0.05170  0.65300  0.85860  Biso   1.000  H
  H27      1.0000 0.05170  0.34700  0.14140  Biso   1.000  H
  H28      1.0000 0.94830  0.15300  0.14140  Biso   1.000  H
  H29      1.0000 0.44830  0.34700  0.35860  Biso   1.000  H
  H30      1.0000 0.55170  0.15300  0.35860  Biso   1.000  H
  H31      1.0000 0.55170  0.84700  0.64140  Biso   1.000  H
  H32      1.0000 0.44830  0.65300  0.64140  Biso   1.000  H
  H33      1.0000 0.11180  0.20130  0.15530  Biso   1.000  H
  H34      1.0000 0.88820  0.29870  0.15530  Biso   1.000  H
  H35      1.0000 0.88820  0.70130  0.84470  Biso   1.000  H
  H36      1.0000 0.11180  0.79870  0.84470  Biso   1.000  H
  H37      1.0000 0.61180  0.70130  0.65530  Biso   1.000  H
  H38      1.0000 0.38820  0.79870  0.65530  Biso   1.000  H
  H39      1.0000 0.38820  0.20130  0.34470  Biso   1.000  H
  H40      1.0000 0.61180  0.29870  0.34470  Biso   1.000  H
  H41      1.0000 0.88820  0.79870  0.84470  Biso   1.000  H
  H42      1.0000 0.11180  0.70130  0.84470  Biso   1.000  H
  H43      1.0000 0.11180  0.29870  0.15530  Biso   1.000  H
  H44      1.0000 0.88820  0.20130  0.15530  Biso   1.000  H
  H45      1.0000 0.38820  0.29870  0.34470  Biso   1.000  H
  H46      1.0000 0.61180  0.20130  0.34470  Biso   1.000  H
  H47      1.0000 0.61180  0.79870  0.65530  Biso   1.000  H
  H48      1.0000 0.38820  0.70130  0.65530  Biso   1.000  H
  C73      1.0000 0.25000  0.06080  0.25000  Biso   1.000  C
  C74      1.0000 0.75000  0.43920  0.25000  Biso   1.000  C
  C75      1.0000 0.75000  0.56080  0.75000  Biso   1.000  C
  C76      1.0000 0.25000  0.93920  0.75000  Biso   1.000  C
  C77      1.0000 0.75000  0.93920  0.75000  Biso   1.000  C
  C78      1.0000 0.25000  0.56080  0.75000  Biso   1.000  C
  C79      1.0000 0.25000  0.43920  0.25000  Biso   1.000  C
  C80      1.0000 0.75000  0.06080  0.25000  Biso   1.000  C
  H49      1.0000 0.25000  0.02570  0.25000  Biso   1.000  H
  H50      1.0000 0.75000  0.47430  0.25000  Biso   1.000  H
  H51      1.0000 0.75000  0.52570  0.75000  Biso   1.000  H
  H52      1.0000 0.25000  0.97430  0.75000  Biso   1.000  H
  H53      1.0000 0.75000  0.97430  0.75000  Biso   1.000  H
  H54      1.0000 0.25000  0.52570  0.75000  Biso   1.000  H
  H55      1.0000 0.25000  0.47430  0.25000  Biso   1.000  H
  H56      1.0000 0.75000  0.02570  0.25000  Biso   1.000  H
  C81      1.0000 0.32950  0.22410  0.04100  Biso   1.000  C
  C82      1.0000 0.67050  0.27590  0.04100  Biso   1.000  C
  C83      1.0000 0.67050  0.72410  0.95900  Biso   1.000  C
  C84      1.0000 0.32950  0.77590  0.95900  Biso   1.000  C
  C85      1.0000 0.82950  0.72410  0.54100  Biso   1.000  C
  C86      1.0000 0.17050  0.77590  0.54100  Biso   1.000  C
  C87      1.0000 0.17050  0.22410  0.45900  Biso   1.000  C
  C88      1.0000 0.82950  0.27590  0.45900  Biso   1.000  C
  C89      1.0000 0.67050  0.77590  0.95900  Biso   1.000  C
  C90      1.0000 0.32950  0.72410  0.95900  Biso   1.000  C
  C91      1.0000 0.32950  0.27590  0.04100  Biso   1.000  C
  C92      1.0000 0.67050  0.22410  0.04100  Biso   1.000  C
  C93      1.0000 0.17050  0.27590  0.45900  Biso   1.000  C
  C94      1.0000 0.82950  0.22410  0.45900  Biso   1.000  C
  C95      1.0000 0.82950  0.77590  0.54100  Biso   1.000  C
  C96      1.0000 0.17050  0.72410  0.54100  Biso   1.000  C
  H57      1.0000 0.35410  0.20230  0.97350  Biso   1.000  H
  H58      1.0000 0.64590  0.29770  0.97350  Biso   1.000  H
  H59      1.0000 0.64590  0.70230  0.02650  Biso   1.000  H
  H60      1.0000 0.35410  0.79770  0.02650  Biso   1.000  H
  H61      1.0000 0.85410  0.70230  0.47350  Biso   1.000  H
  H62      1.0000 0.14590  0.79770  0.47350  Biso   1.000  H
  H63      1.0000 0.14590  0.20230  0.52650  Biso   1.000  H
  H64      1.0000 0.85410  0.29770  0.52650  Biso   1.000  H
  H65      1.0000 0.64590  0.79770  0.02650  Biso   1.000  H
  H66      1.0000 0.35410  0.70230  0.02650  Biso   1.000  H
  H67      1.0000 0.35410  0.29770  0.97350  Biso   1.000  H
  H68      1.0000 0.64590  0.20230  0.97350  Biso   1.000  H
  H69      1.0000 0.14590  0.29770  0.52650  Biso   1.000  H
  H70      1.0000 0.85410  0.20230  0.52650  Biso   1.000  H
  H71      1.0000 0.85410  0.79770  0.47350  Biso   1.000  H
  H72      1.0000 0.14590  0.70230  0.47350  Biso   1.000  H
  C97      1.0000 0.25000  0.25000  0.25000  Biso   1.000  C
  C98      1.0000 0.75000  0.25000  0.25000  Biso   1.000  C
  C99      1.0000 0.75000  0.75000  0.75000  Biso   1.000  C
  C100     1.0000 0.25000  0.75000  0.75000  Biso   1.000  C
  S1       1.0000 0.50000  0.55460  0.06120  Biso   1.000  S
  S2       1.0000 0.50000  0.94540  0.06120  Biso   1.000  S
  S3       1.0000 0.50000  0.05460  0.93880  Biso   1.000  S
  S4       1.0000 0.50000  0.44540  0.93880  Biso   1.000  S
  S5       1.0000 0.00000  0.05460  0.56120  Biso   1.000  S
  S6       1.0000 0.00000  0.44540  0.56120  Biso   1.000  S
  S7       1.0000 0.00000  0.55460  0.43880  Biso   1.000  S
  S8       1.0000 0.00000  0.94540  0.43880  Biso   1.000  S
  C101     1.0000 0.50000  0.60600  0.94200  Biso   1.000  C
  C102     1.0000 0.50000  0.89400  0.94200  Biso   1.000  C
  C103     1.0000 0.50000  0.10600  0.05800  Biso   1.000  C
  C104     1.0000 0.50000  0.39400  0.05800  Biso   1.000  C
  C105     1.0000 0.00000  0.10600  0.44200  Biso   1.000  C
  C106     1.0000 0.00000  0.39400  0.44200  Biso   1.000  C
  C107     1.0000 0.00000  0.60600  0.55800  Biso   1.000  C
  C108     1.0000 0.00000  0.89400  0.55800  Biso   1.000  C
  H73      1.0000 0.56010  0.61790  0.92980  Biso   1.000  H
  H74      1.0000 0.43990  0.88210  0.92980  Biso   1.000  H
  H75      1.0000 0.43990  0.11790  0.07020  Biso   1.000  H
  H76      1.0000 0.56010  0.38210  0.07020  Biso   1.000  H
  H77      1.0000 0.06010  0.11790  0.42980  Biso   1.000  H
  H78      1.0000 0.93990  0.38210  0.42980  Biso   1.000  H
  H79      1.0000 0.93990  0.61790  0.57020  Biso   1.000  H
  H80      1.0000 0.06010  0.88210  0.57020  Biso   1.000  H
  H81      1.0000 0.43990  0.38210  0.07020  Biso   1.000  H
  H82      1.0000 0.56010  0.11790  0.07020  Biso   1.000  H
  H83      1.0000 0.56010  0.88210  0.92980  Biso   1.000  H
  H84      1.0000 0.43990  0.61790  0.92980  Biso   1.000  H
  H85      1.0000 0.93990  0.88210  0.57020  Biso   1.000  H
  H86      1.0000 0.06010  0.61790  0.57020  Biso   1.000  H
  H87      1.0000 0.06010  0.38210  0.42980  Biso   1.000  H
  H88      1.0000 0.93990  0.11790  0.42980  Biso   1.000  H
  H89      1.0000 0.46360  0.63260  0.98060  Biso   1.000  H
  H90      1.0000 0.53640  0.86740  0.98060  Biso   1.000  H
  H91      1.0000 0.53640  0.13260  0.01940  Biso   1.000  H
  H92      1.0000 0.46360  0.36740  0.01940  Biso   1.000  H
  H93      1.0000 0.96360  0.13260  0.48060  Biso   1.000  H
  H94      1.0000 0.03640  0.36740  0.48060  Biso   1.000  H
  H95      1.0000 0.03640  0.63260  0.51940  Biso   1.000  H
  H96      1.0000 0.96360  0.86740  0.51940  Biso   1.000  H
  H97      1.0000 0.53640  0.36740  0.01940  Biso   1.000  H
  H98      1.0000 0.46360  0.13260  0.01940  Biso   1.000  H
  H99      1.0000 0.46360  0.86740  0.98060  Biso   1.000  H
  H100     1.0000 0.53640  0.63260  0.98060  Biso   1.000  H
  H101     1.0000 0.03640  0.86740  0.51940  Biso   1.000  H
  H102     1.0000 0.96360  0.63260  0.51940  Biso   1.000  H
  H103     1.0000 0.96360  0.36740  0.48060  Biso   1.000  H
  H104     1.0000 0.03640  0.13260  0.48060  Biso   1.000  H
  H105     1.0000 0.47630  0.59540  0.85200  Biso   1.000  H
  H106     1.0000 0.52370  0.90460  0.85200  Biso   1.000  H
  H107     1.0000 0.52370  0.09540  0.14800  Biso   1.000  H
  H108     1.0000 0.47630  0.40460  0.14800  Biso   1.000  H
  H109     1.0000 0.97630  0.09540  0.35200  Biso   1.000  H
  H110     1.0000 0.02370  0.40460  0.35200  Biso   1.000  H
  H111     1.0000 0.02370  0.59540  0.64800  Biso   1.000  H
  H112     1.0000 0.97630  0.90460  0.64800  Biso   1.000  H
  H113     1.0000 0.52370  0.40460  0.14800  Biso   1.000  H
  H114     1.0000 0.47630  0.09540  0.14800  Biso   1.000  H
  H115     1.0000 0.47630  0.90460  0.85200  Biso   1.000  H
  H116     1.0000 0.52370  0.59540  0.85200  Biso   1.000  H
  H117     1.0000 0.02370  0.90460  0.64800  Biso   1.000  H
  H118     1.0000 0.97630  0.59540  0.64800  Biso   1.000  H
  H119     1.0000 0.97630  0.40460  0.35200  Biso   1.000  H
  H120     1.0000 0.02370  0.09540  0.35200  Biso   1.000  H
  C109     1.0000 0.59900  0.52400  0.01400  Biso   1.000  C
  C110     1.0000 0.40100  0.97600  0.01400  Biso   1.000  C
  C111     1.0000 0.40100  0.02400  0.98600  Biso   1.000  C
  C112     1.0000 0.59900  0.47600  0.98600  Biso   1.000  C
  C113     1.0000 0.09900  0.02400  0.51400  Biso   1.000  C
  C114     1.0000 0.90100  0.47600  0.51400  Biso   1.000  C
  C115     1.0000 0.90100  0.52400  0.48600  Biso   1.000  C
  C116     1.0000 0.09900  0.97600  0.48600  Biso   1.000  C
  C117     1.0000 0.40100  0.47600  0.98600  Biso   1.000  C
  C118     1.0000 0.59900  0.02400  0.98600  Biso   1.000  C
  C119     1.0000 0.59900  0.97600  0.01400  Biso   1.000  C
  C120     1.0000 0.40100  0.52400  0.01400  Biso   1.000  C
  C121     1.0000 0.90100  0.97600  0.48600  Biso   1.000  C
  C122     1.0000 0.09900  0.52400  0.48600  Biso   1.000  C
  C123     1.0000 0.09900  0.47600  0.51400  Biso   1.000  C
  C124     1.0000 0.90100  0.02400  0.51400  Biso   1.000  C
  H121     1.0000 0.58730  0.48890  0.99720  Biso   1.000  H
  H122     1.0000 0.41270  0.01110  0.99720  Biso   1.000  H
  H123     1.0000 0.41270  0.98890  0.00280  Biso   1.000  H
  H124     1.0000 0.58730  0.51110  0.00280  Biso   1.000  H
  H125     1.0000 0.08730  0.98890  0.49720  Biso   1.000  H
  H126     1.0000 0.91270  0.51110  0.49720  Biso   1.000  H
  H127     1.0000 0.91270  0.48890  0.50280  Biso   1.000  H
  H128     1.0000 0.08730  0.01110  0.50280  Biso   1.000  H
  H129     1.0000 0.41270  0.51110  0.00280  Biso   1.000  H
  H130     1.0000 0.58730  0.98890  0.00280  Biso   1.000  H
  H131     1.0000 0.58730  0.01110  0.99720  Biso   1.000  H
  H132     1.0000 0.41270  0.48890  0.99720  Biso   1.000  H
  H133     1.0000 0.91270  0.01110  0.50280  Biso   1.000  H
  H134     1.0000 0.08730  0.48890  0.50280  Biso   1.000  H
  H135     1.0000 0.08730  0.51110  0.49720  Biso   1.000  H
  H136     1.0000 0.91270  0.98890  0.49720  Biso   1.000  H
  H137     1.0000 0.64180  0.52730  0.09010  Biso   1.000  H
  H138     1.0000 0.35820  0.97270  0.09010  Biso   1.000  H
  H139     1.0000 0.35820  0.02730  0.90990  Biso   1.000  H
  H140     1.0000 0.64180  0.47270  0.90990  Biso   1.000  H
  H141     1.0000 0.14180  0.02730  0.59010  Biso   1.000  H
  H142     1.0000 0.85820  0.47270  0.59010  Biso   1.000  H
  H143     1.0000 0.85820  0.52730  0.40990  Biso   1.000  H
  H144     1.0000 0.14180  0.97270  0.40990  Biso   1.000  H
  H145     1.0000 0.35820  0.47270  0.90990  Biso   1.000  H
  H146     1.0000 0.64180  0.02730  0.90990  Biso   1.000  H
  H147     1.0000 0.64180  0.97270  0.09010  Biso   1.000  H
  H148     1.0000 0.35820  0.52730  0.09010  Biso   1.000  H
  H149     1.0000 0.85820  0.97270  0.40990  Biso   1.000  H
  H150     1.0000 0.14180  0.52730  0.40990  Biso   1.000  H
  H151     1.0000 0.14180  0.47270  0.59010  Biso   1.000  H
  H152     1.0000 0.85820  0.02730  0.59010  Biso   1.000  H
  H153     1.0000 0.62310  0.53900  0.92880  Biso   1.000  H
  H154     1.0000 0.37690  0.96100  0.92880  Biso   1.000  H
  H155     1.0000 0.37690  0.03900  0.07120  Biso   1.000  H
  H156     1.0000 0.62310  0.46100  0.07120  Biso   1.000  H
  H157     1.0000 0.12310  0.03900  0.42880  Biso   1.000  H
  H158     1.0000 0.87690  0.46100  0.42880  Biso   1.000  H
  H159     1.0000 0.87690  0.53900  0.57120  Biso   1.000  H
  H160     1.0000 0.12310  0.96100  0.57120  Biso   1.000  H
  H161     1.0000 0.37690  0.46100  0.07120  Biso   1.000  H
  H162     1.0000 0.62310  0.03900  0.07120  Biso   1.000  H
  H163     1.0000 0.62310  0.96100  0.92880  Biso   1.000  H
  H164     1.0000 0.37690  0.53900  0.92880  Biso   1.000  H
  H165     1.0000 0.87690  0.96100  0.57120  Biso   1.000  H
  H166     1.0000 0.12310  0.53900  0.57120  Biso   1.000  H
  H167     1.0000 0.12310  0.46100  0.42880  Biso   1.000  H
  H168     1.0000 0.87690  0.03900  0.42880  Biso   1.000  H
  S9       1.0000 0.94580  0.89230  0.34450  Biso   1.000  S
  S10      1.0000 0.05420  0.60770  0.34450  Biso   1.000  S
  S11      1.0000 0.05420  0.39230  0.65550  Biso   1.000  S
  S12      1.0000 0.94580  0.10770  0.65550  Biso   1.000  S
  S13      1.0000 0.44580  0.39230  0.84450  Biso   1.000  S
  S14      1.0000 0.55420  0.10770  0.84450  Biso   1.000  S
  S15      1.0000 0.55420  0.89230  0.15550  Biso   1.000  S
  S16      1.0000 0.44580  0.60770  0.15550  Biso   1.000  S
  S17      1.0000 0.05420  0.10770  0.65550  Biso   1.000  S
  S18      1.0000 0.94580  0.39230  0.65550  Biso   1.000  S
  S19      1.0000 0.94580  0.60770  0.34450  Biso   1.000  S
  S20      1.0000 0.05420  0.89230  0.34450  Biso   1.000  S
  S21      1.0000 0.55420  0.60770  0.15550  Biso   1.000  S
  S22      1.0000 0.44580  0.89230  0.15550  Biso   1.000  S
  S23      1.0000 0.44580  0.10770  0.84450  Biso   1.000  S
  S24      1.0000 0.55420  0.39230  0.84450  Biso   1.000  S
  C125     1.0000 0.83500  0.91620  0.39200  Biso   1.000  C
  C126     1.0000 0.16500  0.58380  0.39200  Biso   1.000  C
  C127     1.0000 0.16500  0.41620  0.60800  Biso   1.000  C
  C128     1.0000 0.83500  0.08380  0.60800  Biso   1.000  C
  C129     1.0000 0.33500  0.41620  0.89200  Biso   1.000  C
  C130     1.0000 0.66500  0.08380  0.89200  Biso   1.000  C
  C131     1.0000 0.66500  0.91620  0.10800  Biso   1.000  C
  C132     1.0000 0.33500  0.58380  0.10800  Biso   1.000  C
  C133     1.0000 0.16500  0.08380  0.60800  Biso   1.000  C
  C134     1.0000 0.83500  0.41620  0.60800  Biso   1.000  C
  C135     1.0000 0.83500  0.58380  0.39200  Biso   1.000  C
  C136     1.0000 0.16500  0.91620  0.39200  Biso   1.000  C
  C137     1.0000 0.66500  0.58380  0.10800  Biso   1.000  C
  C138     1.0000 0.33500  0.91620  0.10800  Biso   1.000  C
  C139     1.0000 0.33500  0.08380  0.89200  Biso   1.000  C
  C140     1.0000 0.66500  0.41620  0.89200  Biso   1.000  C
  H169     1.0000 0.80750  0.93040  0.30860  Biso   1.000  H
  H170     1.0000 0.19250  0.56960  0.30860  Biso   1.000  H
  H171     1.0000 0.19250  0.43040  0.69140  Biso   1.000  H
  H172     1.0000 0.80750  0.06960  0.69140  Biso   1.000  H
  H173     1.0000 0.30750  0.43040  0.80860  Biso   1.000  H
  H174     1.0000 0.69250  0.06960  0.80860  Biso   1.000  H
  H175     1.0000 0.69250  0.93040  0.19140  Biso   1.000  H
  H176     1.0000 0.30750  0.56960  0.19140  Biso   1.000  H
  H177     1.0000 0.19250  0.06960  0.69140  Biso   1.000  H
  H178     1.0000 0.80750  0.43040  0.69140  Biso   1.000  H
  H179     1.0000 0.80750  0.56960  0.30860  Biso   1.000  H
  H180     1.0000 0.19250  0.93040  0.30860  Biso   1.000  H
  H181     1.0000 0.69250  0.56960  0.19140  Biso   1.000  H
  H182     1.0000 0.30750  0.93040  0.19140  Biso   1.000  H
  H183     1.0000 0.30750  0.06960  0.80860  Biso   1.000  H
  H184     1.0000 0.69250  0.43040  0.80860  Biso   1.000  H
  H185     1.0000 0.79940  0.88900  0.42750  Biso   1.000  H
  H186     1.0000 0.20060  0.61100  0.42750  Biso   1.000  H
  H187     1.0000 0.20060  0.38900  0.57250  Biso   1.000  H
  H188     1.0000 0.79940  0.11100  0.57250  Biso   1.000  H
  H189     1.0000 0.29940  0.38900  0.92750  Biso   1.000  H
  H190     1.0000 0.70060  0.11100  0.92750  Biso   1.000  H
  H191     1.0000 0.70060  0.88900  0.07250  Biso   1.000  H
  H192     1.0000 0.29940  0.61100  0.07250  Biso   1.000  H
  H193     1.0000 0.20060  0.11100  0.57250  Biso   1.000  H
  H194     1.0000 0.79940  0.38900  0.57250  Biso   1.000  H
  H195     1.0000 0.79940  0.61100  0.42750  Biso   1.000  H
  H196     1.0000 0.20060  0.88900  0.42750  Biso   1.000  H
  H197     1.0000 0.70060  0.61100  0.07250  Biso   1.000  H
  H198     1.0000 0.29940  0.88900  0.07250  Biso   1.000  H
  H199     1.0000 0.29940  0.11100  0.92750  Biso   1.000  H
  H200     1.0000 0.70060  0.38900  0.92750  Biso   1.000  H
  H201     1.0000 0.84120  0.94170  0.46380  Biso   1.000  H
  H202     1.0000 0.15880  0.55830  0.46380  Biso   1.000  H
  H203     1.0000 0.15880  0.44170  0.53620  Biso   1.000  H
  H204     1.0000 0.84120  0.05830  0.53620  Biso   1.000  H
  H205     1.0000 0.34120  0.44170  0.96380  Biso   1.000  H
  H206     1.0000 0.65880  0.05830  0.96380  Biso   1.000  H
  H207     1.0000 0.65880  0.94170  0.03620  Biso   1.000  H
  H208     1.0000 0.34120  0.55830  0.03620  Biso   1.000  H
  H209     1.0000 0.15880  0.05830  0.53620  Biso   1.000  H
  H210     1.0000 0.84120  0.44170  0.53620  Biso   1.000  H
  H211     1.0000 0.84120  0.55830  0.46380  Biso   1.000  H
  H212     1.0000 0.15880  0.94170  0.46380  Biso   1.000  H
  H213     1.0000 0.65880  0.55830  0.03620  Biso   1.000  H
  H214     1.0000 0.34120  0.94170  0.03620  Biso   1.000  H
  H215     1.0000 0.34120  0.05830  0.96380  Biso   1.000  H
  H216     1.0000 0.65880  0.44170  0.96380  Biso   1.000  H
  C141     1.0000 0.96900  0.83260  0.26100  Biso   1.000  C
  C142     1.0000 0.03100  0.66740  0.26100  Biso   1.000  C
  C143     1.0000 0.03100  0.33260  0.73900  Biso   1.000  C
  C144     1.0000 0.96900  0.16740  0.73900  Biso   1.000  C
  C145     1.0000 0.46900  0.33260  0.76100  Biso   1.000  C
  C146     1.0000 0.53100  0.16740  0.76100  Biso   1.000  C
  C147     1.0000 0.53100  0.83260  0.23900  Biso   1.000  C
  C148     1.0000 0.46900  0.66740  0.23900  Biso   1.000  C
  C149     1.0000 0.03100  0.16740  0.73900  Biso   1.000  C
  C150     1.0000 0.96900  0.33260  0.73900  Biso   1.000  C
  C151     1.0000 0.96900  0.66740  0.26100  Biso   1.000  C
  C152     1.0000 0.03100  0.83260  0.26100  Biso   1.000  C
  C153     1.0000 0.53100  0.66740  0.23900  Biso   1.000  C
  C154     1.0000 0.46900  0.83260  0.23900  Biso   1.000  C
  C155     1.0000 0.46900  0.16740  0.76100  Biso   1.000  C
  C156     1.0000 0.53100  0.33260  0.76100  Biso   1.000  C
  H217     1.0000 0.94740  0.80850  0.32940  Biso   1.000  H
  H218     1.0000 0.05260  0.69150  0.32940  Biso   1.000  H
  H219     1.0000 0.05260  0.30850  0.67060  Biso   1.000  H
  H220     1.0000 0.94740  0.19150  0.67060  Biso   1.000  H
  H221     1.0000 0.44740  0.30850  0.82940  Biso   1.000  H
  H222     1.0000 0.55260  0.19150  0.82940  Biso   1.000  H
  H223     1.0000 0.55260  0.80850  0.17060  Biso   1.000  H
  H224     1.0000 0.44740  0.69150  0.17060  Biso   1.000  H
  H225     1.0000 0.05260  0.19150  0.67060  Biso   1.000  H
  H226     1.0000 0.94740  0.30850  0.67060  Biso   1.000  H
  H227     1.0000 0.94740  0.69150  0.32940  Biso   1.000  H
  H228     1.0000 0.05260  0.80850  0.32940  Biso   1.000  H
  H229     1.0000 0.55260  0.69150  0.17060  Biso   1.000  H
  H230     1.0000 0.44740  0.80850  0.17060  Biso   1.000  H
  H231     1.0000 0.44740  0.19150  0.82940  Biso   1.000  H
  H232     1.0000 0.55260  0.30850  0.82940  Biso   1.000  H
  H233     1.0000 0.94740  0.86560  0.28570  Biso   1.000  H
  H234     1.0000 0.05260  0.63440  0.28570  Biso   1.000  H
  H235     1.0000 0.05260  0.36560  0.71430  Biso   1.000  H
  H236     1.0000 0.94740  0.13440  0.71430  Biso   1.000  H
  H237     1.0000 0.44740  0.36560  0.78570  Biso   1.000  H
  H238     1.0000 0.55260  0.13440  0.78570  Biso   1.000  H
  H239     1.0000 0.55260  0.86560  0.21430  Biso   1.000  H
  H240     1.0000 0.44740  0.63440  0.21430  Biso   1.000  H
  H241     1.0000 0.05260  0.13440  0.71430  Biso   1.000  H
  H242     1.0000 0.94740  0.36560  0.71430  Biso   1.000  H
  H243     1.0000 0.94740  0.63440  0.28570  Biso   1.000  H
  H244     1.0000 0.05260  0.86560  0.28570  Biso   1.000  H
  H245     1.0000 0.55260  0.63440  0.21430  Biso   1.000  H
  H246     1.0000 0.44740  0.86560  0.21430  Biso   1.000  H
  H247     1.0000 0.44740  0.13440  0.78570  Biso   1.000  H
  H248     1.0000 0.55260  0.36560  0.78570  Biso   1.000  H
  H249     1.0000 0.94740  0.82370  0.16760  Biso   1.000  H
  H250     1.0000 0.05260  0.67630  0.16760  Biso   1.000  H
  H251     1.0000 0.05260  0.32370  0.83240  Biso   1.000  H
  H252     1.0000 0.94740  0.17630  0.83240  Biso   1.000  H
  H253     1.0000 0.44740  0.32370  0.66760  Biso   1.000  H
  H254     1.0000 0.55260  0.17630  0.66760  Biso   1.000  H
  H255     1.0000 0.55260  0.82370  0.33240  Biso   1.000  H
  H256     1.0000 0.44740  0.67630  0.33240  Biso   1.000  H
  H257     1.0000 0.05260  0.17630  0.83240  Biso   1.000  H
  H258     1.0000 0.94740  0.32370  0.83240  Biso   1.000  H
  H259     1.0000 0.94740  0.67630  0.16760  Biso   1.000  H
  H260     1.0000 0.05260  0.82370  0.16760  Biso   1.000  H
  H261     1.0000 0.55260  0.67630  0.33240  Biso   1.000  H
  H262     1.0000 0.44740  0.82370  0.33240  Biso   1.000  H
  H263     1.0000 0.44740  0.17630  0.66760  Biso   1.000  H
  H264     1.0000 0.55260  0.32370  0.66760  Biso   1.000  H
