data_image0
_cell_length_a       11.883
_cell_length_b       10.23
_cell_length_c       12.484
_cell_angle_alpha    90
_cell_angle_beta     105.33
_cell_angle_gamma    90

_symmetry_space_group_name_H-M    "P 1"
_symmetry_int_tables_number       1

loop_
  _symmetry_equiv_pos_as_xyz
  'x, y, z'

loop_
  _atom_site_label
  _atom_site_occupancy
  _atom_site_fract_x
  _atom_site_fract_y
  _atom_site_fract_z
  _atom_site_thermal_displace_type
  _atom_site_B_iso_or_equiv
  _atom_site_type_symbol
  Cu1      1.0000 0.74827  0.25755  0.28079  Biso   1.000  Cu
  Cu2      1.0000 0.25173  0.75755  0.21921  Biso   1.000  Cu
  Cu3      1.0000 0.25173  0.74245  0.71921  Biso   1.000  Cu
  Cu4      1.0000 0.74827  0.24245  0.78079  Biso   1.000  Cu
  O1       1.0000 0.68306  0.13688  0.16088  Biso   1.000  O
  O2       1.0000 0.31694  0.63688  0.33912  Biso   1.000  O
  O3       1.0000 0.31694  0.86312  0.83912  Biso   1.000  O
  O4       1.0000 0.68306  0.36312  0.66088  Biso   1.000  O
  O5       1.0000 0.82516  0.12325  0.38608  Biso   1.000  O
  O6       1.0000 0.17484  0.62325  0.11392  Biso   1.000  O
  O7       1.0000 0.17484  0.87675  0.61392  Biso   1.000  O
  O8       1.0000 0.82516  0.37675  0.88608  Biso   1.000  O
  N1       1.0000 0.71300  0.40990  0.17192  Biso   1.000  N
  N2       1.0000 0.28700  0.90990  0.32808  Biso   1.000  N
  N3       1.0000 0.28700  0.59010  0.82808  Biso   1.000  N
  N4       1.0000 0.71300  0.09010  0.67192  Biso   1.000  N
  N5       1.0000 0.80914  0.40401  0.38908  Biso   1.000  N
  N6       1.0000 0.19086  0.90401  0.11092  Biso   1.000  N
  N7       1.0000 0.19086  0.59599  0.61092  Biso   1.000  N
  N8       1.0000 0.80914  0.09599  0.88908  Biso   1.000  N
  O9       1.0000 0.52576  0.05420  0.20370  Biso   1.000  O
  O10      1.0000 0.47424  0.55420  0.29630  Biso   1.000  O
  O11      1.0000 0.47424  0.94580  0.79630  Biso   1.000  O
  O12      1.0000 0.52576  0.44580  0.70370  Biso   1.000  O
  O13      1.0000 0.96261  0.16196  0.29918  Biso   1.000  O
  O14      1.0000 0.03739  0.66196  0.20082  Biso   1.000  O
  O15      1.0000 0.03739  0.83804  0.70082  Biso   1.000  O
  O16      1.0000 0.96261  0.33804  0.79918  Biso   1.000  O
  C1       1.0000 0.66700  0.40890  0.06280  Biso   1.000  C
  C2       1.0000 0.33300  0.90890  0.43720  Biso   1.000  C
  C3       1.0000 0.33300  0.59110  0.93720  Biso   1.000  C
  C4       1.0000 0.66700  0.09110  0.56280  Biso   1.000  C
  C5       1.0000 0.64000  0.52400  0.00070  Biso   1.000  C
  C6       1.0000 0.36000  0.02400  0.49930  Biso   1.000  C
  C7       1.0000 0.36000  0.47600  0.99930  Biso   1.000  C
  C8       1.0000 0.64000  0.97600  0.50070  Biso   1.000  C
  C9       1.0000 0.65970  0.64190  0.05320  Biso   1.000  C
  C10      1.0000 0.34030  0.14190  0.44680  Biso   1.000  C
  C11      1.0000 0.34030  0.35810  0.94680  Biso   1.000  C
  C12      1.0000 0.65970  0.85810  0.55320  Biso   1.000  C
  C13      1.0000 0.71172  0.64710  0.16878  Biso   1.000  C
  C14      1.0000 0.28828  0.14710  0.33122  Biso   1.000  C
  C15      1.0000 0.28828  0.35290  0.83122  Biso   1.000  C
  C16      1.0000 0.71172  0.85290  0.66878  Biso   1.000  C
  C17      1.0000 0.73960  0.76470  0.23150  Biso   1.000  C
  C18      1.0000 0.26040  0.26470  0.26850  Biso   1.000  C
  C19      1.0000 0.26040  0.23530  0.76850  Biso   1.000  C
  C20      1.0000 0.73960  0.73530  0.73150  Biso   1.000  C
  C21      1.0000 0.79000  0.76180  0.34280  Biso   1.000  C
  C22      1.0000 0.21000  0.26180  0.15720  Biso   1.000  C
  C23      1.0000 0.21000  0.23820  0.65720  Biso   1.000  C
  C24      1.0000 0.79000  0.73820  0.84280  Biso   1.000  C
  C25      1.0000 0.81622  0.64080  0.40118  Biso   1.000  C
  C26      1.0000 0.18378  0.14080  0.09882  Biso   1.000  C
  C27      1.0000 0.18378  0.35920  0.59882  Biso   1.000  C
  C28      1.0000 0.81622  0.85920  0.90118  Biso   1.000  C
  C29      1.0000 0.86710  0.62940  0.51650  Biso   1.000  C
  C30      1.0000 0.13290  0.12940  0.98350  Biso   1.000  C
  C31      1.0000 0.13290  0.37060  0.48350  Biso   1.000  C
  C32      1.0000 0.86710  0.87060  0.01650  Biso   1.000  C
  C33      1.0000 0.88580  0.50830  0.56406  Biso   1.000  C
  C34      1.0000 0.11420  0.00830  0.93594  Biso   1.000  C
  C35      1.0000 0.11420  0.49170  0.43594  Biso   1.000  C
  C36      1.0000 0.88580  0.99170  0.06406  Biso   1.000  C
  C37      1.0000 0.85551  0.39720  0.49825  Biso   1.000  C
  C38      1.0000 0.14449  0.89720  0.00175  Biso   1.000  C
  C39      1.0000 0.14449  0.60280  0.50175  Biso   1.000  C
  C40      1.0000 0.85551  0.10280  0.99825  Biso   1.000  C
  C41      1.0000 0.78895  0.52360  0.34160  Biso   1.000  C
  C42      1.0000 0.21105  0.02360  0.15840  Biso   1.000  C
  C43      1.0000 0.21105  0.47640  0.65840  Biso   1.000  C
  C44      1.0000 0.78895  0.97640  0.84160  Biso   1.000  C
  C45      1.0000 0.73682  0.52750  0.22399  Biso   1.000  C
  C46      1.0000 0.26318  0.02750  0.27601  Biso   1.000  C
  C47      1.0000 0.26318  0.47250  0.77601  Biso   1.000  C
  C48      1.0000 0.73682  0.97250  0.72399  Biso   1.000  C
  C49      1.0000 0.58828  0.07280  0.13942  Biso   1.000  C
  C50      1.0000 0.41172  0.57280  0.36058  Biso   1.000  C
  C51      1.0000 0.41172  0.92720  0.86058  Biso   1.000  C
  C52      1.0000 0.58828  0.42720  0.63942  Biso   1.000  C
  C53      1.0000 0.55346  0.01820  0.02496  Biso   1.000  C
  C54      1.0000 0.44654  0.51820  0.47504  Biso   1.000  C
  C55      1.0000 0.44654  0.98180  0.97504  Biso   1.000  C
  C56      1.0000 0.55346  0.48180  0.52496  Biso   1.000  C
  C57      1.0000 0.92697  0.10690  0.37194  Biso   1.000  C
  C58      1.0000 0.07303  0.60690  0.12806  Biso   1.000  C
  C59      1.0000 0.07303  0.89310  0.62806  Biso   1.000  C
  C60      1.0000 0.92697  0.39310  0.87194  Biso   1.000  C
  C61      1.0000 0.00780  0.01840  0.45210  Biso   1.000  C
  C62      1.0000 0.99220  0.51840  0.04790  Biso   1.000  C
  C63      1.0000 0.99220  0.98160  0.54790  Biso   1.000  C
  C64      1.0000 0.00780  0.48160  0.95210  Biso   1.000  C
  O17      1.0000 0.57160  0.27810  0.33139  Biso   1.000  O
  O18      1.0000 0.42840  0.77810  0.16861  Biso   1.000  O
  O19      1.0000 0.42840  0.72190  0.66861  Biso   1.000  O
  O20      1.0000 0.57160  0.22190  0.83139  Biso   1.000  O
  H1       1.0000 0.53300  0.22800  0.29100  Biso   1.000  H
  H2       1.0000 0.46700  0.72800  0.20900  Biso   1.000  H
  H3       1.0000 0.46700  0.77200  0.70900  Biso   1.000  H
  H4       1.0000 0.53300  0.27200  0.79100  Biso   1.000  H
  H5       1.0000 0.54200  0.34100  0.30600  Biso   1.000  H
  H6       1.0000 0.45800  0.84100  0.19400  Biso   1.000  H
  H7       1.0000 0.45800  0.65900  0.69400  Biso   1.000  H
  H8       1.0000 0.54200  0.15900  0.80600  Biso   1.000  H
  H9       1.0000 0.65500  0.32900  0.03200  Biso   1.000  H
  H10      1.0000 0.34500  0.82900  0.46800  Biso   1.000  H
  H11      1.0000 0.34500  0.67100  0.96800  Biso   1.000  H
  H12      1.0000 0.65500  0.17100  0.53200  Biso   1.000  H
  H13      1.0000 0.61000  0.51600  0.92800  Biso   1.000  H
  H14      1.0000 0.39000  0.01600  0.57200  Biso   1.000  H
  H15      1.0000 0.39000  0.48400  0.07200  Biso   1.000  H
  H16      1.0000 0.61000  0.98400  0.42800  Biso   1.000  H
  H17      1.0000 0.64200  0.71800  0.01600  Biso   1.000  H
  H18      1.0000 0.35800  0.21800  0.48400  Biso   1.000  H
  H19      1.0000 0.35800  0.28200  0.98400  Biso   1.000  H
  H20      1.0000 0.64200  0.78200  0.51600  Biso   1.000  H
  H21      1.0000 0.72500  0.83800  0.19700  Biso   1.000  H
  H22      1.0000 0.27500  0.33800  0.30300  Biso   1.000  H
  H23      1.0000 0.27500  0.16200  0.80300  Biso   1.000  H
  H24      1.0000 0.72500  0.66200  0.69700  Biso   1.000  H
  H25      1.0000 0.81000  0.83300  0.38000  Biso   1.000  H
  H26      1.0000 0.19000  0.33300  0.12000  Biso   1.000  H
  H27      1.0000 0.19000  0.16700  0.62000  Biso   1.000  H
  H28      1.0000 0.81000  0.66700  0.88000  Biso   1.000  H
  H29      1.0000 0.88500  0.69600  0.55700  Biso   1.000  H
  H30      1.0000 0.11500  0.19600  0.94300  Biso   1.000  H
  H31      1.0000 0.11500  0.30400  0.44300  Biso   1.000  H
  H32      1.0000 0.88500  0.80400  0.05700  Biso   1.000  H
  H33      1.0000 0.91900  0.50100  0.64100  Biso   1.000  H
  H34      1.0000 0.08100  0.00100  0.85900  Biso   1.000  H
  H35      1.0000 0.08100  0.49900  0.35900  Biso   1.000  H
  H36      1.0000 0.91900  0.99900  0.14100  Biso   1.000  H
  H37      1.0000 0.86700  0.31300  0.52900  Biso   1.000  H
  H38      1.0000 0.13300  0.81300  0.97100  Biso   1.000  H
  H39      1.0000 0.13300  0.68700  0.47100  Biso   1.000  H
  H40      1.0000 0.86700  0.18700  0.02900  Biso   1.000  H
  H41      1.0000 0.61300  0.01000  0.99000  Biso   1.000  H
  H42      1.0000 0.38700  0.51000  0.51000  Biso   1.000  H
  H43      1.0000 0.38700  0.99000  0.01000  Biso   1.000  H
  H44      1.0000 0.61300  0.49000  0.49000  Biso   1.000  H
  H45      1.0000 0.07400  0.98900  0.43200  Biso   1.000  H
  H46      1.0000 0.92600  0.48900  0.06800  Biso   1.000  H
  H47      1.0000 0.92600  0.01100  0.56800  Biso   1.000  H
  H48      1.0000 0.07400  0.51100  0.93200  Biso   1.000  H
