data_image0
_cell_length_a       27.8
_cell_length_b       13.16
_cell_length_c       9.91
_cell_angle_alpha    90
_cell_angle_beta     107.27
_cell_angle_gamma    90

_symmetry_space_group_name_H-M    "P 1"
_symmetry_int_tables_number       1

loop_
  _symmetry_equiv_pos_as_xyz
  'x, y, z'

loop_
  _atom_site_label
  _atom_site_occupancy
  _atom_site_fract_x
  _atom_site_fract_y
  _atom_site_fract_z
  _atom_site_thermal_displace_type
  _atom_site_B_iso_or_equiv
  _atom_site_type_symbol
  Cu1      1.0000 0.21402  0.00000  0.18530  Biso   1.000  Cu
  Cu2      1.0000 0.71402  0.50000  0.18530  Biso   1.000  Cu
  Cu3      1.0000 0.78598  0.00000  0.81470  Biso   1.000  Cu
  Cu4      1.0000 0.28598  0.50000  0.81470  Biso   1.000  Cu
  Cu5      1.0000 0.12562  0.00000  0.31900  Biso   1.000  Cu
  Cu6      1.0000 0.62562  0.50000  0.31900  Biso   1.000  Cu
  Cu7      1.0000 0.87438  0.00000  0.68100  Biso   1.000  Cu
  Cu8      1.0000 0.37438  0.50000  0.68100  Biso   1.000  Cu
  N1       1.0000 0.19260  0.90210  0.02690  Biso   1.000  N
  N2       1.0000 0.69260  0.40210  0.02690  Biso   1.000  N
  N3       1.0000 0.80740  0.90210  0.97310  Biso   1.000  N
  N4       1.0000 0.30740  0.40210  0.97310  Biso   1.000  N
  N5       1.0000 0.80740  0.09790  0.97310  Biso   1.000  N
  N6       1.0000 0.30740  0.59790  0.97310  Biso   1.000  N
  N7       1.0000 0.19260  0.09790  0.02690  Biso   1.000  N
  N8       1.0000 0.69260  0.59790  0.02690  Biso   1.000  N
  C1       1.0000 0.17730  0.94730  0.89420  Biso   1.000  C
  C2       1.0000 0.67730  0.44730  0.89420  Biso   1.000  C
  C3       1.0000 0.82270  0.94730  0.10580  Biso   1.000  C
  C4       1.0000 0.32270  0.44730  0.10580  Biso   1.000  C
  C5       1.0000 0.82270  0.05270  0.10580  Biso   1.000  C
  C6       1.0000 0.32270  0.55270  0.10580  Biso   1.000  C
  C7       1.0000 0.17730  0.05270  0.89420  Biso   1.000  C
  C8       1.0000 0.67730  0.55270  0.89420  Biso   1.000  C
  C9       1.0000 0.16120  0.88730  0.77370  Biso   1.000  C
  C10      1.0000 0.66120  0.38730  0.77370  Biso   1.000  C
  C11      1.0000 0.83880  0.88730  0.22630  Biso   1.000  C
  C12      1.0000 0.33880  0.38730  0.22630  Biso   1.000  C
  C13      1.0000 0.83880  0.11270  0.22630  Biso   1.000  C
  C14      1.0000 0.33880  0.61270  0.22630  Biso   1.000  C
  C15      1.0000 0.16120  0.11270  0.77370  Biso   1.000  C
  C16      1.0000 0.66120  0.61270  0.77370  Biso   1.000  C
  C17      1.0000 0.16040  0.78210  0.78600  Biso   1.000  C
  C18      1.0000 0.66040  0.28210  0.78600  Biso   1.000  C
  C19      1.0000 0.83960  0.78210  0.21400  Biso   1.000  C
  C20      1.0000 0.33960  0.28210  0.21400  Biso   1.000  C
  C21      1.0000 0.83960  0.21790  0.21400  Biso   1.000  C
  C22      1.0000 0.33960  0.71790  0.21400  Biso   1.000  C
  C23      1.0000 0.16040  0.21790  0.78600  Biso   1.000  C
  C24      1.0000 0.66040  0.71790  0.78600  Biso   1.000  C
  C25      1.0000 0.17570  0.73700  0.91870  Biso   1.000  C
  C26      1.0000 0.67570  0.23700  0.91870  Biso   1.000  C
  C27      1.0000 0.82430  0.73700  0.08130  Biso   1.000  C
  C28      1.0000 0.32430  0.23700  0.08130  Biso   1.000  C
  C29      1.0000 0.82430  0.26300  0.08130  Biso   1.000  C
  C30      1.0000 0.32430  0.76300  0.08130  Biso   1.000  C
  C31      1.0000 0.17570  0.26300  0.91870  Biso   1.000  C
  C32      1.0000 0.67570  0.76300  0.91870  Biso   1.000  C
  C33      1.0000 0.19180  0.79700  0.03920  Biso   1.000  C
  C34      1.0000 0.69180  0.29700  0.03920  Biso   1.000  C
  C35      1.0000 0.80820  0.79700  0.96080  Biso   1.000  C
  C36      1.0000 0.30820  0.29700  0.96080  Biso   1.000  C
  C37      1.0000 0.80820  0.20300  0.96080  Biso   1.000  C
  C38      1.0000 0.30820  0.70300  0.96080  Biso   1.000  C
  C39      1.0000 0.19180  0.20300  0.03920  Biso   1.000  C
  C40      1.0000 0.69180  0.70300  0.03920  Biso   1.000  C
  N9       1.0000 0.09140  0.90060  0.16680  Biso   1.000  N
  N10      1.0000 0.59140  0.40060  0.16680  Biso   1.000  N
  N11      1.0000 0.90860  0.90060  0.83320  Biso   1.000  N
  N12      1.0000 0.40860  0.40060  0.83320  Biso   1.000  N
  N13      1.0000 0.90860  0.09940  0.83320  Biso   1.000  N
  N14      1.0000 0.40860  0.59940  0.83320  Biso   1.000  N
  N15      1.0000 0.09140  0.09940  0.16680  Biso   1.000  N
  N16      1.0000 0.59140  0.59940  0.16680  Biso   1.000  N
  C41      1.0000 0.06980  0.94530  0.03560  Biso   1.000  C
  C42      1.0000 0.56980  0.44530  0.03560  Biso   1.000  C
  C43      1.0000 0.93020  0.94530  0.96440  Biso   1.000  C
  C44      1.0000 0.43020  0.44530  0.96440  Biso   1.000  C
  C45      1.0000 0.93020  0.05470  0.96440  Biso   1.000  C
  C46      1.0000 0.43020  0.55470  0.96440  Biso   1.000  C
  C47      1.0000 0.06980  0.05470  0.03560  Biso   1.000  C
  C48      1.0000 0.56980  0.55470  0.03560  Biso   1.000  C
  C49      1.0000 0.04920  0.88480  0.91760  Biso   1.000  C
  C50      1.0000 0.54920  0.38480  0.91760  Biso   1.000  C
  C51      1.0000 0.95080  0.88480  0.08240  Biso   1.000  C
  C52      1.0000 0.45080  0.38480  0.08240  Biso   1.000  C
  C53      1.0000 0.95080  0.11520  0.08240  Biso   1.000  C
  C54      1.0000 0.45080  0.61520  0.08240  Biso   1.000  C
  C55      1.0000 0.04920  0.11520  0.91760  Biso   1.000  C
  C56      1.0000 0.54920  0.61520  0.91760  Biso   1.000  C
  C57      1.0000 0.05020  0.77960  0.93080  Biso   1.000  C
  C58      1.0000 0.55020  0.27960  0.93080  Biso   1.000  C
  C59      1.0000 0.94980  0.77960  0.06920  Biso   1.000  C
  C60      1.0000 0.44980  0.27960  0.06920  Biso   1.000  C
  C61      1.0000 0.94980  0.22040  0.06920  Biso   1.000  C
  C62      1.0000 0.44980  0.72040  0.06920  Biso   1.000  C
  C63      1.0000 0.05020  0.22040  0.93080  Biso   1.000  C
  C64      1.0000 0.55020  0.72040  0.93080  Biso   1.000  C
  C65      1.0000 0.07170  0.73490  0.06200  Biso   1.000  C
  C66      1.0000 0.57170  0.23490  0.06200  Biso   1.000  C
  C67      1.0000 0.92830  0.73490  0.93800  Biso   1.000  C
  C68      1.0000 0.42830  0.23490  0.93800  Biso   1.000  C
  C69      1.0000 0.92830  0.26510  0.93800  Biso   1.000  C
  C70      1.0000 0.42830  0.76510  0.93800  Biso   1.000  C
  C71      1.0000 0.07170  0.26510  0.06200  Biso   1.000  C
  C72      1.0000 0.57170  0.76510  0.06200  Biso   1.000  C
  C73      1.0000 0.09240  0.79540  0.18000  Biso   1.000  C
  C74      1.0000 0.59240  0.29540  0.18000  Biso   1.000  C
  C75      1.0000 0.90760  0.79540  0.82000  Biso   1.000  C
  C76      1.0000 0.40760  0.29540  0.82000  Biso   1.000  C
  C77      1.0000 0.90760  0.20460  0.82000  Biso   1.000  C
  C78      1.0000 0.40760  0.70460  0.82000  Biso   1.000  C
  C79      1.0000 0.09240  0.20460  0.18000  Biso   1.000  C
  C80      1.0000 0.59240  0.70460  0.18000  Biso   1.000  C
  O1       1.0000 0.22600  0.10980  0.32560  Biso   1.000  O
  O2       1.0000 0.72600  0.60980  0.32560  Biso   1.000  O
  O3       1.0000 0.77400  0.10980  0.67440  Biso   1.000  O
  O4       1.0000 0.27400  0.60980  0.67440  Biso   1.000  O
  O5       1.0000 0.77400  0.89020  0.67440  Biso   1.000  O
  O6       1.0000 0.27400  0.39020  0.67440  Biso   1.000  O
  O7       1.0000 0.22600  0.89020  0.32560  Biso   1.000  O
  O8       1.0000 0.72600  0.39020  0.32560  Biso   1.000  O
  O9       1.0000 0.16720  0.10600  0.43450  Biso   1.000  O
  O10      1.0000 0.66720  0.60600  0.43450  Biso   1.000  O
  O11      1.0000 0.83280  0.10600  0.56550  Biso   1.000  O
  O12      1.0000 0.33280  0.60600  0.56550  Biso   1.000  O
  O13      1.0000 0.83280  0.89400  0.56550  Biso   1.000  O
  O14      1.0000 0.33280  0.39400  0.56550  Biso   1.000  O
  O15      1.0000 0.16720  0.89400  0.43450  Biso   1.000  O
  O16      1.0000 0.66720  0.39400  0.43450  Biso   1.000  O
  O17      1.0000 0.29590  0.00000  0.20000  Biso   1.000  O
  O18      1.0000 0.79590  0.50000  0.20000  Biso   1.000  O
  O19      1.0000 0.70410  0.00000  0.80000  Biso   1.000  O
  O20      1.0000 0.20410  0.50000  0.80000  Biso   1.000  O
  O21      1.0000 0.07060  0.00000  0.44100  Biso   1.000  O
  O22      1.0000 0.57060  0.50000  0.44100  Biso   1.000  O
  O23      1.0000 0.92940  0.00000  0.55900  Biso   1.000  O
  O24      1.0000 0.42940  0.50000  0.55900  Biso   1.000  O
  C81      1.0000 0.20660  0.13880  0.41300  Biso   1.000  C
  C82      1.0000 0.70660  0.63880  0.41300  Biso   1.000  C
  C83      1.0000 0.79340  0.13880  0.58700  Biso   1.000  C
  C84      1.0000 0.29340  0.63880  0.58700  Biso   1.000  C
  C85      1.0000 0.79340  0.86120  0.58700  Biso   1.000  C
  C86      1.0000 0.29340  0.36120  0.58700  Biso   1.000  C
  C87      1.0000 0.20660  0.86120  0.41300  Biso   1.000  C
  C88      1.0000 0.70660  0.36120  0.41300  Biso   1.000  C
  C89      1.0000 0.23180  0.22580  0.51000  Biso   1.000  C
  C90      1.0000 0.73180  0.72580  0.51000  Biso   1.000  C
  C91      1.0000 0.76820  0.22580  0.49000  Biso   1.000  C
  C92      1.0000 0.26820  0.72580  0.49000  Biso   1.000  C
  C93      1.0000 0.76820  0.77420  0.49000  Biso   1.000  C
  C94      1.0000 0.26820  0.27420  0.49000  Biso   1.000  C
  C95      1.0000 0.23180  0.77420  0.51000  Biso   1.000  C
  C96      1.0000 0.73180  0.27420  0.51000  Biso   1.000  C
  Cl1      1.0000 0.31330  0.00000  0.79340  Biso   1.000  Cl
  Cl2      1.0000 0.81330  0.50000  0.79340  Biso   1.000  Cl
  Cl3      1.0000 0.68670  0.00000  0.20660  Biso   1.000  Cl
  Cl4      1.0000 0.18670  0.50000  0.20660  Biso   1.000  Cl
  O25      1.0000 0.33200  0.91600  0.75300  Biso   1.000  O
  O26      1.0000 0.83200  0.41600  0.75300  Biso   1.000  O
  O27      1.0000 0.66800  0.91600  0.24700  Biso   1.000  O
  O28      1.0000 0.16800  0.41600  0.24700  Biso   1.000  O
  O29      1.0000 0.66800  0.08400  0.24700  Biso   1.000  O
  O30      1.0000 0.16800  0.58400  0.24700  Biso   1.000  O
  O31      1.0000 0.33200  0.08400  0.75300  Biso   1.000  O
  O32      1.0000 0.83200  0.58400  0.75300  Biso   1.000  O
  O33      1.0000 0.27200  0.00000  0.83500  Biso   1.000  O
  O34      1.0000 0.77200  0.50000  0.83500  Biso   1.000  O
  O35      1.0000 0.72800  0.00000  0.16500  Biso   1.000  O
  O36      1.0000 0.22800  0.50000  0.16500  Biso   1.000  O
  O37      1.0000 0.34800  0.00000  0.93300  Biso   1.000  O
  O38      1.0000 0.84800  0.50000  0.93300  Biso   1.000  O
  O39      1.0000 0.65200  0.00000  0.06700  Biso   1.000  O
  O40      1.0000 0.15200  0.50000  0.06700  Biso   1.000  O
  Cl5      1.0000 0.00000  0.22790  0.50000  Biso   1.000  Cl
  Cl6      1.0000 0.50000  0.72790  0.50000  Biso   1.000  Cl
  Cl7      1.0000 0.00000  0.77210  0.50000  Biso   1.000  Cl
  Cl8      1.0000 0.50000  0.27210  0.50000  Biso   1.000  Cl
  O41      1.0000 0.01900  0.30700  0.60200  Biso   1.000  O
  O42      1.0000 0.51900  0.80700  0.60200  Biso   1.000  O
  O43      1.0000 0.98100  0.30700  0.39800  Biso   1.000  O
  O44      1.0000 0.48100  0.80700  0.39800  Biso   1.000  O
  O45      1.0000 0.98100  0.69300  0.39800  Biso   1.000  O
  O46      1.0000 0.48100  0.19300  0.39800  Biso   1.000  O
  O47      1.0000 0.01900  0.69300  0.60200  Biso   1.000  O
  O48      1.0000 0.51900  0.19300  0.60200  Biso   1.000  O
  O49      1.0000 0.02470  0.13300  0.58800  Biso   1.000  O
  O50      1.0000 0.52470  0.63300  0.58800  Biso   1.000  O
  O51      1.0000 0.97530  0.13300  0.41200  Biso   1.000  O
  O52      1.0000 0.47530  0.63300  0.41200  Biso   1.000  O
  O53      1.0000 0.97530  0.86700  0.41200  Biso   1.000  O
  O54      1.0000 0.47530  0.36700  0.41200  Biso   1.000  O
  O55      1.0000 0.02470  0.86700  0.58800  Biso   1.000  O
  O56      1.0000 0.52470  0.36700  0.58800  Biso   1.000  O
  O57      1.0000 0.94700  0.21900  0.43200  Biso   1.000  O
  O58      1.0000 0.44700  0.71900  0.43200  Biso   1.000  O
  O59      1.0000 0.05300  0.21900  0.56800  Biso   1.000  O
  O60      1.0000 0.55300  0.71900  0.56800  Biso   1.000  O
  O61      1.0000 0.05300  0.78100  0.56800  Biso   1.000  O
  O62      1.0000 0.55300  0.28100  0.56800  Biso   1.000  O
  O63      1.0000 0.94700  0.78100  0.43200  Biso   1.000  O
  O64      1.0000 0.44700  0.28100  0.43200  Biso   1.000  O
  O65      1.0000 0.03300  0.25500  0.41800  Biso   1.000  O
  O66      1.0000 0.53300  0.75500  0.41800  Biso   1.000  O
  O67      1.0000 0.96700  0.25500  0.58200  Biso   1.000  O
  O68      1.0000 0.46700  0.75500  0.58200  Biso   1.000  O
  O69      1.0000 0.96700  0.74500  0.58200  Biso   1.000  O
  O70      1.0000 0.46700  0.24500  0.58200  Biso   1.000  O
  O71      1.0000 0.03300  0.74500  0.41800  Biso   1.000  O
  O72      1.0000 0.53300  0.24500  0.41800  Biso   1.000  O
