data_image0
_cell_length_a       11.6894
_cell_length_b       13.4533
_cell_length_c       7.3518
_cell_angle_alpha    90
_cell_angle_beta     92.242
_cell_angle_gamma    90

_symmetry_space_group_name_H-M    "P 1"
_symmetry_int_tables_number       1

loop_
  _symmetry_equiv_pos_as_xyz
  'x, y, z'

loop_
  _atom_site_label
  _atom_site_occupancy
  _atom_site_fract_x
  _atom_site_fract_y
  _atom_site_fract_z
  _atom_site_thermal_displace_type
  _atom_site_B_iso_or_equiv
  _atom_site_type_symbol
  Cu1      1.0000 0.00000  0.50000  0.50000  Biso   1.000  Cu
  Cu2      1.0000 0.00000  0.00000  0.00000  Biso   1.000  Cu
  O1       1.0000 0.36910  0.50800  0.86380  Biso   1.000  O
  O2       1.0000 0.63090  0.00800  0.63620  Biso   1.000  O
  O3       1.0000 0.63090  0.49200  0.13620  Biso   1.000  O
  O4       1.0000 0.36910  0.99200  0.36380  Biso   1.000  O
  N1       1.0000 0.39270  0.54220  0.16300  Biso   1.000  N
  N2       1.0000 0.60730  0.04220  0.33700  Biso   1.000  N
  N3       1.0000 0.60730  0.45780  0.83700  Biso   1.000  N
  N4       1.0000 0.39270  0.95780  0.66300  Biso   1.000  N
  C1       1.0000 0.20870  0.56160  0.01490  Biso   1.000  C
  C2       1.0000 0.79130  0.06160  0.48510  Biso   1.000  C
  C3       1.0000 0.79130  0.43840  0.98510  Biso   1.000  C
  C4       1.0000 0.20870  0.93840  0.51490  Biso   1.000  C
  H1       1.0000 0.45000  0.52600  0.16100  Biso   1.000  H
  H2       1.0000 0.55000  0.02600  0.33900  Biso   1.000  H
  H3       1.0000 0.55000  0.47400  0.83900  Biso   1.000  H
  H4       1.0000 0.45000  0.97400  0.66100  Biso   1.000  H
  N5       1.0000 0.08950  0.54300  0.72100  Biso   1.000  N
  N6       1.0000 0.91050  0.04300  0.77900  Biso   1.000  N
  N7       1.0000 0.91050  0.45700  0.27900  Biso   1.000  N
  N8       1.0000 0.08950  0.95700  0.22100  Biso   1.000  N
  C5       1.0000 0.14210  0.55270  0.85570  Biso   1.000  C
  C6       1.0000 0.85790  0.05270  0.64430  Biso   1.000  C
  C7       1.0000 0.85790  0.44730  0.14430  Biso   1.000  C
  C8       1.0000 0.14210  0.94730  0.35570  Biso   1.000  C
  H5       1.0000 0.36700  0.56500  0.26800  Biso   1.000  H
  H6       1.0000 0.63300  0.06500  0.23200  Biso   1.000  H
  H7       1.0000 0.63300  0.43500  0.73200  Biso   1.000  H
  H8       1.0000 0.36700  0.93500  0.76800  Biso   1.000  H
  N9       1.0000 0.11290  0.61310  0.30850  Biso   1.000  N
  N10      1.0000 0.88710  0.11310  0.19150  Biso   1.000  N
  N11      1.0000 0.88710  0.38690  0.69150  Biso   1.000  N
  N12      1.0000 0.11290  0.88690  0.80850  Biso   1.000  N
  C9       1.0000 0.15490  0.59070  0.17510  Biso   1.000  C
  C10      1.0000 0.84510  0.09070  0.32490  Biso   1.000  C
  C11      1.0000 0.84510  0.40930  0.82490  Biso   1.000  C
  C12      1.0000 0.15490  0.90930  0.67510  Biso   1.000  C
  N13      1.0000 0.11030  0.38760  0.46450  Biso   1.000  N
  N14      1.0000 0.88970  0.88760  0.03550  Biso   1.000  N
  N15      1.0000 0.88970  0.61240  0.53550  Biso   1.000  N
  N16      1.0000 0.11030  0.11240  0.96450  Biso   1.000  N
  C13      1.0000 0.32860  0.53630  0.01200  Biso   1.000  C
  C14      1.0000 0.67140  0.03630  0.48800  Biso   1.000  C
  C15      1.0000 0.67140  0.46370  0.98800  Biso   1.000  C
  C16      1.0000 0.32860  0.96370  0.51200  Biso   1.000  C
  C17      1.0000 0.22400  0.40240  0.47560  Biso   1.000  C
  C18      1.0000 0.77600  0.90240  0.02440  Biso   1.000  C
  C19      1.0000 0.77600  0.59760  0.52440  Biso   1.000  C
  C20      1.0000 0.22400  0.09760  0.97560  Biso   1.000  C
  H9       1.0000 0.25180  0.46760  0.50000  Biso   1.000  H
  H10      1.0000 0.74820  0.96760  0.00000  Biso   1.000  H
  H11      1.0000 0.74820  0.53240  0.50000  Biso   1.000  H
  H12      1.0000 0.25180  0.03240  0.00000  Biso   1.000  H
  C21      1.0000 0.30210  0.32710  0.45330  Biso   1.000  C
  C22      1.0000 0.69790  0.82710  0.04670  Biso   1.000  C
  C23      1.0000 0.69790  0.67290  0.54670  Biso   1.000  C
  C24      1.0000 0.30210  0.17290  0.95330  Biso   1.000  C
  H13      1.0000 0.38190  0.34060  0.46090  Biso   1.000  H
  H14      1.0000 0.61810  0.84060  0.03910  Biso   1.000  H
  H15      1.0000 0.61810  0.65940  0.53910  Biso   1.000  H
  H16      1.0000 0.38190  0.15940  0.96090  Biso   1.000  H
  C25      1.0000 0.26270  0.23190  0.41960  Biso   1.000  C
  C26      1.0000 0.73730  0.73190  0.08040  Biso   1.000  C
  C27      1.0000 0.73730  0.76810  0.58040  Biso   1.000  C
  C28      1.0000 0.26270  0.26810  0.91960  Biso   1.000  C
  H17      1.0000 0.31460  0.17860  0.40390  Biso   1.000  H
  H18      1.0000 0.68540  0.67860  0.09610  Biso   1.000  H
  H19      1.0000 0.68540  0.82140  0.59610  Biso   1.000  H
  H20      1.0000 0.31460  0.32140  0.90390  Biso   1.000  H
  C29      1.0000 0.14630  0.21610  0.40940  Biso   1.000  C
  C30      1.0000 0.85370  0.71610  0.09060  Biso   1.000  C
  C31      1.0000 0.85370  0.78390  0.59060  Biso   1.000  C
  C32      1.0000 0.14630  0.28390  0.90940  Biso   1.000  C
  H21      1.0000 0.11690  0.15120  0.38690  Biso   1.000  H
  H22      1.0000 0.88310  0.65120  0.11310  Biso   1.000  H
  H23      1.0000 0.88310  0.84880  0.61310  Biso   1.000  H
  H24      1.0000 0.11690  0.34880  0.88690  Biso   1.000  H
  C33      1.0000 0.07270  0.29450  0.43170  Biso   1.000  C
  C34      1.0000 0.92730  0.79450  0.06830  Biso   1.000  C
  C35      1.0000 0.92730  0.70550  0.56830  Biso   1.000  C
  C36      1.0000 0.07270  0.20550  0.93170  Biso   1.000  C
  H25      1.0000 0.99250  0.28250  0.42370  Biso   1.000  H
  H26      1.0000 0.00750  0.78250  0.07630  Biso   1.000  H
  H27      1.0000 0.00750  0.71750  0.57630  Biso   1.000  H
  H28      1.0000 0.99250  0.21750  0.92370  Biso   1.000  H
  H29      1.0000 0.38800  0.57800  0.62800  Biso   1.000  H
  H30      1.0000 0.61200  0.07800  0.87200  Biso   1.000  H
  H31      1.0000 0.61200  0.42200  0.37200  Biso   1.000  H
  H32      1.0000 0.38800  0.92200  0.12800  Biso   1.000  H
  O5       1.0000 0.39020  0.60790  0.53970  Biso   1.000  O
  O6       1.0000 0.60980  0.10790  0.96030  Biso   1.000  O
  O7       1.0000 0.60980  0.39210  0.46030  Biso   1.000  O
  O8       1.0000 0.39020  0.89210  0.03970  Biso   1.000  O
  C37      1.0000 0.35760  0.70620  0.58010  Biso   1.000  C
  C38      1.0000 0.64240  0.20620  0.91990  Biso   1.000  C
  C39      1.0000 0.64240  0.29380  0.41990  Biso   1.000  C
  C40      1.0000 0.35760  0.79380  0.08010  Biso   1.000  C
  H33      1.0000 0.34910  0.74450  0.46710  Biso   1.000  H
  H34      1.0000 0.65090  0.24450  0.03290  Biso   1.000  H
  H35      1.0000 0.65090  0.25550  0.53290  Biso   1.000  H
  H36      1.0000 0.34910  0.75550  0.96710  Biso   1.000  H
  H37      1.0000 0.41640  0.73700  0.66030  Biso   1.000  H
  H38      1.0000 0.58360  0.23700  0.83970  Biso   1.000  H
  H39      1.0000 0.58360  0.26300  0.33970  Biso   1.000  H
  H40      1.0000 0.41640  0.76300  0.16030  Biso   1.000  H
  H41      1.0000 0.28450  0.70530  0.64120  Biso   1.000  H
  H42      1.0000 0.71550  0.20530  0.85880  Biso   1.000  H
  H43      1.0000 0.71550  0.29470  0.35880  Biso   1.000  H
  H44      1.0000 0.28450  0.79470  0.14120  Biso   1.000  H
