data_image0
_cell_length_a       7.4603
_cell_length_b       9.4137
_cell_length_c       10.6183
_cell_angle_alpha    96.075
_cell_angle_beta     109.018
_cell_angle_gamma    107.646

_symmetry_space_group_name_H-M    "P 1"
_symmetry_int_tables_number       1

loop_
  _symmetry_equiv_pos_as_xyz
  'x, y, z'

loop_
  _atom_site_label
  _atom_site_occupancy
  _atom_site_fract_x
  _atom_site_fract_y
  _atom_site_fract_z
  _atom_site_thermal_displace_type
  _atom_site_B_iso_or_equiv
  _atom_site_type_symbol
  Cu1      1.0000 0.00000  0.00000  0.00000  Biso   1.000  Cu
  O1       1.0000 0.01930  0.41990  0.34921  Biso   1.000  O
  O2       1.0000 0.98070  0.58010  0.65079  Biso   1.000  O
  N1       1.0000 0.73920  0.45790  0.35770  Biso   1.000  N
  N2       1.0000 0.26080  0.54210  0.64230  Biso   1.000  N
  C1       1.0000 0.71510  0.29580  0.15740  Biso   1.000  C
  C2       1.0000 0.28490  0.70420  0.84260  Biso   1.000  C
  H1       1.0000 0.62700  0.45300  0.32200  Biso   1.000  H
  H2       1.0000 0.37300  0.54700  0.67800  Biso   1.000  H
  N3       1.0000 0.89180  0.16050  0.04540  Biso   1.000  N
  N4       1.0000 0.10820  0.83950  0.95460  Biso   1.000  N
  C3       1.0000 0.81240  0.22220  0.09710  Biso   1.000  C
  C4       1.0000 0.18760  0.77780  0.90290  Biso   1.000  C
  H3       1.0000 0.79600  0.50200  0.44700  Biso   1.000  H
  H4       1.0000 0.20400  0.49800  0.55300  Biso   1.000  H
  N5       1.0000 0.32730  0.20020  0.04750  Biso   1.000  N
  N6       1.0000 0.67270  0.79980  0.95250  Biso   1.000  N
  C5       1.0000 0.50170  0.24480  0.09730  Biso   1.000  C
  C6       1.0000 0.49830  0.75520  0.90270  Biso   1.000  C
  N7       1.0000 0.09130  0.98550  0.19660  Biso   1.000  N
  N8       1.0000 0.90870  0.01450  0.80340  Biso   1.000  N
  C7       1.0000 0.83370  0.39620  0.29360  Biso   1.000  C
  C8       1.0000 0.16630  0.60380  0.70640  Biso   1.000  C
  C9       1.0000 0.20330  0.10990  0.30030  Biso   1.000  C
  C10      1.0000 0.79670  0.89010  0.69970  Biso   1.000  C
  H5       1.0000 0.23950  0.20770  0.27920  Biso   1.000  H
  H6       1.0000 0.76050  0.79230  0.72080  Biso   1.000  H
  C11      1.0000 0.26750  0.10130  0.43580  Biso   1.000  C
  C12      1.0000 0.73250  0.89870  0.56420  Biso   1.000  C
  H7       1.0000 0.34710  0.19200  0.50550  Biso   1.000  H
  H8       1.0000 0.65290  0.80800  0.49450  Biso   1.000  H
  C13      1.0000 0.21650  0.96100  0.47040  Biso   1.000  C
  C14      1.0000 0.78350  0.03900  0.52960  Biso   1.000  C
  C15      1.0000 0.09910  0.83280  0.36250  Biso   1.000  C
  C16      1.0000 0.90090  0.16720  0.63750  Biso   1.000  C
  H9       1.0000 0.05920  0.73390  0.38090  Biso   1.000  H
  H10      1.0000 0.94080  0.26610  0.61910  Biso   1.000  H
  C17      1.0000 0.04120  0.84900  0.22980  Biso   1.000  C
  C18      1.0000 0.95880  0.15100  0.77020  Biso   1.000  C
  H11      1.0000 0.96230  0.75980  0.15830  Biso   1.000  H
  H12      1.0000 0.03770  0.24020  0.84170  Biso   1.000  H
  C19      1.0000 0.27660  0.94000  0.61460  Biso   1.000  C
  C20      1.0000 0.72340  0.06000  0.38540  Biso   1.000  C
  H13      1.0000 0.34690  0.86550  0.62200  Biso   1.000  H
  H14      1.0000 0.65310  0.13450  0.37800  Biso   1.000  H
  H15      1.0000 0.15120  0.89400  0.63190  Biso   1.000  H
  H16      1.0000 0.84880  0.10600  0.36810  Biso   1.000  H
  C21      1.0000 0.41210  0.08260  0.72600  Biso   1.000  C
  C22      1.0000 0.58790  0.91740  0.27400  Biso   1.000  C
  H17      1.0000 0.53630  0.13090  0.70980  Biso   1.000  H
  H18      1.0000 0.46370  0.86910  0.29020  Biso   1.000  H
  H19      1.0000 0.44750  0.05500  0.81500  Biso   1.000  H
  H20      1.0000 0.55250  0.94500  0.18500  Biso   1.000  H
  H21      1.0000 0.34030  0.15430  0.72540  Biso   1.000  H
  H22      1.0000 0.65970  0.84570  0.27460  Biso   1.000  H
  H23      1.0000 0.24700  0.47400  0.29200  Biso   1.000  H
  H24      1.0000 0.75300  0.52600  0.70800  Biso   1.000  H
  O3       1.0000 0.34690  0.50140  0.27030  Biso   1.000  O
  O4       1.0000 0.65310  0.49860  0.72970  Biso   1.000  O
  C23      1.0000 0.28410  0.53350  0.13840  Biso   1.000  C
  C24      1.0000 0.71590  0.46650  0.86160  Biso   1.000  C
  H25      1.0000 0.21930  0.60980  0.13920  Biso   1.000  H
  H26      1.0000 0.78070  0.39020  0.86080  Biso   1.000  H
  H27      1.0000 0.18700  0.43940  0.07110  Biso   1.000  H
  H28      1.0000 0.81300  0.56060  0.92890  Biso   1.000  H
  H29      1.0000 0.40260  0.57360  0.11390  Biso   1.000  H
  H30      1.0000 0.59740  0.42640  0.88610  Biso   1.000  H
