data_image0
_cell_length_a       12.2621
_cell_length_b       13.469
_cell_length_c       7.5156
_cell_angle_alpha    90
_cell_angle_beta     96.642
_cell_angle_gamma    90

_symmetry_space_group_name_H-M    "P 1"
_symmetry_int_tables_number       1

loop_
  _symmetry_equiv_pos_as_xyz
  'x, y, z'

loop_
  _atom_site_label
  _atom_site_occupancy
  _atom_site_fract_x
  _atom_site_fract_y
  _atom_site_fract_z
  _atom_site_thermal_displace_type
  _atom_site_B_iso_or_equiv
  _atom_site_type_symbol
  Cu1      1.0000 0.50000  0.50000  0.00000  Biso   1.000  Cu
  Cu2      1.0000 0.50000  0.00000  0.50000  Biso   1.000  Cu
  O1       1.0000 0.87510  0.53050  0.35740  Biso   1.000  O
  O2       1.0000 0.12490  0.03050  0.14260  Biso   1.000  O
  O3       1.0000 0.12490  0.46950  0.64260  Biso   1.000  O
  O4       1.0000 0.87510  0.96950  0.85740  Biso   1.000  O
  C1       1.0000 0.65130  0.56220  0.33420  Biso   1.000  C
  C2       1.0000 0.34870  0.06220  0.16580  Biso   1.000  C
  C3       1.0000 0.34870  0.43780  0.66580  Biso   1.000  C
  C4       1.0000 0.65130  0.93780  0.83420  Biso   1.000  C
  N1       1.0000 0.61650  0.55770  0.78270  Biso   1.000  N
  N2       1.0000 0.38350  0.05770  0.71730  Biso   1.000  N
  N3       1.0000 0.38350  0.44230  0.21730  Biso   1.000  N
  N4       1.0000 0.61650  0.94230  0.28270  Biso   1.000  N
  N5       1.0000 0.59190  0.37650  0.04110  Biso   1.000  N
  N6       1.0000 0.40810  0.87650  0.45890  Biso   1.000  N
  N7       1.0000 0.40810  0.62350  0.95890  Biso   1.000  N
  N8       1.0000 0.59190  0.12350  0.54110  Biso   1.000  N
  N9       1.0000 0.59730  0.56760  0.19850  Biso   1.000  N
  N10      1.0000 0.40270  0.06760  0.30150  Biso   1.000  N
  N11      1.0000 0.40270  0.43240  0.80150  Biso   1.000  N
  N12      1.0000 0.59730  0.93240  0.69850  Biso   1.000  N
  C5       1.0000 0.83430  0.53760  0.50160  Biso   1.000  C
  C6       1.0000 0.16570  0.03760  0.99840  Biso   1.000  C
  C7       1.0000 0.16570  0.46240  0.49840  Biso   1.000  C
  C8       1.0000 0.83430  0.96240  0.00160  Biso   1.000  C
  C9       1.0000 0.66040  0.55820  0.65530  Biso   1.000  C
  C10      1.0000 0.33960  0.05820  0.84470  Biso   1.000  C
  C11      1.0000 0.33960  0.44180  0.34470  Biso   1.000  C
  C12      1.0000 0.66040  0.94180  0.15530  Biso   1.000  C
  N13      1.0000 0.89500  0.52610  0.65990  Biso   1.000  N
  N14      1.0000 0.10500  0.02610  0.84010  Biso   1.000  N
  N15      1.0000 0.10500  0.47390  0.34010  Biso   1.000  N
  N16      1.0000 0.89500  0.97390  0.15990  Biso   1.000  N
  H1       1.0000 0.96560  0.51320  0.66420  Biso   1.000  H
  H2       1.0000 0.03440  0.01320  0.83580  Biso   1.000  H
  H3       1.0000 0.03440  0.48680  0.33580  Biso   1.000  H
  H4       1.0000 0.96560  0.98680  0.16420  Biso   1.000  H
  H5       1.0000 0.86440  0.53150  0.75970  Biso   1.000  H
  H6       1.0000 0.13560  0.03150  0.74030  Biso   1.000  H
  H7       1.0000 0.13560  0.46850  0.24030  Biso   1.000  H
  H8       1.0000 0.86440  0.96850  0.25970  Biso   1.000  H
  C13      1.0000 0.70280  0.38070  0.05400  Biso   1.000  C
  C14      1.0000 0.29720  0.88070  0.44600  Biso   1.000  C
  C15      1.0000 0.29720  0.61930  0.94600  Biso   1.000  C
  C16      1.0000 0.70280  0.11930  0.55400  Biso   1.000  C
  H9       1.0000 0.73690  0.44270  0.03620  Biso   1.000  H
  H10      1.0000 0.26310  0.94270  0.46380  Biso   1.000  H
  H11      1.0000 0.26310  0.55730  0.96380  Biso   1.000  H
  H12      1.0000 0.73690  0.05730  0.53620  Biso   1.000  H
  C17      1.0000 0.71630  0.55560  0.50050  Biso   1.000  C
  C18      1.0000 0.28370  0.05560  0.99950  Biso   1.000  C
  C19      1.0000 0.28370  0.44440  0.49950  Biso   1.000  C
  C20      1.0000 0.71630  0.94440  0.00050  Biso   1.000  C
  O5       1.0000 0.91740  0.37830  0.97810  Biso   1.000  O
  O6       1.0000 0.08260  0.87830  0.52190  Biso   1.000  O
  O7       1.0000 0.08260  0.62170  0.02190  Biso   1.000  O
  O8       1.0000 0.91740  0.12170  0.47810  Biso   1.000  O
  H13      1.0000 0.98560  0.38780  0.98950  Biso   1.000  H
  H14      1.0000 0.01440  0.88780  0.51050  Biso   1.000  H
  H15      1.0000 0.01440  0.61220  0.01050  Biso   1.000  H
  H16      1.0000 0.98560  0.11220  0.48950  Biso   1.000  H
  C21      1.0000 0.89170  0.30680  0.10380  Biso   1.000  C
  C22      1.0000 0.10830  0.80680  0.39620  Biso   1.000  C
  C23      1.0000 0.10830  0.69320  0.89620  Biso   1.000  C
  C24      1.0000 0.89170  0.19320  0.60380  Biso   1.000  C
  H17      1.0000 0.92190  0.32740  0.22610  Biso   1.000  H
  H18      1.0000 0.07810  0.82740  0.27390  Biso   1.000  H
  H19      1.0000 0.07810  0.67260  0.77390  Biso   1.000  H
  H20      1.0000 0.92190  0.17260  0.72610  Biso   1.000  H
  H21      1.0000 0.92440  0.24200  0.07770  Biso   1.000  H
  H22      1.0000 0.07560  0.74200  0.42230  Biso   1.000  H
  H23      1.0000 0.07560  0.75800  0.92230  Biso   1.000  H
  H24      1.0000 0.92440  0.25800  0.57770  Biso   1.000  H
  C25      1.0000 0.54550  0.28750  0.06410  Biso   1.000  C
  C26      1.0000 0.45450  0.78750  0.43590  Biso   1.000  C
  C27      1.0000 0.45450  0.71250  0.93590  Biso   1.000  C
  C28      1.0000 0.54550  0.21250  0.56410  Biso   1.000  C
  H25      1.0000 0.46770  0.28370  0.05320  Biso   1.000  H
  H26      1.0000 0.53230  0.78370  0.44680  Biso   1.000  H
  H27      1.0000 0.53230  0.71630  0.94680  Biso   1.000  H
  H28      1.0000 0.46770  0.21630  0.55320  Biso   1.000  H
  C29      1.0000 0.76840  0.29750  0.09220  Biso   1.000  C
  C30      1.0000 0.23160  0.79750  0.40780  Biso   1.000  C
  C31      1.0000 0.23160  0.70250  0.90780  Biso   1.000  C
  C32      1.0000 0.76840  0.20250  0.59220  Biso   1.000  C
  C33      1.0000 0.71820  0.20730  0.11590  Biso   1.000  C
  C34      1.0000 0.28180  0.70730  0.38410  Biso   1.000  C
  C35      1.0000 0.28180  0.79270  0.88410  Biso   1.000  C
  C36      1.0000 0.71820  0.29270  0.61590  Biso   1.000  C
  H29      1.0000 0.76090  0.14910  0.14110  Biso   1.000  H
  H30      1.0000 0.23910  0.64910  0.35890  Biso   1.000  H
  H31      1.0000 0.23910  0.85090  0.85890  Biso   1.000  H
  H32      1.0000 0.76090  0.35090  0.64110  Biso   1.000  H
  C37      1.0000 0.60400  0.20310  0.10220  Biso   1.000  C
  C38      1.0000 0.39600  0.70310  0.39780  Biso   1.000  C
  C39      1.0000 0.39600  0.79690  0.89780  Biso   1.000  C
  C40      1.0000 0.60400  0.29690  0.60220  Biso   1.000  C
  H33      1.0000 0.56770  0.14210  0.11920  Biso   1.000  H
  H34      1.0000 0.43230  0.64210  0.38080  Biso   1.000  H
  H35      1.0000 0.43230  0.85790  0.88080  Biso   1.000  H
  H36      1.0000 0.56770  0.35790  0.61920  Biso   1.000  H
  O9       1.0000 0.85770  0.60740  0.02230  Biso   1.000  O
  O10      1.0000 0.14230  0.10740  0.47770  Biso   1.000  O
  O11      1.0000 0.14230  0.39260  0.97770  Biso   1.000  O
  O12      1.0000 0.85770  0.89260  0.52230  Biso   1.000  O
  H37      1.0000 0.86290  0.58360  0.12620  Biso   1.000  H
  H38      1.0000 0.13710  0.08360  0.37380  Biso   1.000  H
  H39      1.0000 0.13710  0.41640  0.87380  Biso   1.000  H
  H40      1.0000 0.86290  0.91640  0.62620  Biso   1.000  H
  C41      1.0000 0.81400  0.70580  0.02400  Biso   1.000  C
  C42      1.0000 0.18600  0.20580  0.47600  Biso   1.000  C
  C43      1.0000 0.18600  0.29420  0.97600  Biso   1.000  C
  C44      1.0000 0.81400  0.79420  0.52400  Biso   1.000  C
  H41      1.0000 0.74510  0.70490  0.07820  Biso   1.000  H
  H42      1.0000 0.25490  0.20490  0.42180  Biso   1.000  H
  H43      1.0000 0.25490  0.29510  0.92180  Biso   1.000  H
  H44      1.0000 0.74510  0.79510  0.57820  Biso   1.000  H
  H45      1.0000 0.80020  0.73070  0.90090  Biso   1.000  H
  H46      1.0000 0.19980  0.23070  0.59910  Biso   1.000  H
  H47      1.0000 0.19980  0.26930  0.09910  Biso   1.000  H
  H48      1.0000 0.80020  0.76930  0.40090  Biso   1.000  H
  H49      1.0000 0.86690  0.74920  0.09390  Biso   1.000  H
  H50      1.0000 0.13310  0.24920  0.40610  Biso   1.000  H
  H51      1.0000 0.13310  0.25080  0.90610  Biso   1.000  H
  H52      1.0000 0.86690  0.75080  0.59390  Biso   1.000  H
