data_image0
_cell_length_a       7.5275
_cell_length_b       8.1635
_cell_length_c       11.5043
_cell_angle_alpha    90.562
_cell_angle_beta     107.839
_cell_angle_gamma    114.191

_symmetry_space_group_name_H-M    "P 1"
_symmetry_int_tables_number       1

loop_
  _symmetry_equiv_pos_as_xyz
  'x, y, z'

loop_
  _atom_site_label
  _atom_site_occupancy
  _atom_site_fract_x
  _atom_site_fract_y
  _atom_site_fract_z
  _atom_site_thermal_displace_type
  _atom_site_B_iso_or_equiv
  _atom_site_type_symbol
  Cu1      1.0000 0.00000  0.00000  0.00000  Biso   1.000  Cu
  O1       1.0000 0.01900  0.34410  0.39210  Biso   1.000  O
  O2       1.0000 0.98100  0.65590  0.60790  Biso   1.000  O
  N1       1.0000 0.72730  0.33610  0.41210  Biso   1.000  N
  N2       1.0000 0.27270  0.66390  0.58790  Biso   1.000  N
  C1       1.0000 0.70160  0.13560  0.24710  Biso   1.000  C
  C2       1.0000 0.29840  0.86440  0.75290  Biso   1.000  C
  H1       1.0000 0.80300  0.42600  0.47400  Biso   1.000  H
  H2       1.0000 0.19700  0.57400  0.52600  Biso   1.000  H
  N3       1.0000 0.87170  0.01800  0.12920  Biso   1.000  N
  N4       1.0000 0.12830  0.98200  0.87080  Biso   1.000  N
  C3       1.0000 0.79820  0.07410  0.18300  Biso   1.000  C
  C4       1.0000 0.20180  0.92590  0.81700  Biso   1.000  C
  H3       1.0000 0.60500  0.29000  0.39000  Biso   1.000  H
  H4       1.0000 0.39500  0.71000  0.61000  Biso   1.000  H
  N5       1.0000 0.30390  0.99770  0.15800  Biso   1.000  N
  N6       1.0000 0.69610  0.00230  0.84200  Biso   1.000  N
  C5       1.0000 0.48240  0.06080  0.19840  Biso   1.000  C
  C6       1.0000 0.51760  0.93920  0.80160  Biso   1.000  C
  H5       1.0000 0.26900  0.30400  0.22400  Biso   1.000  H
  H6       1.0000 0.73100  0.69600  0.77600  Biso   1.000  H
  N7       1.0000 0.15990  0.27070  0.03740  Biso   1.000  N
  N8       1.0000 0.84010  0.72930  0.96260  Biso   1.000  N
  C7       1.0000 0.82380  0.27650  0.35420  Biso   1.000  C
  C8       1.0000 0.17620  0.72350  0.64580  Biso   1.000  C
  N9       1.0000 0.25760  0.34840  0.15960  Biso   1.000  N
  N10      1.0000 0.74240  0.65160  0.84040  Biso   1.000  N
  C9       1.0000 0.19270  0.40870  0.97320  Biso   1.000  C
  C10      1.0000 0.80730  0.59130  0.02680  Biso   1.000  C
  C11      1.0000 0.31230  0.57430  0.05570  Biso   1.000  C
  C12      1.0000 0.68770  0.42570  0.94430  Biso   1.000  C
  H7       1.0000 0.35790  0.69320  0.03450  Biso   1.000  H
  H8       1.0000 0.64210  0.30680  0.96550  Biso   1.000  H
  C13      1.0000 0.34970  0.52970  0.17270  Biso   1.000  C
  C14      1.0000 0.65030  0.47030  0.82730  Biso   1.000  C
  C15      1.0000 0.11070  0.38100  0.83700  Biso   1.000  C
  C16      1.0000 0.88930  0.61900  0.16300  Biso   1.000  C
  H9       1.0000 0.22260  0.39950  0.80460  Biso   1.000  H
  H10      1.0000 0.77740  0.60050  0.19540  Biso   1.000  H
  H11      1.0000 0.05390  0.46830  0.80970  Biso   1.000  H
  H12      1.0000 0.94610  0.53170  0.19030  Biso   1.000  H
  H13      1.0000 0.00120  0.25700  0.80620  Biso   1.000  H
  H14      1.0000 0.99880  0.74300  0.19380  Biso   1.000  H
  C17      1.0000 0.46160  0.64330  0.29810  Biso   1.000  C
  C18      1.0000 0.53840  0.35670  0.70190  Biso   1.000  C
  H15      1.0000 0.39820  0.72410  0.30730  Biso   1.000  H
  H16      1.0000 0.60180  0.27590  0.69270  Biso   1.000  H
  H17      1.0000 0.60740  0.71630  0.30770  Biso   1.000  H
  H18      1.0000 0.39260  0.28370  0.69230  Biso   1.000  H
  H19      1.0000 0.45240  0.56400  0.36160  Biso   1.000  H
  H20      1.0000 0.54760  0.43600  0.63840  Biso   1.000  H
  H21      1.0000 0.20000  0.23600  0.39000  Biso   1.000  H
  H22      1.0000 0.80000  0.76400  0.61000  Biso   1.000  H
  O3       1.0000 0.28410  0.20450  0.39000  Biso   1.000  O
  O4       1.0000 0.71590  0.79550  0.61000  Biso   1.000  O
  C19      1.0000 0.21870  0.03010  0.42750  Biso   1.000  C
  C20      1.0000 0.78130  0.96990  0.57250  Biso   1.000  C
  H23      1.0000 0.31260  0.97750  0.42260  Biso   1.000  H
  H24      1.0000 0.68740  0.02250  0.57740  Biso   1.000  H
  H25      1.0000 0.07780  0.95070  0.37290  Biso   1.000  H
  H26      1.0000 0.92220  0.04930  0.62710  Biso   1.000  H
  H27      1.0000 0.22060  0.04210  0.51280  Biso   1.000  H
  H28      1.0000 0.77940  0.95790  0.48720  Biso   1.000  H
