data_image0
_cell_length_a       7.6383
_cell_length_b       9.6069
_cell_length_c       18.8908
_cell_angle_alpha    89.297
_cell_angle_beta     81.362
_cell_angle_gamma    78.475

_symmetry_space_group_name_H-M    "P 1"
_symmetry_int_tables_number       1

loop_
  _symmetry_equiv_pos_as_xyz
  'x, y, z'

loop_
  _atom_site_label
  _atom_site_occupancy
  _atom_site_fract_x
  _atom_site_fract_y
  _atom_site_fract_z
  _atom_site_thermal_displace_type
  _atom_site_B_iso_or_equiv
  _atom_site_type_symbol
  Cu1      1.0000 0.11408  0.45767  0.55904  Biso   1.000  Cu
  Cu2      1.0000 0.88592  0.54233  0.44096  Biso   1.000  Cu
  O1       1.0000 0.35595  0.32149  0.47972  Biso   1.000  O
  O2       1.0000 0.64405  0.67851  0.52028  Biso   1.000  O
  O3       1.0000 0.92398  0.40181  0.51543  Biso   1.000  O
  O4       1.0000 0.07602  0.59819  0.48457  Biso   1.000  O
  N1       1.0000 0.19730  0.25800  0.39765  Biso   1.000  N
  N2       1.0000 0.80270  0.74200  0.60235  Biso   1.000  N
  N3       1.0000 0.72480  0.44379  0.39786  Biso   1.000  N
  N4       1.0000 0.27520  0.55621  0.60214  Biso   1.000  N
  N5       1.0000 0.43470  0.33060  0.22648  Biso   1.000  N
  N6       1.0000 0.56530  0.66940  0.77352  Biso   1.000  N
  N7       1.0000 0.08420  0.33188  0.64277  Biso   1.000  N
  N8       1.0000 0.91580  0.66812  0.35723  Biso   1.000  N
  N9       1.0000 0.22190  0.12650  0.57835  Biso   1.000  N
  N10      1.0000 0.77810  0.87350  0.42165  Biso   1.000  N
  C1       1.0000 0.46980  0.34390  0.35885  Biso   1.000  C
  C2       1.0000 0.53020  0.65610  0.64115  Biso   1.000  C
  C3       1.0000 0.61210  0.39840  0.37931  Biso   1.000  C
  C4       1.0000 0.38790  0.60160  0.62069  Biso   1.000  C
  C5       1.0000 0.45370  0.33680  0.28547  Biso   1.000  C
  C6       1.0000 0.54630  0.66320  0.71453  Biso   1.000  C
  C7       1.0000 0.33850  0.30780  0.41502  Biso   1.000  C
  C8       1.0000 0.66150  0.69220  0.58498  Biso   1.000  C
  C9       1.0000 0.99080  0.39720  0.70414  Biso   1.000  C
  C10      1.0000 0.00920  0.60280  0.29586  Biso   1.000  C
  H1       1.0000 0.96240  0.49810  0.70610  Biso   1.000  H
  H2       1.0000 0.03760  0.50190  0.29390  Biso   1.000  H
  C11      1.0000 0.93550  0.32470  0.76343  Biso   1.000  C
  C12      1.0000 0.06450  0.67530  0.23657  Biso   1.000  C
  H3       1.0000 0.86880  0.37390  0.80540  Biso   1.000  H
  H4       1.0000 0.13120  0.62610  0.19460  Biso   1.000  H
  C13      1.0000 0.97980  0.17690  0.76051  Biso   1.000  C
  C14      1.0000 0.02020  0.82310  0.23949  Biso   1.000  C
  H5       1.0000 0.94300  0.12400  0.80090  Biso   1.000  H
  H6       1.0000 0.05700  0.87600  0.19910  Biso   1.000  H
  C15      1.0000 0.07610  0.10760  0.69969  Biso   1.000  C
  C16      1.0000 0.92390  0.89240  0.30031  Biso   1.000  C
  H7       1.0000 0.10710  0.00670  0.69760  Biso   1.000  H
  H8       1.0000 0.89290  0.99330  0.30240  Biso   1.000  H
  C17      1.0000 0.12880  0.18800  0.64001  Biso   1.000  C
  C18      1.0000 0.87120  0.81200  0.35999  Biso   1.000  C
  C19      1.0000 0.27560  0.97420  0.56810  Biso   1.000  C
  C20      1.0000 0.72440  0.02580  0.43190  Biso   1.000  C
  H9       1.0000 0.35920  0.93580  0.60140  Biso   1.000  H
  H10      1.0000 0.64080  0.06420  0.39860  Biso   1.000  H
  H11      1.0000 0.33550  0.95220  0.51880  Biso   1.000  H
  H12      1.0000 0.66450  0.04780  0.48120  Biso   1.000  H
  H13      1.0000 0.16840  0.93130  0.57720  Biso   1.000  H
  H14      1.0000 0.83160  0.06870  0.42280  Biso   1.000  H
  C21      1.0000 0.78980  0.33070  0.55073  Biso   1.000  C
  C22      1.0000 0.21020  0.66930  0.44927  Biso   1.000  C
  H15      1.0000 0.83910  0.22840  0.55070  Biso   1.000  H
  H16      1.0000 0.16090  0.77160  0.44930  Biso   1.000  H
  H17      1.0000 0.68440  0.34850  0.52560  Biso   1.000  H
  H18      1.0000 0.31560  0.65150  0.47440  Biso   1.000  H
  H19      1.0000 0.75360  0.36640  0.60020  Biso   1.000  H
  H20      1.0000 0.24640  0.63360  0.39980  Biso   1.000  H
  H21      1.0000 0.17700  0.25200  0.35520  Biso   1.000  H
  H22      1.0000 0.82300  0.74800  0.64480  Biso   1.000  H
  H23      1.0000 0.11100  0.25800  0.42970  Biso   1.000  H
  H24      1.0000 0.88900  0.74200  0.57030  Biso   1.000  H
  H25      1.0000 0.26000  0.17800  0.54810  Biso   1.000  H
  H26      1.0000 0.74000  0.82200  0.45190  Biso   1.000  H
  Cu3      1.0000 0.39283  0.02493  0.93816  Biso   1.000  Cu
  Cu4      1.0000 0.60717  0.97507  0.06184  Biso   1.000  Cu
  O5       1.0000 0.15250  0.18483  0.00889  Biso   1.000  O
  O6       1.0000 0.84750  0.81517  0.99111  Biso   1.000  O
  O7       1.0000 0.42130  0.90734  0.02182  Biso   1.000  O
  O8       1.0000 0.57870  0.09266  0.97818  Biso   1.000  O
  N11      1.0000 0.30210  0.26850  0.08870  Biso   1.000  N
  N12      1.0000 0.69790  0.73150  0.91130  Biso   1.000  N
  N13      1.0000 0.77240  0.08120  0.09598  Biso   1.000  N
  N14      1.0000 0.22760  0.91880  0.90402  Biso   1.000  N
  N15      1.0000 0.04650  0.23250  0.26173  Biso   1.000  N
  N16      1.0000 0.95350  0.76750  0.73827  Biso   1.000  N
  N17      1.0000 0.42550  0.12312  0.84481  Biso   1.000  N
  N18      1.0000 0.57450  0.87688  0.15519  Biso   1.000  N
  N19      1.0000 0.28560  0.34370  0.89254  Biso   1.000  N
  N20      1.0000 0.71440  0.65630  0.10746  Biso   1.000  N
  C23      1.0000 0.03180  0.18220  0.13011  Biso   1.000  C
  C24      1.0000 0.96820  0.81780  0.86989  Biso   1.000  C
  C25      1.0000 0.88890  0.12680  0.11179  Biso   1.000  C
  C26      1.0000 0.11110  0.87320  0.88821  Biso   1.000  C
  C27      1.0000 0.03770  0.20910  0.20290  Biso   1.000  C
  C28      1.0000 0.96230  0.79090  0.79710  Biso   1.000  C
  C29      1.0000 0.16530  0.21130  0.07280  Biso   1.000  C
  C30      1.0000 0.83470  0.78870  0.92720  Biso   1.000  C
  C31      1.0000 0.51310  0.03940  0.78801  Biso   1.000  C
  C32      1.0000 0.48690  0.96060  0.21199  Biso   1.000  C
  H27      1.0000 0.55000  0.94070  0.79560  Biso   1.000  H
  H28      1.0000 0.45000  0.05930  0.20440  Biso   1.000  H
  C33      1.0000 0.55140  0.08870  0.72047  Biso   1.000  C
  C34      1.0000 0.44860  0.91130  0.27953  Biso   1.000  C
  H29      1.0000 0.61430  0.02660  0.68220  Biso   1.000  H
  H30      1.0000 0.38570  0.97340  0.31780  Biso   1.000  H
  C35      1.0000 0.49470  0.23340  0.70984  Biso   1.000  C
  C36      1.0000 0.50530  0.76660  0.29016  Biso   1.000  C
  H31      1.0000 0.51710  0.27100  0.66340  Biso   1.000  H
  H32      1.0000 0.48290  0.72900  0.33660  Biso   1.000  H
  C37      1.0000 0.40730  0.32140  0.76571  Biso   1.000  C
  C38      1.0000 0.59270  0.67860  0.23429  Biso   1.000  C
  H33      1.0000 0.37100  0.42040  0.75850  Biso   1.000  H
  H34      1.0000 0.62900  0.57960  0.24150  Biso   1.000  H
  C39      1.0000 0.37110  0.26390  0.83472  Biso   1.000  C
  C40      1.0000 0.62890  0.73610  0.16528  Biso   1.000  C
  C41      1.0000 0.21300  0.49430  0.88832  Biso   1.000  C
  C42      1.0000 0.78700  0.50570  0.11168  Biso   1.000  C
  H35      1.0000 0.31120  0.54370  0.87090  Biso   1.000  H
  H36      1.0000 0.68880  0.45630  0.12910  Biso   1.000  H
  H37      1.0000 0.15460  0.53170  0.93590  Biso   1.000  H
  H38      1.0000 0.84540  0.46830  0.06410  Biso   1.000  H
  H39      1.0000 0.12390  0.50940  0.85520  Biso   1.000  H
  H40      1.0000 0.87610  0.49060  0.14480  Biso   1.000  H
  C43      1.0000 0.29490  0.82730  0.05460  Biso   1.000  C
  C44      1.0000 0.70510  0.17270  0.94540  Biso   1.000  C
  H41      1.0000 0.31030  0.81170  0.10490  Biso   1.000  H
  H42      1.0000 0.68970  0.18830  0.89510  Biso   1.000  H
  H43      1.0000 0.31510  0.73540  0.02960  Biso   1.000  H
  H44      1.0000 0.68490  0.26460  0.97040  Biso   1.000  H
  H45      1.0000 0.17190  0.87940  0.05210  Biso   1.000  H
  H46      1.0000 0.82810  0.12060  0.94790  Biso   1.000  H
  H47      1.0000 0.31700  0.28400  0.13070  Biso   1.000  H
  H48      1.0000 0.68300  0.71600  0.86930  Biso   1.000  H
  H49      1.0000 0.38900  0.26100  0.05960  Biso   1.000  H
  H50      1.0000 0.61100  0.73900  0.94040  Biso   1.000  H
  H51      1.0000 0.25100  0.30300  0.93160  Biso   1.000  H
  H52      1.0000 0.74900  0.69700  0.06840  Biso   1.000  H
