data_image0
_cell_length_a       10.028
_cell_length_b       7.408
_cell_length_c       15.469
_cell_angle_alpha    90
_cell_angle_beta     107.043
_cell_angle_gamma    90

_symmetry_space_group_name_H-M    "P 1"
_symmetry_int_tables_number       1

loop_
  _symmetry_equiv_pos_as_xyz
  'x, y, z'

loop_
  _atom_site_label
  _atom_site_occupancy
  _atom_site_fract_x
  _atom_site_fract_y
  _atom_site_fract_z
  _atom_site_thermal_displace_type
  _atom_site_B_iso_or_equiv
  _atom_site_type_symbol
  Cu1      1.0000 0.60433  0.63825  0.05442  Biso   1.000  Cu
  Cu2      1.0000 0.39567  0.13825  0.44558  Biso   1.000  Cu
  Cu3      1.0000 0.39567  0.36175  0.94558  Biso   1.000  Cu
  Cu4      1.0000 0.60433  0.86175  0.55442  Biso   1.000  Cu
  O1       1.0000 0.44400  0.76460  0.11820  Biso   1.000  O
  O2       1.0000 0.55600  0.26460  0.38180  Biso   1.000  O
  O3       1.0000 0.55600  0.23540  0.88180  Biso   1.000  O
  O4       1.0000 0.44400  0.73540  0.61820  Biso   1.000  O
  N1       1.0000 0.27280  0.55570  0.09380  Biso   1.000  N
  N2       1.0000 0.72720  0.05570  0.40620  Biso   1.000  N
  N3       1.0000 0.72720  0.44430  0.90620  Biso   1.000  N
  N4       1.0000 0.27280  0.94430  0.59380  Biso   1.000  N
  C1       1.0000 0.22180  0.84840  0.02630  Biso   1.000  C
  C2       1.0000 0.77820  0.34840  0.47370  Biso   1.000  C
  C3       1.0000 0.77820  0.15160  0.97370  Biso   1.000  C
  C4       1.0000 0.22180  0.65160  0.52630  Biso   1.000  C
  H1       1.0000 0.34000  0.48900  0.12200  Biso   1.000  H
  H2       1.0000 0.66000  0.98900  0.37800  Biso   1.000  H
  H3       1.0000 0.66000  0.51100  0.87800  Biso   1.000  H
  H4       1.0000 0.34000  0.01100  0.62200  Biso   1.000  H
  O5       1.0000 0.54150  0.39430  0.05990  Biso   1.000  O
  O6       1.0000 0.45850  0.89430  0.44010  Biso   1.000  O
  O7       1.0000 0.45850  0.60570  0.94010  Biso   1.000  O
  O8       1.0000 0.54150  0.10570  0.55990  Biso   1.000  O
  N5       1.0000 0.31970  0.14530  0.98810  Biso   1.000  N
  N6       1.0000 0.68030  0.64530  0.51190  Biso   1.000  N
  N7       1.0000 0.68030  0.85470  0.01190  Biso   1.000  N
  N8       1.0000 0.31970  0.35470  0.48810  Biso   1.000  N
  C5       1.0000 0.27280  0.01330  0.00590  Biso   1.000  C
  C6       1.0000 0.72720  0.51330  0.49410  Biso   1.000  C
  C7       1.0000 0.72720  0.98670  0.99410  Biso   1.000  C
  C8       1.0000 0.27280  0.48670  0.50590  Biso   1.000  C
  H5       1.0000 0.19100  0.53000  0.07000  Biso   1.000  H
  H6       1.0000 0.80900  0.03000  0.43000  Biso   1.000  H
  H7       1.0000 0.80900  0.47000  0.93000  Biso   1.000  H
  H8       1.0000 0.19100  0.97000  0.57000  Biso   1.000  H
  N9       1.0000 0.97000  0.74290  0.95300  Biso   1.000  N
  N10      1.0000 0.03000  0.24290  0.54700  Biso   1.000  N
  N11      1.0000 0.03000  0.25710  0.04700  Biso   1.000  N
  N12      1.0000 0.97000  0.75710  0.45300  Biso   1.000  N
  C9       1.0000 0.08210  0.79770  0.98420  Biso   1.000  C
  C10      1.0000 0.91790  0.29770  0.51580  Biso   1.000  C
  C11      1.0000 0.91790  0.20230  0.01580  Biso   1.000  C
  C12      1.0000 0.08210  0.70230  0.48420  Biso   1.000  C
  N13      1.0000 0.75660  0.63880  0.17450  Biso   1.000  N
  N14      1.0000 0.24340  0.13880  0.32550  Biso   1.000  N
  N15      1.0000 0.24340  0.36120  0.82550  Biso   1.000  N
  N16      1.0000 0.75660  0.86120  0.67450  Biso   1.000  N
  C13      1.0000 0.32020  0.72280  0.08210  Biso   1.000  C
  C14      1.0000 0.67980  0.22280  0.41790  Biso   1.000  C
  C15      1.0000 0.67980  0.27720  0.91790  Biso   1.000  C
  C16      1.0000 0.32020  0.77720  0.58210  Biso   1.000  C
  C17      1.0000 0.73580  0.49690  0.23750  Biso   1.000  C
  C18      1.0000 0.26420  0.99690  0.26250  Biso   1.000  C
  C19      1.0000 0.26420  0.50310  0.76250  Biso   1.000  C
  C20      1.0000 0.73580  0.00310  0.73750  Biso   1.000  C
  H9       1.0000 0.65140  0.52660  0.25550  Biso   1.000  H
  H10      1.0000 0.34860  0.02660  0.24450  Biso   1.000  H
  H11      1.0000 0.34860  0.47340  0.74450  Biso   1.000  H
  H12      1.0000 0.65140  0.97340  0.75550  Biso   1.000  H
  H13      1.0000 0.81650  0.49820  0.29280  Biso   1.000  H
  H14      1.0000 0.18350  0.99820  0.20720  Biso   1.000  H
  H15      1.0000 0.18350  0.50180  0.70720  Biso   1.000  H
  H16      1.0000 0.81650  0.00180  0.79280  Biso   1.000  H
  C21      1.0000 0.71980  0.30820  0.19760  Biso   1.000  C
  C22      1.0000 0.28020  0.80820  0.30240  Biso   1.000  C
  C23      1.0000 0.28020  0.69180  0.80240  Biso   1.000  C
  C24      1.0000 0.71980  0.19180  0.69760  Biso   1.000  C
  H17      1.0000 0.78960  0.29100  0.16440  Biso   1.000  H
  H18      1.0000 0.21040  0.79100  0.33560  Biso   1.000  H
  H19      1.0000 0.21040  0.70900  0.83560  Biso   1.000  H
  H20      1.0000 0.78960  0.20900  0.66440  Biso   1.000  H
  H21      1.0000 0.74010  0.21920  0.24750  Biso   1.000  H
  H22      1.0000 0.25990  0.71920  0.25250  Biso   1.000  H
  H23      1.0000 0.25990  0.78080  0.75250  Biso   1.000  H
  H24      1.0000 0.74010  0.28080  0.74750  Biso   1.000  H
  C25      1.0000 0.57610  0.27020  0.13400  Biso   1.000  C
  C26      1.0000 0.42390  0.77020  0.36600  Biso   1.000  C
  C27      1.0000 0.42390  0.72980  0.86600  Biso   1.000  C
  C28      1.0000 0.57610  0.22980  0.63400  Biso   1.000  C
  H25      1.0000 0.57310  0.14550  0.11050  Biso   1.000  H
  H26      1.0000 0.42690  0.64550  0.38950  Biso   1.000  H
  H27      1.0000 0.42690  0.85450  0.88950  Biso   1.000  H
  H28      1.0000 0.57310  0.35450  0.61050  Biso   1.000  H
  H29      1.0000 0.50610  0.27970  0.16750  Biso   1.000  H
  H30      1.0000 0.49390  0.77970  0.33250  Biso   1.000  H
  H31      1.0000 0.49390  0.72030  0.83250  Biso   1.000  H
  H32      1.0000 0.50610  0.22030  0.66750  Biso   1.000  H
  C29      1.0000 0.89870  0.61850  0.16260  Biso   1.000  C
  C30      1.0000 0.10130  0.11850  0.33740  Biso   1.000  C
  C31      1.0000 0.10130  0.38150  0.83740  Biso   1.000  C
  C32      1.0000 0.89870  0.88150  0.66260  Biso   1.000  C
  H33      1.0000 0.91280  0.71200  0.12140  Biso   1.000  H
  H34      1.0000 0.08720  0.21200  0.37860  Biso   1.000  H
  H35      1.0000 0.08720  0.28800  0.87860  Biso   1.000  H
  H36      1.0000 0.91280  0.78800  0.62140  Biso   1.000  H
  H37      1.0000 0.90680  0.49910  0.13740  Biso   1.000  H
  H38      1.0000 0.09320  0.99910  0.36260  Biso   1.000  H
  H39      1.0000 0.09320  0.50090  0.86260  Biso   1.000  H
  H40      1.0000 0.90680  0.00090  0.63740  Biso   1.000  H
  H41      1.0000 0.96940  0.63100  0.22140  Biso   1.000  H
  H42      1.0000 0.03060  0.13100  0.27860  Biso   1.000  H
  H43      1.0000 0.03060  0.36900  0.77860  Biso   1.000  H
  H44      1.0000 0.96940  0.86900  0.72140  Biso   1.000  H
  C33      1.0000 0.75480  0.81570  0.22100  Biso   1.000  C
  C34      1.0000 0.24520  0.31570  0.27900  Biso   1.000  C
  C35      1.0000 0.24520  0.18430  0.77900  Biso   1.000  C
  C36      1.0000 0.75480  0.68430  0.72100  Biso   1.000  C
  H45      1.0000 0.82380  0.81330  0.28080  Biso   1.000  H
  H46      1.0000 0.17620  0.31330  0.21920  Biso   1.000  H
  H47      1.0000 0.17620  0.18670  0.71920  Biso   1.000  H
  H48      1.0000 0.82380  0.68670  0.78080  Biso   1.000  H
  H49      1.0000 0.66180  0.83620  0.22770  Biso   1.000  H
  H50      1.0000 0.33820  0.33620  0.27230  Biso   1.000  H
  H51      1.0000 0.33820  0.16380  0.77230  Biso   1.000  H
  H52      1.0000 0.66180  0.66380  0.72770  Biso   1.000  H
  H53      1.0000 0.77750  0.91320  0.18490  Biso   1.000  H
  H54      1.0000 0.22250  0.41320  0.31510  Biso   1.000  H
  H55      1.0000 0.22250  0.08680  0.81510  Biso   1.000  H
  H56      1.0000 0.77750  0.58680  0.68490  Biso   1.000  H
