data_image0
_cell_length_a       6.8406
_cell_length_b       12.9209
_cell_length_c       13.6216
_cell_angle_alpha    67.456
_cell_angle_beta     84.074
_cell_angle_gamma    86.161

_symmetry_space_group_name_H-M    "P 1"
_symmetry_int_tables_number       1

loop_
  _symmetry_equiv_pos_as_xyz
  'x, y, z'

loop_
  _atom_site_label
  _atom_site_occupancy
  _atom_site_fract_x
  _atom_site_fract_y
  _atom_site_fract_z
  _atom_site_thermal_displace_type
  _atom_site_B_iso_or_equiv
  _atom_site_type_symbol
  Cu1      1.0000 0.30289  0.10395  0.98250  Biso   1.000  Cu
  Cu2      1.0000 0.69711  0.89605  0.01750  Biso   1.000  Cu
  Cu3      1.0000 0.27094  0.66038  0.53543  Biso   1.000  Cu
  Cu4      1.0000 0.72906  0.33962  0.46457  Biso   1.000  Cu
  Cu5      1.0000 0.31258  0.88797  0.65256  Biso   1.000  Cu
  Cu6      1.0000 0.68742  0.11203  0.34744  Biso   1.000  Cu
  O1       1.0000 0.98840  0.13690  0.02660  Biso   1.000  O
  O2       1.0000 0.01160  0.86310  0.97340  Biso   1.000  O
  H1       1.0000 0.91100  0.10200  0.01300  Biso   1.000  H
  H2       1.0000 0.08900  0.89800  0.98700  Biso   1.000  H
  H3       1.0000 0.96300  0.13600  0.08700  Biso   1.000  H
  H4       1.0000 0.03700  0.86400  0.91300  Biso   1.000  H
  O3       1.0000 0.98220  0.67750  0.57630  Biso   1.000  O
  O4       1.0000 0.01780  0.32250  0.42370  Biso   1.000  O
  H5       1.0000 0.96100  0.71600  0.61400  Biso   1.000  H
  H6       1.0000 0.03900  0.28400  0.38600  Biso   1.000  H
  H7       1.0000 0.93100  0.61400  0.60900  Biso   1.000  H
  H8       1.0000 0.06900  0.38600  0.39100  Biso   1.000  H
  O5       1.0000 0.56510  0.66001  0.51302  Biso   1.000  O
  O6       1.0000 0.43490  0.33999  0.48698  Biso   1.000  O
  H9       1.0000 0.62000  0.70400  0.46200  Biso   1.000  H
  H10      1.0000 0.38000  0.29600  0.53800  Biso   1.000  H
  H11      1.0000 0.61400  0.59600  0.52800  Biso   1.000  H
  H12      1.0000 0.38600  0.40400  0.47200  Biso   1.000  H
  O7       1.0000 0.19400  0.03744  0.58470  Biso   1.000  O
  O8       1.0000 0.80600  0.96256  0.41530  Biso   1.000  O
  H13      1.0000 0.23900  0.06600  0.51800  Biso   1.000  H
  H14      1.0000 0.76100  0.93400  0.48200  Biso   1.000  H
  H15      1.0000 0.19700  0.08500  0.61000  Biso   1.000  H
  H16      1.0000 0.80300  0.91500  0.39000  Biso   1.000  H
  O9       1.0000 0.31320  0.90930  0.78734  Biso   1.000  O
  O10      1.0000 0.68680  0.09070  0.21266  Biso   1.000  O
  H17      1.0000 0.41000  0.88300  0.82300  Biso   1.000  H
  H18      1.0000 0.59000  0.11700  0.17700  Biso   1.000  H
  H19      1.0000 0.27500  0.96700  0.79900  Biso   1.000  H
  H20      1.0000 0.72500  0.03300  0.20100  Biso   1.000  H
  O11      1.0000 0.46610  0.74954  0.71443  Biso   1.000  O
  O12      1.0000 0.53390  0.25046  0.28557  Biso   1.000  O
  H21      1.0000 0.41700  0.69300  0.70900  Biso   1.000  H
  H22      1.0000 0.58300  0.30700  0.29100  Biso   1.000  H
  H23      1.0000 0.48000  0.73500  0.77600  Biso   1.000  H
  H24      1.0000 0.52000  0.26500  0.22400  Biso   1.000  H
  O13      1.0000 0.99490  0.80730  0.70170  Biso   1.000  O
  O14      1.0000 0.00510  0.19270  0.29830  Biso   1.000  O
  H25      1.0000 0.90600  0.85400  0.69600  Biso   1.000  H
  H26      1.0000 0.09400  0.14600  0.30400  Biso   1.000  H
  H27      1.0000 0.98800  0.76000  0.76500  Biso   1.000  H
  H28      1.0000 0.01200  0.24000  0.23500  Biso   1.000  H
  O15      1.0000 0.83210  0.46910  0.89880  Biso   1.000  O
  O16      1.0000 0.16790  0.53090  0.10120  Biso   1.000  O
  H29      1.0000 0.72700  0.50200  0.90500  Biso   1.000  H
  H30      1.0000 0.27300  0.49800  0.09500  Biso   1.000  H
  H31      1.0000 0.84400  0.46400  0.83900  Biso   1.000  H
  H32      1.0000 0.15600  0.53600  0.16100  Biso   1.000  H
  O17      1.0000 0.97880  0.34220  0.09610  Biso   1.000  O
  O18      1.0000 0.02120  0.65780  0.90390  Biso   1.000  O
  H33      1.0000 0.93200  0.32600  0.05200  Biso   1.000  H
  H34      1.0000 0.06800  0.67400  0.94800  Biso   1.000  H
  H35      1.0000 0.00900  0.40400  0.08900  Biso   1.000  H
  H36      1.0000 0.99100  0.59600  0.91100  Biso   1.000  H
  O19      1.0000 0.25030  0.08818  0.83957  Biso   1.000  O
  O20      1.0000 0.74970  0.91182  0.16043  Biso   1.000  O
  O21      1.0000 0.23790  0.19153  0.66613  Biso   1.000  O
  O22      1.0000 0.76210  0.80847  0.33387  Biso   1.000  O
  O23      1.0000 0.40370  0.17876  0.07866  Biso   1.000  O
  O24      1.0000 0.59630  0.82124  0.92134  Biso   1.000  O
  O25      1.0000 0.46330  0.34692  0.07702  Biso   1.000  O
  O26      1.0000 0.53670  0.65308  0.92298  Biso   1.000  O
  O27      1.0000 0.30870  0.58403  0.68571  Biso   1.000  O
  O28      1.0000 0.69130  0.41597  0.31429  Biso   1.000  O
  O29      1.0000 0.30680  0.02691  0.39659  Biso   1.000  O
  O30      1.0000 0.69320  0.97309  0.60341  Biso   1.000  O
  O31      1.0000 0.30330  0.85451  0.52333  Biso   1.000  O
  O32      1.0000 0.69670  0.14549  0.47667  Biso   1.000  O
  O33      1.0000 0.17400  0.53694  0.30294  Biso   1.000  O
  O34      1.0000 0.82600  0.46306  0.69706  Biso   1.000  O
  O35      1.0000 0.23990  0.53870  0.45836  Biso   1.000  O
  O36      1.0000 0.76010  0.46130  0.54164  Biso   1.000  O
  O37      1.0000 0.29520  0.94605  0.06081  Biso   1.000  O
  O38      1.0000 0.70480  0.05395  0.93919  Biso   1.000  O
  N1       1.0000 0.32340  0.25555  0.88474  Biso   1.000  N
  N2       1.0000 0.67660  0.74445  0.11526  Biso   1.000  N
  N3       1.0000 0.24780  0.76022  0.38422  Biso   1.000  N
  N4       1.0000 0.75220  0.23978  0.61578  Biso   1.000  N
  C1       1.0000 0.36090  0.33480  0.92010  Biso   1.000  C
  C2       1.0000 0.63910  0.66520  0.07990  Biso   1.000  C
  C3       1.0000 0.25310  0.18090  0.75960  Biso   1.000  C
  C4       1.0000 0.74690  0.81910  0.24040  Biso   1.000  C
  C5       1.0000 0.35610  0.44670  0.85530  Biso   1.000  C
  C6       1.0000 0.64390  0.55330  0.14470  Biso   1.000  C
  H37      1.0000 0.38140  0.50060  0.88160  Biso   1.000  H
  H38      1.0000 0.61860  0.49940  0.11840  Biso   1.000  H
  C7       1.0000 0.41240  0.28610  0.03420  Biso   1.000  C
  C8       1.0000 0.58760  0.71390  0.96580  Biso   1.000  C
  C9       1.0000 0.28110  0.28280  0.78410  Biso   1.000  C
  C10      1.0000 0.71890  0.71720  0.21590  Biso   1.000  C
  C11      1.0000 0.27440  0.39280  0.71310  Biso   1.000  C
  C12      1.0000 0.72560  0.60720  0.28690  Biso   1.000  C
  H39      1.0000 0.24550  0.41020  0.64320  Biso   1.000  H
  H40      1.0000 0.75450  0.58980  0.35680  Biso   1.000  H
  C13      1.0000 0.31230  0.47880  0.74830  Biso   1.000  C
  C14      1.0000 0.68770  0.52120  0.25170  Biso   1.000  C
  C15      1.0000 0.26670  0.87270  0.34740  Biso   1.000  C
  C16      1.0000 0.73330  0.12730  0.65260  Biso   1.000  C
  C17      1.0000 0.29320  0.92320  0.42750  Biso   1.000  C
  C18      1.0000 0.70680  0.07680  0.57250  Biso   1.000  C
  C19      1.0000 0.27040  0.93920  0.23970  Biso   1.000  C
  C20      1.0000 0.72960  0.06080  0.76030  Biso   1.000  C
  H41      1.0000 0.27650  0.01670  0.21700  Biso   1.000  H
  H42      1.0000 0.72350  0.98330  0.78300  Biso   1.000  H
  C21      1.0000 0.21080  0.58650  0.36080  Biso   1.000  C
  C22      1.0000 0.78920  0.41350  0.63920  Biso   1.000  C
  C23      1.0000 0.22770  0.71300  0.31350  Biso   1.000  C
  C24      1.0000 0.77230  0.28700  0.68650  Biso   1.000  C
  C25      1.0000 0.26510  0.88960  0.16500  Biso   1.000  C
  C26      1.0000 0.73490  0.11040  0.83500  Biso   1.000  C
  C27      1.0000 0.23370  0.77460  0.20450  Biso   1.000  C
  C28      1.0000 0.76630  0.22540  0.79550  Biso   1.000  C
  H43      1.0000 0.21690  0.73940  0.15790  Biso   1.000  H
  H44      1.0000 0.78310  0.26060  0.84210  Biso   1.000  H
