data_image0
_cell_length_a       17.4233
_cell_length_b       14.7918
_cell_length_c       6.8851
_cell_angle_alpha    90
_cell_angle_beta     90
_cell_angle_gamma    90

_symmetry_space_group_name_H-M    "P 1"
_symmetry_int_tables_number       1

loop_
  _symmetry_equiv_pos_as_xyz
  'x, y, z'

loop_
  _atom_site_label
  _atom_site_occupancy
  _atom_site_fract_x
  _atom_site_fract_y
  _atom_site_fract_z
  _atom_site_thermal_displace_type
  _atom_site_B_iso_or_equiv
  _atom_site_type_symbol
  Cu1      1.0000 0.00000  0.30030  0.75000  Biso   1.000  Cu
  Cu2      1.0000 0.50000  0.19970  0.25000  Biso   1.000  Cu
  Cu3      1.0000 0.00000  0.69970  0.25000  Biso   1.000  Cu
  Cu4      1.0000 0.50000  0.80030  0.75000  Biso   1.000  Cu
  C1       1.0000 0.12080  0.09790  0.43600  Biso   1.000  C
  C2       1.0000 0.37920  0.40210  0.93600  Biso   1.000  C
  C3       1.0000 0.62080  0.40210  0.56400  Biso   1.000  C
  C4       1.0000 0.87920  0.09790  0.06400  Biso   1.000  C
  C5       1.0000 0.87920  0.90210  0.56400  Biso   1.000  C
  C6       1.0000 0.62080  0.59790  0.06400  Biso   1.000  C
  C7       1.0000 0.37920  0.59790  0.43600  Biso   1.000  C
  C8       1.0000 0.12080  0.90210  0.93600  Biso   1.000  C
  H1       1.0000 0.11170  0.06690  0.32090  Biso   1.000  H
  H2       1.0000 0.38830  0.43310  0.82090  Biso   1.000  H
  H3       1.0000 0.61170  0.43310  0.67910  Biso   1.000  H
  H4       1.0000 0.88830  0.06690  0.17910  Biso   1.000  H
  H5       1.0000 0.88830  0.93310  0.67910  Biso   1.000  H
  H6       1.0000 0.61170  0.56690  0.17910  Biso   1.000  H
  H7       1.0000 0.38830  0.56690  0.32090  Biso   1.000  H
  H8       1.0000 0.11170  0.93310  0.82090  Biso   1.000  H
  C9       1.0000 0.06810  0.15800  0.50460  Biso   1.000  C
  C10      1.0000 0.43190  0.34200  0.00460  Biso   1.000  C
  C11      1.0000 0.56810  0.34200  0.49540  Biso   1.000  C
  C12      1.0000 0.93190  0.15800  0.99540  Biso   1.000  C
  C13      1.0000 0.93190  0.84200  0.49540  Biso   1.000  C
  C14      1.0000 0.56810  0.65800  0.99540  Biso   1.000  C
  C15      1.0000 0.43190  0.65800  0.50460  Biso   1.000  C
  C16      1.0000 0.06810  0.84200  0.00460  Biso   1.000  C
  H9       1.0000 0.02480  0.16910  0.42960  Biso   1.000  H
  H10      1.0000 0.47520  0.33090  0.92960  Biso   1.000  H
  H11      1.0000 0.52480  0.33090  0.57040  Biso   1.000  H
  H12      1.0000 0.97520  0.16910  0.07040  Biso   1.000  H
  H13      1.0000 0.97520  0.83090  0.57040  Biso   1.000  H
  H14      1.0000 0.52480  0.66910  0.07040  Biso   1.000  H
  H15      1.0000 0.47520  0.66910  0.42960  Biso   1.000  H
  H16      1.0000 0.02480  0.83090  0.92960  Biso   1.000  H
  N1       1.0000 0.07530  0.20309  0.67740  Biso   1.000  N
  N2       1.0000 0.42470  0.29691  0.17740  Biso   1.000  N
  N3       1.0000 0.57530  0.29691  0.32260  Biso   1.000  N
  N4       1.0000 0.92470  0.20309  0.82260  Biso   1.000  N
  N5       1.0000 0.92470  0.79691  0.32260  Biso   1.000  N
  N6       1.0000 0.57530  0.70309  0.82260  Biso   1.000  N
  N7       1.0000 0.42470  0.70309  0.67740  Biso   1.000  N
  N8       1.0000 0.07530  0.79691  0.17740  Biso   1.000  N
  C17      1.0000 0.13760  0.18610  0.77700  Biso   1.000  C
  C18      1.0000 0.36240  0.31390  0.27700  Biso   1.000  C
  C19      1.0000 0.63760  0.31390  0.22300  Biso   1.000  C
  C20      1.0000 0.86240  0.18610  0.72300  Biso   1.000  C
  C21      1.0000 0.86240  0.81390  0.22300  Biso   1.000  C
  C22      1.0000 0.63760  0.68610  0.72300  Biso   1.000  C
  C23      1.0000 0.36240  0.68610  0.77700  Biso   1.000  C
  C24      1.0000 0.13760  0.81390  0.27700  Biso   1.000  C
  C25      1.0000 0.19810  0.12560  0.71260  Biso   1.000  C
  C26      1.0000 0.30190  0.37440  0.21260  Biso   1.000  C
  C27      1.0000 0.69810  0.37440  0.28740  Biso   1.000  C
  C28      1.0000 0.80190  0.12560  0.78740  Biso   1.000  C
  C29      1.0000 0.80190  0.87440  0.28740  Biso   1.000  C
  C30      1.0000 0.69810  0.62560  0.78740  Biso   1.000  C
  C31      1.0000 0.30190  0.62560  0.71260  Biso   1.000  C
  C32      1.0000 0.19810  0.87440  0.21260  Biso   1.000  C
  C33      1.0000 0.18780  0.08340  0.53860  Biso   1.000  C
  C34      1.0000 0.31220  0.41660  0.03860  Biso   1.000  C
  C35      1.0000 0.68780  0.41660  0.46140  Biso   1.000  C
  C36      1.0000 0.81220  0.08340  0.96140  Biso   1.000  C
  C37      1.0000 0.81220  0.91660  0.46140  Biso   1.000  C
  C38      1.0000 0.68780  0.58340  0.96140  Biso   1.000  C
  C39      1.0000 0.31220  0.58340  0.53860  Biso   1.000  C
  C40      1.0000 0.18780  0.91660  0.03860  Biso   1.000  C
  H17      1.0000 0.22550  0.04530  0.48950  Biso   1.000  H
  H18      1.0000 0.27450  0.45470  0.98950  Biso   1.000  H
  H19      1.0000 0.72550  0.45470  0.51050  Biso   1.000  H
  H20      1.0000 0.77450  0.04530  0.01050  Biso   1.000  H
  H21      1.0000 0.77450  0.95470  0.51050  Biso   1.000  H
  H22      1.0000 0.72550  0.54530  0.01050  Biso   1.000  H
  H23      1.0000 0.27450  0.54530  0.48950  Biso   1.000  H
  H24      1.0000 0.22550  0.95470  0.98950  Biso   1.000  H
  C41      1.0000 0.25430  0.12870  0.85800  Biso   1.000  C
  C42      1.0000 0.24570  0.37130  0.35800  Biso   1.000  C
  C43      1.0000 0.75430  0.37130  0.14200  Biso   1.000  C
  C44      1.0000 0.74570  0.12870  0.64200  Biso   1.000  C
  C45      1.0000 0.74570  0.87130  0.14200  Biso   1.000  C
  C46      1.0000 0.75430  0.62870  0.64200  Biso   1.000  C
  C47      1.0000 0.24570  0.62870  0.85800  Biso   1.000  C
  C48      1.0000 0.25430  0.87130  0.35800  Biso   1.000  C
  H25      1.0000 0.30070  0.09760  0.85800  Biso   1.000  H
  H26      1.0000 0.19930  0.40240  0.35800  Biso   1.000  H
  H27      1.0000 0.80070  0.40240  0.14200  Biso   1.000  H
  H28      1.0000 0.69930  0.09760  0.64200  Biso   1.000  H
  H29      1.0000 0.69930  0.90240  0.14200  Biso   1.000  H
  H30      1.0000 0.80070  0.59760  0.64200  Biso   1.000  H
  H31      1.0000 0.19930  0.59760  0.85800  Biso   1.000  H
  H32      1.0000 0.30070  0.90240  0.35800  Biso   1.000  H
  C49      1.0000 0.22900  0.18470  0.99680  Biso   1.000  C
  C50      1.0000 0.27100  0.31530  0.49680  Biso   1.000  C
  C51      1.0000 0.72900  0.31530  0.00320  Biso   1.000  C
  C52      1.0000 0.77100  0.18470  0.50320  Biso   1.000  C
  C53      1.0000 0.77100  0.81530  0.00320  Biso   1.000  C
  C54      1.0000 0.72900  0.68470  0.50320  Biso   1.000  C
  C55      1.0000 0.27100  0.68470  0.99680  Biso   1.000  C
  C56      1.0000 0.22900  0.81530  0.49680  Biso   1.000  C
  H33      1.0000 0.25560  0.19760  0.11050  Biso   1.000  H
  H34      1.0000 0.24440  0.30240  0.61050  Biso   1.000  H
  H35      1.0000 0.75560  0.30240  0.88950  Biso   1.000  H
  H36      1.0000 0.74440  0.19760  0.38950  Biso   1.000  H
  H37      1.0000 0.74440  0.80240  0.88950  Biso   1.000  H
  H38      1.0000 0.75560  0.69760  0.38950  Biso   1.000  H
  H39      1.0000 0.24440  0.69760  0.11050  Biso   1.000  H
  H40      1.0000 0.25560  0.80240  0.61050  Biso   1.000  H
  N9       1.0000 0.15845  0.22064  0.94980  Biso   1.000  N
  N10      1.0000 0.34155  0.27936  0.44980  Biso   1.000  N
  N11      1.0000 0.65845  0.27936  0.05020  Biso   1.000  N
  N12      1.0000 0.84155  0.22064  0.55020  Biso   1.000  N
  N13      1.0000 0.84155  0.77936  0.05020  Biso   1.000  N
  N14      1.0000 0.65845  0.72064  0.55020  Biso   1.000  N
  N15      1.0000 0.34155  0.72064  0.94980  Biso   1.000  N
  N16      1.0000 0.15845  0.77936  0.44980  Biso   1.000  N
  H41      1.0000 0.12680  0.26470  0.02530  Biso   1.000  H
  H42      1.0000 0.37320  0.23530  0.52530  Biso   1.000  H
  H43      1.0000 0.62680  0.23530  0.97470  Biso   1.000  H
  H44      1.0000 0.87320  0.26470  0.47470  Biso   1.000  H
  H45      1.0000 0.87320  0.73530  0.97470  Biso   1.000  H
  H46      1.0000 0.62680  0.76470  0.47470  Biso   1.000  H
  H47      1.0000 0.37320  0.76470  0.02530  Biso   1.000  H
  H48      1.0000 0.12680  0.73530  0.52530  Biso   1.000  H
  O1       1.0000 0.08050  0.39303  0.70620  Biso   1.000  O
  O2       1.0000 0.41950  0.10697  0.20620  Biso   1.000  O
  O3       1.0000 0.58050  0.10697  0.29380  Biso   1.000  O
  O4       1.0000 0.91950  0.39303  0.79380  Biso   1.000  O
  O5       1.0000 0.91950  0.60697  0.29380  Biso   1.000  O
  O6       1.0000 0.58050  0.89303  0.79380  Biso   1.000  O
  O7       1.0000 0.41950  0.89303  0.70620  Biso   1.000  O
  O8       1.0000 0.08050  0.60697  0.20620  Biso   1.000  O
  H49      1.0000 0.07640  0.40650  0.57210  Biso   1.000  H
  H50      1.0000 0.42360  0.09350  0.07210  Biso   1.000  H
  H51      1.0000 0.57640  0.09350  0.42790  Biso   1.000  H
  H52      1.0000 0.92360  0.40650  0.92790  Biso   1.000  H
  H53      1.0000 0.92360  0.59350  0.42790  Biso   1.000  H
  H54      1.0000 0.57640  0.90650  0.92790  Biso   1.000  H
  H55      1.0000 0.42360  0.90650  0.57210  Biso   1.000  H
  H56      1.0000 0.07640  0.59350  0.07210  Biso   1.000  H
  H57      1.0000 0.07640  0.44550  0.75660  Biso   1.000  H
  H58      1.0000 0.42360  0.05450  0.25660  Biso   1.000  H
  H59      1.0000 0.57640  0.05450  0.24340  Biso   1.000  H
  H60      1.0000 0.92360  0.44550  0.74340  Biso   1.000  H
  H61      1.0000 0.92360  0.55450  0.24340  Biso   1.000  H
  H62      1.0000 0.57640  0.94550  0.74340  Biso   1.000  H
  H63      1.0000 0.42360  0.94550  0.75660  Biso   1.000  H
  H64      1.0000 0.07640  0.55450  0.25660  Biso   1.000  H
  S1       1.0000 0.00000  0.37704  0.25000  Biso   1.000  S
  S2       1.0000 0.50000  0.12296  0.75000  Biso   1.000  S
  S3       1.0000 0.00000  0.62296  0.75000  Biso   1.000  S
  S4       1.0000 0.50000  0.87704  0.25000  Biso   1.000  S
  O9       1.0000 0.96632  0.32060  0.40310  Biso   1.000  O
  O10      1.0000 0.53368  0.17940  0.90310  Biso   1.000  O
  O11      1.0000 0.46632  0.17940  0.59690  Biso   1.000  O
  O12      1.0000 0.03368  0.32060  0.09690  Biso   1.000  O
  O13      1.0000 0.03368  0.67940  0.59690  Biso   1.000  O
  O14      1.0000 0.46632  0.82060  0.09690  Biso   1.000  O
  O15      1.0000 0.53368  0.82060  0.40310  Biso   1.000  O
  O16      1.0000 0.96632  0.67940  0.90310  Biso   1.000  O
  O17      1.0000 0.06000  0.43483  0.33590  Biso   1.000  O
  O18      1.0000 0.44000  0.06517  0.83590  Biso   1.000  O
  O19      1.0000 0.56000  0.06517  0.66410  Biso   1.000  O
  O20      1.0000 0.94000  0.43483  0.16410  Biso   1.000  O
  O21      1.0000 0.94000  0.56517  0.66410  Biso   1.000  O
  O22      1.0000 0.56000  0.93483  0.16410  Biso   1.000  O
  O23      1.0000 0.44000  0.93483  0.33590  Biso   1.000  O
  O24      1.0000 0.06000  0.56517  0.83590  Biso   1.000  O
