data_image0
_cell_length_a       12.8288
_cell_length_b       8.1099
_cell_length_c       18.0022
_cell_angle_alpha    90
_cell_angle_beta     103.487
_cell_angle_gamma    90

_symmetry_space_group_name_H-M    "P 1"
_symmetry_int_tables_number       1

loop_
  _symmetry_equiv_pos_as_xyz
  'x, y, z'

loop_
  _atom_site_label
  _atom_site_occupancy
  _atom_site_fract_x
  _atom_site_fract_y
  _atom_site_fract_z
  _atom_site_thermal_displace_type
  _atom_site_B_iso_or_equiv
  _atom_site_type_symbol
  Cu1      1.0000 0.46897  0.20705  0.35395  Biso   1.000  Cu
  Cu2      1.0000 0.53103  0.70705  0.14605  Biso   1.000  Cu
  Cu3      1.0000 0.53103  0.79295  0.64605  Biso   1.000  Cu
  Cu4      1.0000 0.46897  0.29295  0.85395  Biso   1.000  Cu
  O1       1.0000 0.40335  0.42338  0.35762  Biso   1.000  O
  O2       1.0000 0.59665  0.92338  0.14238  Biso   1.000  O
  O3       1.0000 0.59665  0.57662  0.64238  Biso   1.000  O
  O4       1.0000 0.40335  0.07662  0.85762  Biso   1.000  O
  O5       1.0000 0.26180  0.57067  0.29899  Biso   1.000  O
  O6       1.0000 0.73820  0.07067  0.20101  Biso   1.000  O
  O7       1.0000 0.73820  0.42933  0.70101  Biso   1.000  O
  O8       1.0000 0.26180  0.92933  0.79899  Biso   1.000  O
  O9       1.0000 0.50477  0.97628  0.33912  Biso   1.000  O
  O10      1.0000 0.49523  0.47628  0.16088  Biso   1.000  O
  O11      1.0000 0.49523  0.02372  0.66088  Biso   1.000  O
  O12      1.0000 0.50477  0.52372  0.83912  Biso   1.000  O
  O13      1.0000 0.46738  0.78143  0.24936  Biso   1.000  O
  O14      1.0000 0.53262  0.28143  0.25064  Biso   1.000  O
  O15      1.0000 0.53262  0.21857  0.75064  Biso   1.000  O
  O16      1.0000 0.46738  0.71857  0.74936  Biso   1.000  O
  N1       1.0000 0.86439  0.22490  0.54212  Biso   1.000  N
  N2       1.0000 0.13561  0.72490  0.95788  Biso   1.000  N
  N3       1.0000 0.13561  0.77510  0.45788  Biso   1.000  N
  N4       1.0000 0.86439  0.27510  0.04212  Biso   1.000  N
  N5       1.0000 0.59230  0.25030  0.43924  Biso   1.000  N
  N6       1.0000 0.40770  0.75030  0.06076  Biso   1.000  N
  N7       1.0000 0.40770  0.74970  0.56076  Biso   1.000  N
  N8       1.0000 0.59230  0.24970  0.93924  Biso   1.000  N
  N9       1.0000 0.68773  0.30090  0.55721  Biso   1.000  N
  N10      1.0000 0.31227  0.80090  0.94279  Biso   1.000  N
  N11      1.0000 0.31227  0.69910  0.44279  Biso   1.000  N
  N12      1.0000 0.68773  0.19910  0.05721  Biso   1.000  N
  H1       1.0000 0.70150  0.34220  0.60940  Biso   1.000  H
  H2       1.0000 0.29850  0.84220  0.89060  Biso   1.000  H
  H3       1.0000 0.29850  0.65780  0.39060  Biso   1.000  H
  H4       1.0000 0.70150  0.15780  0.10940  Biso   1.000  H
  N13      1.0000 0.32855  0.14540  0.28395  Biso   1.000  N
  N14      1.0000 0.67145  0.64540  0.21605  Biso   1.000  N
  N15      1.0000 0.67145  0.85460  0.71605  Biso   1.000  N
  N16      1.0000 0.32855  0.35460  0.78395  Biso   1.000  N
  C1       1.0000 0.86093  0.13890  0.41266  Biso   1.000  C
  C2       1.0000 0.13907  0.63890  0.08734  Biso   1.000  C
  C3       1.0000 0.13907  0.86110  0.58734  Biso   1.000  C
  C4       1.0000 0.86093  0.36110  0.91266  Biso   1.000  C
  H5       1.0000 0.91480  0.11660  0.39260  Biso   1.000  H
  H6       1.0000 0.08520  0.61660  0.10740  Biso   1.000  H
  H7       1.0000 0.08520  0.88340  0.60740  Biso   1.000  H
  H8       1.0000 0.91480  0.38340  0.89260  Biso   1.000  H
  C5       1.0000 0.91293  0.17090  0.48809  Biso   1.000  C
  C6       1.0000 0.08707  0.67090  0.01191  Biso   1.000  C
  C7       1.0000 0.08707  0.82910  0.51191  Biso   1.000  C
  C8       1.0000 0.91293  0.32910  0.98809  Biso   1.000  C
  H9       1.0000 0.99160  0.15840  0.50400  Biso   1.000  H
  H10      1.0000 0.00840  0.65840  0.99600  Biso   1.000  H
  H11      1.0000 0.00840  0.84160  0.49600  Biso   1.000  H
  H12      1.0000 0.99160  0.34160  0.00400  Biso   1.000  H
  C9       1.0000 0.75875  0.24550  0.51632  Biso   1.000  C
  C10      1.0000 0.24125  0.74550  0.98368  Biso   1.000  C
  C11      1.0000 0.24125  0.75450  0.48368  Biso   1.000  C
  C12      1.0000 0.75875  0.25450  0.01632  Biso   1.000  C
  C13      1.0000 0.69945  0.21420  0.44242  Biso   1.000  C
  C14      1.0000 0.30055  0.71420  0.05758  Biso   1.000  C
  C15      1.0000 0.30055  0.78580  0.55758  Biso   1.000  C
  C16      1.0000 0.69945  0.28580  0.94242  Biso   1.000  C
  C17      1.0000 0.75168  0.15910  0.38764  Biso   1.000  C
  C18      1.0000 0.24832  0.65910  0.11236  Biso   1.000  C
  C19      1.0000 0.24832  0.84090  0.61236  Biso   1.000  C
  C20      1.0000 0.75168  0.34090  0.88764  Biso   1.000  C
  H13      1.0000 0.72070  0.15460  0.33990  Biso   1.000  H
  H14      1.0000 0.27930  0.65460  0.16010  Biso   1.000  H
  H15      1.0000 0.27930  0.84540  0.66010  Biso   1.000  H
  H16      1.0000 0.72070  0.34540  0.83990  Biso   1.000  H
  C21      1.0000 0.59063  0.30250  0.50841  Biso   1.000  C
  C22      1.0000 0.40937  0.80250  0.99159  Biso   1.000  C
  C23      1.0000 0.40937  0.69750  0.49159  Biso   1.000  C
  C24      1.0000 0.59063  0.19750  0.00841  Biso   1.000  C
  H17      1.0000 0.53110  0.34270  0.52560  Biso   1.000  H
  H18      1.0000 0.46890  0.84270  0.97440  Biso   1.000  H
  H19      1.0000 0.46890  0.65730  0.47440  Biso   1.000  H
  H20      1.0000 0.53110  0.15730  0.02560  Biso   1.000  H
  C25      1.0000 0.28508  0.30280  0.24854  Biso   1.000  C
  C26      1.0000 0.71492  0.80280  0.25146  Biso   1.000  C
  C27      1.0000 0.71492  0.69720  0.75146  Biso   1.000  C
  C28      1.0000 0.28508  0.19720  0.74854  Biso   1.000  C
  H21      1.0000 0.31860  0.33240  0.21090  Biso   1.000  H
  H22      1.0000 0.68140  0.83240  0.28910  Biso   1.000  H
  H23      1.0000 0.68140  0.66760  0.78910  Biso   1.000  H
  H24      1.0000 0.31860  0.16760  0.71090  Biso   1.000  H
  H25      1.0000 0.22360  0.30940  0.23430  Biso   1.000  H
  H26      1.0000 0.77640  0.80940  0.26570  Biso   1.000  H
  H27      1.0000 0.77640  0.69060  0.76570  Biso   1.000  H
  H28      1.0000 0.22360  0.19060  0.73430  Biso   1.000  H
  C29      1.0000 0.31744  0.44330  0.30620  Biso   1.000  C
  C30      1.0000 0.68256  0.94330  0.19380  Biso   1.000  C
  C31      1.0000 0.68256  0.55670  0.69380  Biso   1.000  C
  C32      1.0000 0.31744  0.05670  0.80620  Biso   1.000  C
  C33      1.0000 0.35845  0.02320  0.23151  Biso   1.000  C
  C34      1.0000 0.64155  0.52320  0.26849  Biso   1.000  C
  C35      1.0000 0.64155  0.97680  0.76849  Biso   1.000  C
  C36      1.0000 0.35845  0.47680  0.73151  Biso   1.000  C
  H29      1.0000 0.39400  0.07490  0.19780  Biso   1.000  H
  H30      1.0000 0.60600  0.57490  0.30220  Biso   1.000  H
  H31      1.0000 0.60600  0.92510  0.80220  Biso   1.000  H
  H32      1.0000 0.39400  0.42510  0.69780  Biso   1.000  H
  H33      1.0000 0.30020  0.95740  0.20760  Biso   1.000  H
  H34      1.0000 0.69980  0.45740  0.29240  Biso   1.000  H
  H35      1.0000 0.69980  0.04260  0.79240  Biso   1.000  H
  H36      1.0000 0.30020  0.54260  0.70760  Biso   1.000  H
  C37      1.0000 0.45010  0.91590  0.27627  Biso   1.000  C
  C38      1.0000 0.54990  0.41590  0.22373  Biso   1.000  C
  C39      1.0000 0.54990  0.08410  0.72373  Biso   1.000  C
  C40      1.0000 0.45010  0.58410  0.77627  Biso   1.000  C
  C41      1.0000 0.25359  0.06500  0.32578  Biso   1.000  C
  C42      1.0000 0.74641  0.56500  0.17422  Biso   1.000  C
  C43      1.0000 0.74641  0.93500  0.67422  Biso   1.000  C
  C44      1.0000 0.25359  0.43500  0.82578  Biso   1.000  C
  H37      1.0000 0.18550  0.05910  0.29240  Biso   1.000  H
  H38      1.0000 0.81450  0.55910  0.20760  Biso   1.000  H
  H39      1.0000 0.81450  0.94090  0.70760  Biso   1.000  H
  H40      1.0000 0.18550  0.44090  0.79240  Biso   1.000  H
  H41      1.0000 0.28160  0.95570  0.34290  Biso   1.000  H
  H42      1.0000 0.71840  0.45570  0.15710  Biso   1.000  H
  H43      1.0000 0.71840  0.04430  0.65710  Biso   1.000  H
  H44      1.0000 0.28160  0.54430  0.84290  Biso   1.000  H
  C45      1.0000 0.24081  0.15930  0.39499  Biso   1.000  C
  C46      1.0000 0.75919  0.65930  0.10501  Biso   1.000  C
  C47      1.0000 0.75919  0.84070  0.60501  Biso   1.000  C
  C48      1.0000 0.24081  0.34070  0.89499  Biso   1.000  C
  C49      1.0000 0.15382  0.26450  0.39184  Biso   1.000  C
  C50      1.0000 0.84618  0.76450  0.10816  Biso   1.000  C
  C51      1.0000 0.84618  0.73550  0.60816  Biso   1.000  C
  C52      1.0000 0.15382  0.23550  0.89184  Biso   1.000  C
  H45      1.0000 0.11750  0.28210  0.35490  Biso   1.000  H
  H46      1.0000 0.88250  0.78210  0.14510  Biso   1.000  H
  H47      1.0000 0.88250  0.71790  0.64510  Biso   1.000  H
  H48      1.0000 0.11750  0.21790  0.85490  Biso   1.000  H
  C53      1.0000 0.14488  0.35450  0.45522  Biso   1.000  C
  C54      1.0000 0.85512  0.85450  0.04478  Biso   1.000  C
  C55      1.0000 0.85512  0.64550  0.54478  Biso   1.000  C
  C56      1.0000 0.14488  0.14550  0.95522  Biso   1.000  C
  H49      1.0000 0.09980  0.41560  0.45160  Biso   1.000  H
  H50      1.0000 0.90020  0.91560  0.04840  Biso   1.000  H
  H51      1.0000 0.90020  0.58440  0.54840  Biso   1.000  H
  H52      1.0000 0.09980  0.08440  0.95160  Biso   1.000  H
  C57      1.0000 0.22059  0.33970  0.52295  Biso   1.000  C
  C58      1.0000 0.77941  0.83970  0.97705  Biso   1.000  C
  C59      1.0000 0.77941  0.66030  0.47705  Biso   1.000  C
  C60      1.0000 0.22059  0.16030  0.02295  Biso   1.000  C
  H53      1.0000 0.20670  0.38640  0.56620  Biso   1.000  H
  H54      1.0000 0.79330  0.88640  0.93380  Biso   1.000  H
  H55      1.0000 0.79330  0.61360  0.43380  Biso   1.000  H
  H56      1.0000 0.20670  0.11360  0.06620  Biso   1.000  H
  C61      1.0000 0.30683  0.23240  0.52786  Biso   1.000  C
  C62      1.0000 0.69317  0.73240  0.97214  Biso   1.000  C
  C63      1.0000 0.69317  0.76760  0.47214  Biso   1.000  C
  C64      1.0000 0.30683  0.26760  0.02786  Biso   1.000  C
  H57      1.0000 0.35000  0.21040  0.57690  Biso   1.000  H
  H58      1.0000 0.65000  0.71040  0.92310  Biso   1.000  H
  H59      1.0000 0.65000  0.78960  0.42310  Biso   1.000  H
  H60      1.0000 0.35000  0.28960  0.07690  Biso   1.000  H
  C65      1.0000 0.31597  0.14310  0.46420  Biso   1.000  C
  C66      1.0000 0.68403  0.64310  0.03580  Biso   1.000  C
  C67      1.0000 0.68403  0.85690  0.53580  Biso   1.000  C
  C68      1.0000 0.31597  0.35690  0.96420  Biso   1.000  C
  H61      1.0000 0.36830  0.07920  0.46870  Biso   1.000  H
  H62      1.0000 0.63170  0.57920  0.03130  Biso   1.000  H
  H63      1.0000 0.63170  0.92080  0.53130  Biso   1.000  H
  H64      1.0000 0.36830  0.42080  0.96870  Biso   1.000  H
