data_image0
_cell_length_a       8.302
_cell_length_b       10.208
_cell_length_c       16.143
_cell_angle_alpha    90
_cell_angle_beta     90
_cell_angle_gamma    90

_symmetry_space_group_name_H-M    "P 1"
_symmetry_int_tables_number       1

loop_
  _symmetry_equiv_pos_as_xyz
  'x, y, z'

loop_
  _atom_site_label
  _atom_site_occupancy
  _atom_site_fract_x
  _atom_site_fract_y
  _atom_site_fract_z
  _atom_site_thermal_displace_type
  _atom_site_B_iso_or_equiv
  _atom_site_type_symbol
  Cu1      1.0000 0.64859  0.44175  0.99551  Biso   1.000  Cu
  Cu2      1.0000 0.85141  0.55825  0.49551  Biso   1.000  Cu
  Cu3      1.0000 0.14859  0.05825  0.00449  Biso   1.000  Cu
  Cu4      1.0000 0.35141  0.94175  0.50449  Biso   1.000  Cu
  S1       1.0000 0.91089  0.20938  0.88000  Biso   1.000  S
  S2       1.0000 0.58911  0.79062  0.38000  Biso   1.000  S
  S3       1.0000 0.41089  0.29062  0.12000  Biso   1.000  S
  S4       1.0000 0.08911  0.70938  0.62000  Biso   1.000  S
  O1       1.0000 0.76770  0.27290  0.91413  Biso   1.000  O
  O2       1.0000 0.73230  0.72710  0.41413  Biso   1.000  O
  O3       1.0000 0.26770  0.22710  0.08587  Biso   1.000  O
  O4       1.0000 0.23230  0.77290  0.58587  Biso   1.000  O
  O5       1.0000 0.97500  0.28830  0.81038  Biso   1.000  O
  O6       1.0000 0.52500  0.71170  0.31038  Biso   1.000  O
  O7       1.0000 0.47500  0.21170  0.18962  Biso   1.000  O
  O8       1.0000 0.02500  0.78830  0.68962  Biso   1.000  O
  O9       1.0000 0.03820  0.20390  0.94537  Biso   1.000  O
  O10      1.0000 0.46180  0.79610  0.44537  Biso   1.000  O
  O11      1.0000 0.53820  0.29610  0.05463  Biso   1.000  O
  O12      1.0000 0.96180  0.70390  0.55463  Biso   1.000  O
  O13      1.0000 0.87470  0.07680  0.85090  Biso   1.000  O
  O14      1.0000 0.62530  0.92320  0.35090  Biso   1.000  O
  O15      1.0000 0.37470  0.42320  0.14910  Biso   1.000  O
  O16      1.0000 0.12530  0.57680  0.64910  Biso   1.000  O
  N1       1.0000 0.04120  0.48240  0.14678  Biso   1.000  N
  N2       1.0000 0.45880  0.51760  0.64678  Biso   1.000  N
  N3       1.0000 0.54120  0.01760  0.85322  Biso   1.000  N
  N4       1.0000 0.95880  0.98240  0.35322  Biso   1.000  N
  C1       1.0000 0.42180  0.58880  0.88024  Biso   1.000  C
  C2       1.0000 0.07820  0.41120  0.38024  Biso   1.000  C
  C3       1.0000 0.92180  0.91120  0.11976  Biso   1.000  C
  C4       1.0000 0.57820  0.08880  0.61976  Biso   1.000  C
  H1       1.0000 0.48590  0.66340  0.87780  Biso   1.000  H
  H2       1.0000 0.01410  0.33660  0.37780  Biso   1.000  H
  H3       1.0000 0.98590  0.83660  0.12220  Biso   1.000  H
  H4       1.0000 0.51410  0.16340  0.62220  Biso   1.000  H
  N5       1.0000 0.22880  0.44930  0.86018  Biso   1.000  N
  N6       1.0000 0.27120  0.55070  0.36018  Biso   1.000  N
  N7       1.0000 0.72880  0.05070  0.13982  Biso   1.000  N
  N8       1.0000 0.77120  0.94930  0.63982  Biso   1.000  N
  N9       1.0000 0.45540  0.47770  0.92641  Biso   1.000  N
  N10      1.0000 0.04460  0.52230  0.42641  Biso   1.000  N
  N11      1.0000 0.95540  0.02230  0.07359  Biso   1.000  N
  N12      1.0000 0.54460  0.97770  0.57359  Biso   1.000  N
  N13      1.0000 0.88090  0.68980  0.83335  Biso   1.000  N
  N14      1.0000 0.61910  0.31020  0.33335  Biso   1.000  N
  N15      1.0000 0.38090  0.81020  0.16665  Biso   1.000  N
  N16      1.0000 0.11910  0.18980  0.66665  Biso   1.000  N
  N17      1.0000 0.76880  0.57930  0.93388  Biso   1.000  N
  N18      1.0000 0.73120  0.42070  0.43388  Biso   1.000  N
  N19      1.0000 0.26880  0.92070  0.06612  Biso   1.000  N
  N20      1.0000 0.23120  0.07930  0.56612  Biso   1.000  N
  C5       1.0000 0.82520  0.57300  0.85805  Biso   1.000  C
  C6       1.0000 0.67480  0.42700  0.35805  Biso   1.000  C
  C7       1.0000 0.32520  0.92700  0.14195  Biso   1.000  C
  C8       1.0000 0.17480  0.07300  0.64195  Biso   1.000  C
  H5       1.0000 0.82630  0.49760  0.82580  Biso   1.000  H
  H6       1.0000 0.67370  0.50240  0.32580  Biso   1.000  H
  H7       1.0000 0.32630  0.00240  0.17420  Biso   1.000  H
  H8       1.0000 0.17370  0.99760  0.67420  Biso   1.000  H
  C9       1.0000 0.78890  0.70760  0.95870  Biso   1.000  C
  C10      1.0000 0.71110  0.29240  0.45870  Biso   1.000  C
  C11      1.0000 0.28890  0.79240  0.04130  Biso   1.000  C
  C12      1.0000 0.21110  0.20760  0.54130  Biso   1.000  C
  H9       1.0000 0.75970  0.74160  0.01000  Biso   1.000  H
  H10      1.0000 0.74030  0.25840  0.51000  Biso   1.000  H
  H11      1.0000 0.25970  0.75840  0.99000  Biso   1.000  H
  H12      1.0000 0.24030  0.24160  0.49000  Biso   1.000  H
  N21      1.0000 0.80760  0.46230  0.08641  Biso   1.000  N
  N22      1.0000 0.69240  0.53770  0.58641  Biso   1.000  N
  N23      1.0000 0.30760  0.03770  0.91359  Biso   1.000  N
  N24      1.0000 0.19240  0.96230  0.41359  Biso   1.000  N
  C13      1.0000 0.85720  0.77570  0.89680  Biso   1.000  C
  C14      1.0000 0.64280  0.22430  0.39680  Biso   1.000  C
  C15      1.0000 0.35720  0.72430  0.10320  Biso   1.000  C
  C16      1.0000 0.14280  0.27570  0.60320  Biso   1.000  C
  H13      1.0000 0.88330  0.86430  0.89720  Biso   1.000  H
  H14      1.0000 0.61670  0.13570  0.39720  Biso   1.000  H
  H15      1.0000 0.38330  0.63570  0.10280  Biso   1.000  H
  H16      1.0000 0.11670  0.36430  0.60280  Biso   1.000  H
  C17      1.0000 0.93360  0.54700  0.19490  Biso   1.000  C
  C18      1.0000 0.56640  0.45300  0.69490  Biso   1.000  C
  C19      1.0000 0.43360  0.95300  0.80510  Biso   1.000  C
  C20      1.0000 0.06640  0.04700  0.30510  Biso   1.000  C
  H17      1.0000 0.95510  0.59150  0.24400  Biso   1.000  H
  H18      1.0000 0.54490  0.40850  0.74400  Biso   1.000  H
  H19      1.0000 0.45510  0.90850  0.75600  Biso   1.000  H
  H20      1.0000 0.04490  0.09150  0.25600  Biso   1.000  H
  C21      1.0000 0.96210  0.43510  0.08213  Biso   1.000  C
  C22      1.0000 0.53790  0.56490  0.58213  Biso   1.000  C
  C23      1.0000 0.46210  0.06490  0.91787  Biso   1.000  C
  C24      1.0000 0.03790  0.93510  0.41787  Biso   1.000  C
  H21      1.0000 0.00990  0.38860  0.03910  Biso   1.000  H
  H22      1.0000 0.49010  0.61140  0.53910  Biso   1.000  H
  H23      1.0000 0.50990  0.11140  0.96090  Biso   1.000  H
  H24      1.0000 0.99010  0.88860  0.46090  Biso   1.000  H
  C25      1.0000 0.28190  0.57190  0.83941  Biso   1.000  C
  C26      1.0000 0.21810  0.42810  0.33941  Biso   1.000  C
  C27      1.0000 0.78190  0.92810  0.16059  Biso   1.000  C
  C28      1.0000 0.71810  0.07190  0.66059  Biso   1.000  C
  H25      1.0000 0.23170  0.63130  0.80430  Biso   1.000  H
  H26      1.0000 0.26830  0.36870  0.30430  Biso   1.000  H
  H27      1.0000 0.73170  0.86870  0.19570  Biso   1.000  H
  H28      1.0000 0.76830  0.13130  0.69570  Biso   1.000  H
  C29      1.0000 0.33410  0.39740  0.91219  Biso   1.000  C
  C30      1.0000 0.16590  0.60260  0.41219  Biso   1.000  C
  C31      1.0000 0.83410  0.10260  0.08781  Biso   1.000  C
  C32      1.0000 0.66590  0.89740  0.58781  Biso   1.000  C
  H29      1.0000 0.32390  0.31470  0.93580  Biso   1.000  H
  H30      1.0000 0.17610  0.68530  0.43580  Biso   1.000  H
  H31      1.0000 0.82390  0.18530  0.06420  Biso   1.000  H
  H32      1.0000 0.67610  0.81470  0.56420  Biso   1.000  H
  C33      1.0000 0.78840  0.53390  0.15724  Biso   1.000  C
  C34      1.0000 0.71160  0.46610  0.65724  Biso   1.000  C
  C35      1.0000 0.28840  0.96610  0.84276  Biso   1.000  C
  C36      1.0000 0.21160  0.03390  0.34276  Biso   1.000  C
  H33      1.0000 0.69160  0.56810  0.17650  Biso   1.000  H
  H34      1.0000 0.80840  0.43190  0.67650  Biso   1.000  H
  H35      1.0000 0.19160  0.93190  0.82350  Biso   1.000  H
  H36      1.0000 0.30840  0.06810  0.32350  Biso   1.000  H
  H37      1.0000 0.14600  0.40500  0.84380  Biso   1.000  H
  H38      1.0000 0.35400  0.59500  0.34380  Biso   1.000  H
  H39      1.0000 0.64600  0.09500  0.15620  Biso   1.000  H
  H40      1.0000 0.85400  0.90500  0.65620  Biso   1.000  H
  H41      1.0000 0.13900  0.47200  0.15100  Biso   1.000  H
  H42      1.0000 0.36100  0.52800  0.65100  Biso   1.000  H
  H43      1.0000 0.63900  0.02800  0.84900  Biso   1.000  H
  H44      1.0000 0.86100  0.97200  0.34900  Biso   1.000  H
  H45      1.0000 0.92800  0.70700  0.77900  Biso   1.000  H
  H46      1.0000 0.57200  0.29300  0.27900  Biso   1.000  H
  H47      1.0000 0.42800  0.79300  0.22100  Biso   1.000  H
  H48      1.0000 0.07200  0.20700  0.72100  Biso   1.000  H
