data_image0
_cell_length_a       8.5328
_cell_length_b       9.403
_cell_length_c       10.2376
_cell_angle_alpha    73.876
_cell_angle_beta     71.133
_cell_angle_gamma    64.31

_symmetry_space_group_name_H-M    "P 1"
_symmetry_int_tables_number       1

loop_
  _symmetry_equiv_pos_as_xyz
  'x, y, z'

loop_
  _atom_site_label
  _atom_site_occupancy
  _atom_site_fract_x
  _atom_site_fract_y
  _atom_site_fract_z
  _atom_site_thermal_displace_type
  _atom_site_B_iso_or_equiv
  _atom_site_type_symbol
  Cu1      1.0000 0.66626  0.03474  0.85596  Biso   1.000  Cu
  Cu2      1.0000 0.33374  0.96526  0.14404  Biso   1.000  Cu
  Cu3      1.0000 0.03080  0.95393  0.67409  Biso   1.000  Cu
  Cu4      1.0000 0.96920  0.04607  0.32591  Biso   1.000  Cu
  O1       1.0000 0.90940  0.21690  0.96040  Biso   1.000  O
  O2       1.0000 0.09060  0.78310  0.03960  Biso   1.000  O
  N1       1.0000 0.57400  0.27000  0.84140  Biso   1.000  N
  N2       1.0000 0.42600  0.73000  0.15860  Biso   1.000  N
  O3       1.0000 0.88970  0.05480  0.83660  Biso   1.000  O
  O4       1.0000 0.11030  0.94520  0.16340  Biso   1.000  O
  C1       1.0000 0.34500  0.52970  0.84020  Biso   1.000  C
  C2       1.0000 0.65500  0.47030  0.15980  Biso   1.000  C
  C3       1.0000 0.26540  0.13730  0.52780  Biso   1.000  C
  C4       1.0000 0.73460  0.86270  0.47220  Biso   1.000  C
  N3       1.0000 0.12420  0.12500  0.63050  Biso   1.000  N
  N4       1.0000 0.87580  0.87500  0.36950  Biso   1.000  N
  C5       1.0000 0.64430  0.49310  0.82250  Biso   1.000  C
  C6       1.0000 0.35570  0.50690  0.17750  Biso   1.000  C
  C7       1.0000 0.03320  0.23710  0.71180  Biso   1.000  C
  C8       1.0000 0.96680  0.76290  0.28820  Biso   1.000  C
  C9       1.0000 0.07960  0.36800  0.69070  Biso   1.000  C
  C10      1.0000 0.92040  0.63200  0.30930  Biso   1.000  C
  C11      1.0000 0.31820  0.26170  0.50350  Biso   1.000  C
  C12      1.0000 0.68180  0.73830  0.49650  Biso   1.000  C
  C13      1.0000 0.69470  0.33110  0.82840  Biso   1.000  C
  C14      1.0000 0.30530  0.66890  0.17160  Biso   1.000  C
  C15      1.0000 0.88400  0.20630  0.83380  Biso   1.000  C
  C16      1.0000 0.11600  0.79370  0.16620  Biso   1.000  C
  C17      1.0000 0.46790  0.59310  0.82800  Biso   1.000  C
  C18      1.0000 0.53210  0.40690  0.17200  Biso   1.000  C
  C19      1.0000 0.40250  0.36810  0.84690  Biso   1.000  C
  C20      1.0000 0.59750  0.63190  0.15310  Biso   1.000  C
  C21      1.0000 0.22250  0.38040  0.58360  Biso   1.000  C
  C22      1.0000 0.77750  0.61960  0.41640  Biso   1.000  C
  Cl1      1.0000 0.41602  0.00765  0.86006  Biso   1.000  Cl
  Cl2      1.0000 0.58398  0.99235  0.13994  Biso   1.000  Cl
  Cl3      1.0000 0.21434  0.81575  0.50344  Biso   1.000  Cl
  Cl4      1.0000 0.78566  0.18425  0.49656  Biso   1.000  Cl
  Cl5      1.0000 0.86676  0.79160  0.78238  Biso   1.000  Cl
  Cl6      1.0000 0.13324  0.20840  0.21762  Biso   1.000  Cl
  H1       1.0000 0.32900  0.31900  0.85500  Biso   1.000  H
  H2       1.0000 0.67100  0.68100  0.14500  Biso   1.000  H
  H3       1.0000 0.23300  0.58800  0.84300  Biso   1.000  H
  H4       1.0000 0.76700  0.41200  0.15700  Biso   1.000  H
  H5       1.0000 0.43300  0.69300  0.83000  Biso   1.000  H
  H6       1.0000 0.56700  0.30700  0.17000  Biso   1.000  H
  H7       1.0000 0.72100  0.53200  0.81200  Biso   1.000  H
  H8       1.0000 0.27900  0.46800  0.18800  Biso   1.000  H
  H9       1.0000 0.02000  0.43200  0.75500  Biso   1.000  H
  H10      1.0000 0.98000  0.56800  0.24500  Biso   1.000  H
  H11      1.0000 0.24900  0.46600  0.57400  Biso   1.000  H
  H12      1.0000 0.75100  0.53400  0.42600  Biso   1.000  H
  H13      1.0000 0.41100  0.25500  0.43500  Biso   1.000  H
  H14      1.0000 0.58900  0.74500  0.56500  Biso   1.000  H
  H15      1.0000 0.32400  0.06500  0.48100  Biso   1.000  H
  H16      1.0000 0.67600  0.93500  0.51900  Biso   1.000  H
  H17      1.0000 0.99600  0.15900  0.97100  Biso   1.000  H
  H18      1.0000 0.00400  0.84100  0.02900  Biso   1.000  H
