data_image0
_cell_length_a       31.5983
_cell_length_b       6.9132
_cell_length_c       11.64
_cell_angle_alpha    90
_cell_angle_beta     90
_cell_angle_gamma    90

_symmetry_space_group_name_H-M    "P 1"
_symmetry_int_tables_number       1

loop_
  _symmetry_equiv_pos_as_xyz
  'x, y, z'

loop_
  _atom_site_label
  _atom_site_occupancy
  _atom_site_fract_x
  _atom_site_fract_y
  _atom_site_fract_z
  _atom_site_thermal_displace_type
  _atom_site_B_iso_or_equiv
  _atom_site_type_symbol
  C1       1.0000 0.58684  0.29110  0.57620  Biso   1.000  C
  C2       1.0000 0.41316  0.70890  0.07620  Biso   1.000  C
  C3       1.0000 0.08684  0.20890  0.57620  Biso   1.000  C
  C4       1.0000 0.91316  0.79110  0.07620  Biso   1.000  C
  C5       1.0000 0.66375  0.37160  0.78760  Biso   1.000  C
  C6       1.0000 0.33625  0.62840  0.28760  Biso   1.000  C
  C7       1.0000 0.16375  0.12840  0.78760  Biso   1.000  C
  C8       1.0000 0.83625  0.87160  0.28760  Biso   1.000  C
  C9       1.0000 0.33641  0.12790  0.25930  Biso   1.000  C
  C10      1.0000 0.66359  0.87210  0.75930  Biso   1.000  C
  C11      1.0000 0.83641  0.37210  0.25930  Biso   1.000  C
  C12      1.0000 0.16359  0.62790  0.75930  Biso   1.000  C
  C13      1.0000 0.41239  0.21200  0.04610  Biso   1.000  C
  C14      1.0000 0.58761  0.78800  0.54610  Biso   1.000  C
  C15      1.0000 0.91239  0.28800  0.04610  Biso   1.000  C
  C16      1.0000 0.08761  0.71200  0.54610  Biso   1.000  C
  Cu1      1.0000 0.49383  0.25254  0.27739  Biso   1.000  Cu
  Cu2      1.0000 0.50617  0.74746  0.77739  Biso   1.000  Cu
  Cu3      1.0000 0.99383  0.24746  0.27739  Biso   1.000  Cu
  Cu4      1.0000 0.00617  0.75254  0.77739  Biso   1.000  Cu
  Cu5      1.0000 0.24439  0.08390  0.55938  Biso   1.000  Cu
  Cu6      1.0000 0.75561  0.91610  0.05938  Biso   1.000  Cu
  Cu7      1.0000 0.74439  0.41610  0.55938  Biso   1.000  Cu
  Cu8      1.0000 0.25561  0.58390  0.05938  Biso   1.000  Cu
  N1       1.0000 0.54136  0.24700  0.44589  Biso   1.000  N
  N2       1.0000 0.45864  0.75300  0.94589  Biso   1.000  N
  N3       1.0000 0.04136  0.25300  0.44589  Biso   1.000  N
  N4       1.0000 0.95864  0.74700  0.94589  Biso   1.000  N
  N5       1.0000 0.58160  0.30290  0.46288  Biso   1.000  N
  N6       1.0000 0.41840  0.69710  0.96288  Biso   1.000  N
  N7       1.0000 0.08160  0.19710  0.46288  Biso   1.000  N
  N8       1.0000 0.91840  0.80290  0.96288  Biso   1.000  N
  N9       1.0000 0.55210  0.23020  0.63078  Biso   1.000  N
  N10      1.0000 0.44790  0.76980  0.13078  Biso   1.000  N
  N11      1.0000 0.05210  0.26980  0.63078  Biso   1.000  N
  N12      1.0000 0.94790  0.73020  0.13078  Biso   1.000  N
  N13      1.0000 0.52383  0.20360  0.54571  Biso   1.000  N
  N14      1.0000 0.47617  0.79640  0.04571  Biso   1.000  N
  N15      1.0000 0.02383  0.29640  0.54571  Biso   1.000  N
  N16      1.0000 0.97617  0.70360  0.04571  Biso   1.000  N
  N17      1.0000 0.62619  0.33870  0.62531  Biso   1.000  N
  N18      1.0000 0.37381  0.66130  0.12531  Biso   1.000  N
  N19      1.0000 0.12619  0.16130  0.62531  Biso   1.000  N
  N20      1.0000 0.87381  0.83870  0.12531  Biso   1.000  N
  N21      1.0000 0.62521  0.32650  0.73356  Biso   1.000  N
  N22      1.0000 0.37479  0.67350  0.23356  Biso   1.000  N
  N23      1.0000 0.12521  0.17350  0.73356  Biso   1.000  N
  N24      1.0000 0.87479  0.82650  0.23356  Biso   1.000  N
  N25      1.0000 0.70079  0.42320  0.74124  Biso   1.000  N
  N26      1.0000 0.29921  0.57680  0.24124  Biso   1.000  N
  N27      1.0000 0.20079  0.07680  0.74124  Biso   1.000  N
  N28      1.0000 0.79921  0.92320  0.24124  Biso   1.000  N
  N29      1.0000 0.72626  0.45200  0.83176  Biso   1.000  N
  N30      1.0000 0.27374  0.54800  0.33176  Biso   1.000  N
  N31      1.0000 0.22626  0.04800  0.83176  Biso   1.000  N
  N32      1.0000 0.77374  0.95200  0.33176  Biso   1.000  N
  N33      1.0000 0.70491  0.41900  0.92844  Biso   1.000  N
  N34      1.0000 0.29509  0.58100  0.42844  Biso   1.000  N
  N35      1.0000 0.20491  0.08100  0.92844  Biso   1.000  N
  N36      1.0000 0.79509  0.91900  0.42844  Biso   1.000  N
  N37      1.0000 0.66521  0.36690  0.90266  Biso   1.000  N
  N38      1.0000 0.33479  0.63310  0.40266  Biso   1.000  N
  N39      1.0000 0.16521  0.13310  0.90266  Biso   1.000  N
  N40      1.0000 0.83479  0.86690  0.40266  Biso   1.000  N
  N41      1.0000 0.29155  0.07720  0.39030  Biso   1.000  N
  N42      1.0000 0.70845  0.92280  0.89030  Biso   1.000  N
  N43      1.0000 0.79155  0.42280  0.39030  Biso   1.000  N
  N44      1.0000 0.20845  0.57720  0.89030  Biso   1.000  N
  N45      1.0000 0.27343  0.04100  0.29000  Biso   1.000  N
  N46      1.0000 0.72657  0.95900  0.79000  Biso   1.000  N
  N47      1.0000 0.77343  0.45900  0.29000  Biso   1.000  N
  N48      1.0000 0.22657  0.54100  0.79000  Biso   1.000  N
  N49      1.0000 0.30117  0.07220  0.20496  Biso   1.000  N
  N50      1.0000 0.69883  0.92780  0.70496  Biso   1.000  N
  N51      1.0000 0.80117  0.42780  0.20496  Biso   1.000  N
  N52      1.0000 0.19883  0.57220  0.70496  Biso   1.000  N
  N53      1.0000 0.33171  0.13340  0.37355  Biso   1.000  N
  N54      1.0000 0.66829  0.86660  0.87355  Biso   1.000  N
  N55      1.0000 0.83171  0.36660  0.37355  Biso   1.000  N
  N56      1.0000 0.16829  0.63340  0.87355  Biso   1.000  N
  N57      1.0000 0.37568  0.17610  0.20968  Biso   1.000  N
  N58      1.0000 0.62432  0.82390  0.70968  Biso   1.000  N
  N59      1.0000 0.87568  0.32390  0.20968  Biso   1.000  N
  N60      1.0000 0.12432  0.67610  0.70968  Biso   1.000  N
  N61      1.0000 0.37414  0.16930  0.10124  Biso   1.000  N
  N62      1.0000 0.62586  0.83070  0.60124  Biso   1.000  N
  N63      1.0000 0.87414  0.33070  0.10124  Biso   1.000  N
  N64      1.0000 0.12586  0.66930  0.60124  Biso   1.000  N
  N65      1.0000 0.44990  0.26310  0.09190  Biso   1.000  N
  N66      1.0000 0.55010  0.73690  0.59190  Biso   1.000  N
  N67      1.0000 0.94990  0.23690  0.09190  Biso   1.000  N
  N68      1.0000 0.05010  0.76310  0.59190  Biso   1.000  N
  N69      1.0000 0.47511  0.28570  0.00036  Biso   1.000  N
  N70      1.0000 0.52489  0.71430  0.50036  Biso   1.000  N
  N71      1.0000 0.97511  0.21430  0.00036  Biso   1.000  N
  N72      1.0000 0.02489  0.78570  0.50036  Biso   1.000  N
  N73      1.0000 0.45352  0.24910  0.90470  Biso   1.000  N
  N74      1.0000 0.54648  0.75090  0.40470  Biso   1.000  N
  N75      1.0000 0.95352  0.25090  0.90470  Biso   1.000  N
  N76      1.0000 0.04648  0.74910  0.40470  Biso   1.000  N
  N77      1.0000 0.41364  0.20390  0.93153  Biso   1.000  N
  N78      1.0000 0.58636  0.79610  0.43153  Biso   1.000  N
  N79      1.0000 0.91364  0.29610  0.93153  Biso   1.000  N
  N80      1.0000 0.08636  0.70390  0.43153  Biso   1.000  N
  N81      1.0000 0.53240  0.05750  0.19820  Biso   1.000  N
  N82      1.0000 0.46760  0.94250  0.69820  Biso   1.000  N
  N83      1.0000 0.03240  0.44250  0.19820  Biso   1.000  N
  N84      1.0000 0.96760  0.55750  0.69820  Biso   1.000  N
  H1       1.0000 0.51790  0.99710  0.14100  Biso   1.000  H
  H2       1.0000 0.48210  0.00290  0.64100  Biso   1.000  H
  H3       1.0000 0.01790  0.50290  0.14100  Biso   1.000  H
  H4       1.0000 0.98210  0.49710  0.64100  Biso   1.000  H
  H5       1.0000 0.54140  0.96820  0.25030  Biso   1.000  H
  H6       1.0000 0.45860  0.03180  0.75030  Biso   1.000  H
  H7       1.0000 0.04140  0.53180  0.25030  Biso   1.000  H
  H8       1.0000 0.95860  0.46820  0.75030  Biso   1.000  H
  H9       1.0000 0.55520  0.12000  0.16800  Biso   1.000  H
  H10      1.0000 0.44480  0.88000  0.66800  Biso   1.000  H
  H11      1.0000 0.05520  0.38000  0.16800  Biso   1.000  H
  H12      1.0000 0.94480  0.62000  0.66800  Biso   1.000  H
  N85      1.0000 0.52604  0.47520  0.20665  Biso   1.000  N
  N86      1.0000 0.47396  0.52480  0.70665  Biso   1.000  N
  N87      1.0000 0.02604  0.02480  0.20665  Biso   1.000  N
  N88      1.0000 0.97396  0.97520  0.70665  Biso   1.000  N
  H13      1.0000 0.54820  0.42850  0.16520  Biso   1.000  H
  H14      1.0000 0.45180  0.57150  0.66520  Biso   1.000  H
  H15      1.0000 0.04820  0.07150  0.16520  Biso   1.000  H
  H16      1.0000 0.95180  0.92850  0.66520  Biso   1.000  H
  H17      1.0000 0.53590  0.55410  0.26330  Biso   1.000  H
  H18      1.0000 0.46410  0.44590  0.76330  Biso   1.000  H
  H19      1.0000 0.03590  0.94590  0.26330  Biso   1.000  H
  H20      1.0000 0.96410  0.05410  0.76330  Biso   1.000  H
  H21      1.0000 0.50850  0.54340  0.15960  Biso   1.000  H
  H22      1.0000 0.49150  0.45660  0.65960  Biso   1.000  H
  H23      1.0000 0.00850  0.95660  0.15960  Biso   1.000  H
  H24      1.0000 0.99150  0.04340  0.65960  Biso   1.000  H
  N89      1.0000 0.45634  0.44890  0.35980  Biso   1.000  N
  N90      1.0000 0.54366  0.55110  0.85980  Biso   1.000  N
  N91      1.0000 0.95634  0.05110  0.35980  Biso   1.000  N
  N92      1.0000 0.04366  0.94890  0.85980  Biso   1.000  N
  H25      1.0000 0.44420  0.52910  0.30720  Biso   1.000  H
  H26      1.0000 0.55580  0.47090  0.80720  Biso   1.000  H
  H27      1.0000 0.94420  0.97090  0.30720  Biso   1.000  H
  H28      1.0000 0.05580  0.02910  0.80720  Biso   1.000  H
  H29      1.0000 0.47230  0.51950  0.40950  Biso   1.000  H
  H30      1.0000 0.52770  0.48050  0.90950  Biso   1.000  H
  H31      1.0000 0.97230  0.98050  0.40950  Biso   1.000  H
  H32      1.0000 0.02770  0.01950  0.90950  Biso   1.000  H
  H33      1.0000 0.43570  0.38550  0.39940  Biso   1.000  H
  H34      1.0000 0.56430  0.61450  0.89940  Biso   1.000  H
  H35      1.0000 0.93570  0.11450  0.39940  Biso   1.000  H
  H36      1.0000 0.06430  0.88550  0.89940  Biso   1.000  H
  N93      1.0000 0.46136  0.02870  0.34718  Biso   1.000  N
  N94      1.0000 0.53864  0.97130  0.84718  Biso   1.000  N
  N95      1.0000 0.96136  0.47130  0.34718  Biso   1.000  N
  N96      1.0000 0.03864  0.52870  0.84718  Biso   1.000  N
  H37      1.0000 0.44820  0.96610  0.29490  Biso   1.000  H
  H38      1.0000 0.55180  0.03390  0.79490  Biso   1.000  H
  H39      1.0000 0.94820  0.53390  0.29490  Biso   1.000  H
  H40      1.0000 0.05180  0.46610  0.79490  Biso   1.000  H
  H41      1.0000 0.47580  0.96300  0.39450  Biso   1.000  H
  H42      1.0000 0.52420  0.03700  0.89450  Biso   1.000  H
  H43      1.0000 0.97580  0.53700  0.39450  Biso   1.000  H
  H44      1.0000 0.02420  0.46300  0.89450  Biso   1.000  H
  H45      1.0000 0.43900  0.04800  0.39700  Biso   1.000  H
  H46      1.0000 0.56100  0.95200  0.89700  Biso   1.000  H
  H47      1.0000 0.93900  0.45200  0.39700  Biso   1.000  H
  H48      1.0000 0.06100  0.54800  0.89700  Biso   1.000  H
  N97      1.0000 0.21113  0.30790  0.49302  Biso   1.000  N
  N98      1.0000 0.78887  0.69210  0.99302  Biso   1.000  N
  N99      1.0000 0.71113  0.19210  0.49302  Biso   1.000  N
  N100     1.0000 0.28887  0.80790  0.99302  Biso   1.000  N
  H49      1.0000 0.22680  0.36770  0.43790  Biso   1.000  H
  H50      1.0000 0.77320  0.63230  0.93790  Biso   1.000  H
  H51      1.0000 0.72680  0.13230  0.43790  Biso   1.000  H
  H52      1.0000 0.27320  0.86770  0.93790  Biso   1.000  H
  H53      1.0000 0.18670  0.26300  0.46150  Biso   1.000  H
  H54      1.0000 0.81330  0.73700  0.96150  Biso   1.000  H
  H55      1.0000 0.68670  0.23700  0.46150  Biso   1.000  H
  H56      1.0000 0.31330  0.76300  0.96150  Biso   1.000  H
  H57      1.0000 0.20490  0.39380  0.54980  Biso   1.000  H
  H58      1.0000 0.79510  0.60620  0.04980  Biso   1.000  H
  H59      1.0000 0.70490  0.10620  0.54980  Biso   1.000  H
  H60      1.0000 0.29510  0.89380  0.04980  Biso   1.000  H
  N101     1.0000 0.28391  0.28010  0.63670  Biso   1.000  N
  N102     1.0000 0.71609  0.71990  0.13670  Biso   1.000  N
  N103     1.0000 0.78391  0.21990  0.63670  Biso   1.000  N
  N104     1.0000 0.21609  0.78010  0.13670  Biso   1.000  N
  H61      1.0000 0.26950  0.34530  0.69210  Biso   1.000  H
  H62      1.0000 0.73050  0.65470  0.19210  Biso   1.000  H
  H63      1.0000 0.76950  0.15470  0.69210  Biso   1.000  H
  H64      1.0000 0.23050  0.84530  0.19210  Biso   1.000  H
  H65      1.0000 0.30620  0.21670  0.66900  Biso   1.000  H
  H66      1.0000 0.69380  0.78330  0.16900  Biso   1.000  H
  H67      1.0000 0.80620  0.28330  0.66900  Biso   1.000  H
  H68      1.0000 0.19380  0.71670  0.16900  Biso   1.000  H
  H69      1.0000 0.29360  0.36530  0.58320  Biso   1.000  H
  H70      1.0000 0.70640  0.63470  0.08320  Biso   1.000  H
  H71      1.0000 0.79360  0.13470  0.58320  Biso   1.000  H
  H72      1.0000 0.20640  0.86530  0.08320  Biso   1.000  H
  N105     1.0000 0.27726  0.86150  0.63063  Biso   1.000  N
  N106     1.0000 0.72274  0.13850  0.13063  Biso   1.000  N
  N107     1.0000 0.77726  0.63850  0.63063  Biso   1.000  N
  N108     1.0000 0.22274  0.36150  0.13063  Biso   1.000  N
  H73      1.0000 0.28430  0.77470  0.57500  Biso   1.000  H
  H74      1.0000 0.71570  0.22530  0.07500  Biso   1.000  H
  H75      1.0000 0.78430  0.72530  0.57500  Biso   1.000  H
  H76      1.0000 0.21570  0.27470  0.07500  Biso   1.000  H
  H77      1.0000 0.30120  0.90790  0.66410  Biso   1.000  H
  H78      1.0000 0.69880  0.09210  0.16410  Biso   1.000  H
  H79      1.0000 0.80120  0.59210  0.66410  Biso   1.000  H
  H80      1.0000 0.19880  0.40790  0.16410  Biso   1.000  H
  H81      1.0000 0.26100  0.80230  0.68470  Biso   1.000  H
  H82      1.0000 0.73900  0.19770  0.18470  Biso   1.000  H
  H83      1.0000 0.76100  0.69770  0.68470  Biso   1.000  H
  H84      1.0000 0.23900  0.30230  0.18470  Biso   1.000  H
  N109     1.0000 0.20726  0.88760  0.47434  Biso   1.000  N
  N110     1.0000 0.79274  0.11240  0.97434  Biso   1.000  N
  N111     1.0000 0.70726  0.61240  0.47434  Biso   1.000  N
  N112     1.0000 0.29274  0.38760  0.97434  Biso   1.000  N
  H85      1.0000 0.19120  0.82150  0.52600  Biso   1.000  H
  H86      1.0000 0.80880  0.17850  0.02600  Biso   1.000  H
  H87      1.0000 0.69120  0.67850  0.52600  Biso   1.000  H
  H88      1.0000 0.30880  0.32150  0.02600  Biso   1.000  H
  H89      1.0000 0.19010  0.95090  0.42410  Biso   1.000  H
  H90      1.0000 0.80990  0.04910  0.92410  Biso   1.000  H
  H91      1.0000 0.69010  0.54910  0.42410  Biso   1.000  H
  H92      1.0000 0.30990  0.45090  0.92410  Biso   1.000  H
  H93      1.0000 0.22400  0.80320  0.43520  Biso   1.000  H
  H94      1.0000 0.77600  0.19680  0.93520  Biso   1.000  H
  H95      1.0000 0.72400  0.69680  0.43520  Biso   1.000  H
  H96      1.0000 0.27600  0.30320  0.93520  Biso   1.000  H
  O1       1.0000 0.61174  0.42550  0.09288  Biso   1.000  O
  O2       1.0000 0.38826  0.57450  0.59288  Biso   1.000  O
  O3       1.0000 0.11174  0.07450  0.09288  Biso   1.000  O
  O4       1.0000 0.88826  0.92550  0.59288  Biso   1.000  O
  H97      1.0000 0.61930  0.37690  0.02930  Biso   1.000  H
  H98      1.0000 0.38070  0.62310  0.52930  Biso   1.000  H
  H99      1.0000 0.11930  0.12310  0.02930  Biso   1.000  H
  H100     1.0000 0.88070  0.87690  0.52930  Biso   1.000  H
  H101     1.0000 0.60970  0.54480  0.07600  Biso   1.000  H
  H102     1.0000 0.39030  0.45520  0.57600  Biso   1.000  H
  H103     1.0000 0.10970  0.95520  0.07600  Biso   1.000  H
  H104     1.0000 0.89030  0.04480  0.57600  Biso   1.000  H
  O5       1.0000 0.64731  0.34650  0.30605  Biso   1.000  O
  O6       1.0000 0.35269  0.65350  0.80605  Biso   1.000  O
  O7       1.0000 0.14731  0.15350  0.30605  Biso   1.000  O
  O8       1.0000 0.85269  0.84650  0.80605  Biso   1.000  O
  H105     1.0000 0.62460  0.35540  0.34470  Biso   1.000  H
  H106     1.0000 0.37540  0.64460  0.84470  Biso   1.000  H
  H107     1.0000 0.12460  0.14460  0.34470  Biso   1.000  H
  H108     1.0000 0.87540  0.85540  0.84470  Biso   1.000  H
  H109     1.0000 0.63700  0.40150  0.24740  Biso   1.000  H
  H110     1.0000 0.36300  0.59850  0.74740  Biso   1.000  H
  H111     1.0000 0.13700  0.09850  0.24740  Biso   1.000  H
  H112     1.0000 0.86300  0.90150  0.74740  Biso   1.000  H
  O9       1.0000 0.63863  0.94830  0.25192  Biso   1.000  O
  O10      1.0000 0.36137  0.05170  0.75192  Biso   1.000  O
  O11      1.0000 0.13863  0.55170  0.25192  Biso   1.000  O
  O12      1.0000 0.86137  0.44830  0.75192  Biso   1.000  O
  H113     1.0000 0.62470  0.90310  0.30840  Biso   1.000  H
  H114     1.0000 0.37530  0.09690  0.80840  Biso   1.000  H
  H115     1.0000 0.12470  0.59690  0.30840  Biso   1.000  H
  H116     1.0000 0.87530  0.40310  0.80840  Biso   1.000  H
  H117     1.0000 0.63960  0.06740  0.26980  Biso   1.000  H
  H118     1.0000 0.36040  0.93260  0.76980  Biso   1.000  H
  H119     1.0000 0.13960  0.43260  0.26980  Biso   1.000  H
  H120     1.0000 0.86040  0.56740  0.76980  Biso   1.000  H
  O13      1.0000 0.60572  0.81560  0.03916  Biso   1.000  O
  O14      1.0000 0.39428  0.18440  0.53916  Biso   1.000  O
  O15      1.0000 0.10572  0.68440  0.03916  Biso   1.000  O
  O16      1.0000 0.89428  0.31560  0.53916  Biso   1.000  O
  H121     1.0000 0.62270  0.84010  0.98440  Biso   1.000  H
  H122     1.0000 0.37730  0.15990  0.48440  Biso   1.000  H
  H123     1.0000 0.12270  0.65990  0.98440  Biso   1.000  H
  H124     1.0000 0.87730  0.34010  0.48440  Biso   1.000  H
  H125     1.0000 0.61240  0.86990  0.10210  Biso   1.000  H
  H126     1.0000 0.38760  0.13010  0.60210  Biso   1.000  H
  H127     1.0000 0.11240  0.63010  0.10210  Biso   1.000  H
  H128     1.0000 0.88760  0.36990  0.60210  Biso   1.000  H
