data_image0
_cell_length_a       9.7961
_cell_length_b       9.6229
_cell_length_c       18.295
_cell_angle_alpha    90
_cell_angle_beta     102.846
_cell_angle_gamma    90

_symmetry_space_group_name_H-M    "P 1"
_symmetry_int_tables_number       1

loop_
  _symmetry_equiv_pos_as_xyz
  'x, y, z'

loop_
  _atom_site_label
  _atom_site_occupancy
  _atom_site_fract_x
  _atom_site_fract_y
  _atom_site_fract_z
  _atom_site_thermal_displace_type
  _atom_site_B_iso_or_equiv
  _atom_site_type_symbol
  Cu1      1.0000 0.37646  0.49600  0.95136  Biso   1.000  Cu
  Cu2      1.0000 0.62354  0.99600  0.54864  Biso   1.000  Cu
  Cu3      1.0000 0.62354  0.50400  0.04864  Biso   1.000  Cu
  Cu4      1.0000 0.37646  0.00400  0.45136  Biso   1.000  Cu
  O1       1.0000 0.28970  0.58153  0.02758  Biso   1.000  O
  O2       1.0000 0.71030  0.08153  0.47242  Biso   1.000  O
  O3       1.0000 0.71030  0.41847  0.97242  Biso   1.000  O
  O4       1.0000 0.28970  0.91847  0.52758  Biso   1.000  O
  O5       1.0000 0.97720  0.97530  0.46420  Biso   1.000  O
  O6       1.0000 0.02280  0.47530  0.03580  Biso   1.000  O
  O7       1.0000 0.02280  0.02470  0.53580  Biso   1.000  O
  O8       1.0000 0.97720  0.52470  0.96420  Biso   1.000  O
  O9       1.0000 0.49872  0.59034  0.10731  Biso   1.000  O
  O10      1.0000 0.50128  0.09034  0.39269  Biso   1.000  O
  O11      1.0000 0.50128  0.40966  0.89269  Biso   1.000  O
  O12      1.0000 0.49872  0.90966  0.60731  Biso   1.000  O
  O13      1.0000 0.43796  0.81987  0.42340  Biso   1.000  O
  O14      1.0000 0.56204  0.31987  0.07660  Biso   1.000  O
  O15      1.0000 0.56204  0.18013  0.57660  Biso   1.000  O
  O16      1.0000 0.43796  0.68013  0.92340  Biso   1.000  O
  O17      1.0000 0.64766  0.81483  0.50326  Biso   1.000  O
  O18      1.0000 0.35234  0.31483  0.99674  Biso   1.000  O
  O19      1.0000 0.35234  0.18517  0.49674  Biso   1.000  O
  O20      1.0000 0.64766  0.68517  0.00326  Biso   1.000  O
  N1       1.0000 0.20981  0.47877  0.85009  Biso   1.000  N
  N2       1.0000 0.79019  0.97877  0.64991  Biso   1.000  N
  N3       1.0000 0.79019  0.52123  0.14991  Biso   1.000  N
  N4       1.0000 0.20981  0.02123  0.35009  Biso   1.000  N
  N5       1.0000 0.02326  0.42811  0.57030  Biso   1.000  N
  N6       1.0000 0.97674  0.92811  0.92970  Biso   1.000  N
  N7       1.0000 0.97674  0.57189  0.42970  Biso   1.000  N
  N8       1.0000 0.02326  0.07189  0.07030  Biso   1.000  N
  C1       1.0000 0.24810  0.52070  0.78741  Biso   1.000  C
  C2       1.0000 0.75190  0.02070  0.71259  Biso   1.000  C
  C3       1.0000 0.75190  0.47930  0.21259  Biso   1.000  C
  C4       1.0000 0.24810  0.97930  0.28741  Biso   1.000  C
  H1       1.0000 0.32790  0.57890  0.79240  Biso   1.000  H
  H2       1.0000 0.67210  0.07890  0.70760  Biso   1.000  H
  H3       1.0000 0.67210  0.42110  0.20760  Biso   1.000  H
  H4       1.0000 0.32790  0.92110  0.29240  Biso   1.000  H
  C5       1.0000 0.17700  0.48330  0.71616  Biso   1.000  C
  C6       1.0000 0.82300  0.98330  0.78384  Biso   1.000  C
  C7       1.0000 0.82300  0.51670  0.28384  Biso   1.000  C
  C8       1.0000 0.17700  0.01670  0.21616  Biso   1.000  C
  H5       1.0000 0.20840  0.51530  0.67360  Biso   1.000  H
  H6       1.0000 0.79160  0.01530  0.82640  Biso   1.000  H
  H7       1.0000 0.79160  0.48470  0.32640  Biso   1.000  H
  H8       1.0000 0.20840  0.98470  0.17360  Biso   1.000  H
  C9       1.0000 0.05980  0.39890  0.70698  Biso   1.000  C
  C10      1.0000 0.94020  0.89890  0.79302  Biso   1.000  C
  C11      1.0000 0.94020  0.60110  0.29302  Biso   1.000  C
  C12      1.0000 0.05980  0.10110  0.20698  Biso   1.000  C
  C13      1.0000 0.01890  0.35640  0.77147  Biso   1.000  C
  C14      1.0000 0.98110  0.85640  0.72853  Biso   1.000  C
  C15      1.0000 0.98110  0.64360  0.22853  Biso   1.000  C
  C16      1.0000 0.01890  0.14360  0.27147  Biso   1.000  C
  H9       1.0000 0.93860  0.29920  0.76790  Biso   1.000  H
  H10      1.0000 0.06140  0.79920  0.73210  Biso   1.000  H
  H11      1.0000 0.06140  0.70080  0.23210  Biso   1.000  H
  H12      1.0000 0.93860  0.20080  0.26790  Biso   1.000  H
  C17      1.0000 0.09610  0.39810  0.84112  Biso   1.000  C
  C18      1.0000 0.90390  0.89810  0.65888  Biso   1.000  C
  C19      1.0000 0.90390  0.60190  0.15888  Biso   1.000  C
  C20      1.0000 0.09610  0.10190  0.34112  Biso   1.000  C
  H13      1.0000 0.06680  0.36770  0.88460  Biso   1.000  H
  H14      1.0000 0.93320  0.86770  0.61540  Biso   1.000  H
  H15      1.0000 0.93320  0.63230  0.11540  Biso   1.000  H
  H16      1.0000 0.06680  0.13230  0.38460  Biso   1.000  H
  C21      1.0000 0.98300  0.34950  0.63006  Biso   1.000  C
  C22      1.0000 0.01700  0.84950  0.86994  Biso   1.000  C
  C23      1.0000 0.01700  0.65050  0.36994  Biso   1.000  C
  C24      1.0000 0.98300  0.15050  0.13006  Biso   1.000  C
  H17      1.0000 0.88090  0.35910  0.62570  Biso   1.000  H
  H18      1.0000 0.11910  0.85910  0.87430  Biso   1.000  H
  H19      1.0000 0.11910  0.64090  0.37430  Biso   1.000  H
  H20      1.0000 0.88090  0.14090  0.12570  Biso   1.000  H
  H21      1.0000 0.00370  0.24990  0.62440  Biso   1.000  H
  H22      1.0000 0.99630  0.74990  0.87560  Biso   1.000  H
  H23      1.0000 0.99630  0.75010  0.37560  Biso   1.000  H
  H24      1.0000 0.00370  0.25010  0.12440  Biso   1.000  H
  C25      1.0000 0.95410  0.56330  0.55966  Biso   1.000  C
  C26      1.0000 0.04590  0.06330  0.94034  Biso   1.000  C
  C27      1.0000 0.04590  0.43670  0.44034  Biso   1.000  C
  C28      1.0000 0.95410  0.93670  0.05966  Biso   1.000  C
  H25      1.0000 0.85160  0.54980  0.54370  Biso   1.000  H
  H26      1.0000 0.14840  0.04980  0.95630  Biso   1.000  H
  H27      1.0000 0.14840  0.45020  0.45630  Biso   1.000  H
  H28      1.0000 0.85160  0.95020  0.04370  Biso   1.000  H
  H29      1.0000 0.97350  0.61440  0.60780  Biso   1.000  H
  H30      1.0000 0.02650  0.11440  0.89220  Biso   1.000  H
  H31      1.0000 0.02650  0.38560  0.39220  Biso   1.000  H
  H32      1.0000 0.97350  0.88560  0.10780  Biso   1.000  H
  C29      1.0000 0.99500  0.35210  0.49876  Biso   1.000  C
  C30      1.0000 0.00500  0.85210  0.00124  Biso   1.000  C
  C31      1.0000 0.00500  0.64790  0.50124  Biso   1.000  C
  C32      1.0000 0.99500  0.14790  0.99876  Biso   1.000  C
  H33      1.0000 0.04370  0.26130  0.50550  Biso   1.000  H
  H34      1.0000 0.95630  0.76130  0.99450  Biso   1.000  H
  H35      1.0000 0.95630  0.73870  0.49450  Biso   1.000  H
  H36      1.0000 0.04370  0.23870  0.00550  Biso   1.000  H
  H37      1.0000 0.89330  0.33470  0.48190  Biso   1.000  H
  H38      1.0000 0.10670  0.83470  0.01810  Biso   1.000  H
  H39      1.0000 0.10670  0.66530  0.51810  Biso   1.000  H
  H40      1.0000 0.89330  0.16530  0.98190  Biso   1.000  H
  C33      1.0000 0.34640  0.58820  0.22476  Biso   1.000  C
  C34      1.0000 0.65360  0.08820  0.27524  Biso   1.000  C
  C35      1.0000 0.65360  0.41180  0.77524  Biso   1.000  C
  C36      1.0000 0.34640  0.91180  0.72476  Biso   1.000  C
  C37      1.0000 0.28730  0.46010  0.23364  Biso   1.000  C
  C38      1.0000 0.71270  0.96010  0.26636  Biso   1.000  C
  C39      1.0000 0.71270  0.53990  0.76636  Biso   1.000  C
  C40      1.0000 0.28730  0.03990  0.73364  Biso   1.000  C
  H41      1.0000 0.21910  0.42150  0.19360  Biso   1.000  H
  H42      1.0000 0.78090  0.92150  0.30640  Biso   1.000  H
  H43      1.0000 0.78090  0.57850  0.80640  Biso   1.000  H
  H44      1.0000 0.21910  0.07850  0.69360  Biso   1.000  H
  C41      1.0000 0.32700  0.38810  0.30032  Biso   1.000  C
  C42      1.0000 0.67300  0.88810  0.19968  Biso   1.000  C
  C43      1.0000 0.67300  0.61190  0.69968  Biso   1.000  C
  C44      1.0000 0.32700  0.11190  0.80032  Biso   1.000  C
  H45      1.0000 0.28730  0.29960  0.30560  Biso   1.000  H
  H46      1.0000 0.71270  0.79960  0.19440  Biso   1.000  H
  H47      1.0000 0.71270  0.70040  0.69440  Biso   1.000  H
  H48      1.0000 0.28730  0.20040  0.80560  Biso   1.000  H
  C45      1.0000 0.42450  0.44460  0.35949  Biso   1.000  C
  C46      1.0000 0.57550  0.94460  0.14051  Biso   1.000  C
  C47      1.0000 0.57550  0.55540  0.64051  Biso   1.000  C
  C48      1.0000 0.42450  0.05540  0.85949  Biso   1.000  C
  H49      1.0000 0.44940  0.39550  0.40560  Biso   1.000  H
  H50      1.0000 0.55060  0.89550  0.09440  Biso   1.000  H
  H51      1.0000 0.55060  0.60450  0.59440  Biso   1.000  H
  H52      1.0000 0.44940  0.10450  0.90560  Biso   1.000  H
  C49      1.0000 0.48570  0.57150  0.35228  Biso   1.000  C
  C50      1.0000 0.51430  0.07150  0.14772  Biso   1.000  C
  C51      1.0000 0.51430  0.42850  0.64772  Biso   1.000  C
  C52      1.0000 0.48570  0.92850  0.85228  Biso   1.000  C
  C53      1.0000 0.44630  0.64252  0.28387  Biso   1.000  C
  C54      1.0000 0.55370  0.14252  0.21613  Biso   1.000  C
  C55      1.0000 0.55370  0.35748  0.71613  Biso   1.000  C
  C56      1.0000 0.44630  0.85748  0.78387  Biso   1.000  C
  H53      1.0000 0.48870  0.72930  0.27790  Biso   1.000  H
  H54      1.0000 0.51130  0.22930  0.22210  Biso   1.000  H
  H55      1.0000 0.51130  0.27070  0.72210  Biso   1.000  H
  H56      1.0000 0.48870  0.77070  0.77790  Biso   1.000  H
  C57      1.0000 0.59350  0.63140  0.41633  Biso   1.000  C
  C58      1.0000 0.40650  0.13140  0.08367  Biso   1.000  C
  C59      1.0000 0.40650  0.36860  0.58367  Biso   1.000  C
  C60      1.0000 0.59350  0.86860  0.91633  Biso   1.000  C
  H57      1.0000 0.61430  0.56090  0.45670  Biso   1.000  H
  H58      1.0000 0.38570  0.06090  0.04330  Biso   1.000  H
  H59      1.0000 0.38570  0.43910  0.54330  Biso   1.000  H
  H60      1.0000 0.61430  0.93910  0.95670  Biso   1.000  H
  H61      1.0000 0.68080  0.64690  0.39870  Biso   1.000  H
  H62      1.0000 0.31920  0.14690  0.10130  Biso   1.000  H
  H63      1.0000 0.31920  0.35310  0.60130  Biso   1.000  H
  H64      1.0000 0.68080  0.85310  0.89870  Biso   1.000  H
  C61      1.0000 0.55520  0.76679  0.45011  Biso   1.000  C
  C62      1.0000 0.44480  0.26679  0.04989  Biso   1.000  C
  C63      1.0000 0.44480  0.23321  0.54989  Biso   1.000  C
  C64      1.0000 0.55520  0.73321  0.95011  Biso   1.000  C
  C65      1.0000 0.30270  0.66700  0.15124  Biso   1.000  C
  C66      1.0000 0.69730  0.16700  0.34876  Biso   1.000  C
  C67      1.0000 0.69730  0.33300  0.84876  Biso   1.000  C
  C68      1.0000 0.30270  0.83300  0.65124  Biso   1.000  C
  H65      1.0000 0.19950  0.66330  0.13420  Biso   1.000  H
  H66      1.0000 0.80050  0.16330  0.36580  Biso   1.000  H
  H67      1.0000 0.80050  0.33670  0.86580  Biso   1.000  H
  H68      1.0000 0.19950  0.83670  0.63420  Biso   1.000  H
  H69      1.0000 0.33020  0.76570  0.15960  Biso   1.000  H
  H70      1.0000 0.66980  0.26570  0.34040  Biso   1.000  H
  H71      1.0000 0.66980  0.23430  0.84040  Biso   1.000  H
  H72      1.0000 0.33020  0.73430  0.65960  Biso   1.000  H
  C69      1.0000 0.36890  0.60750  0.09025  Biso   1.000  C
  C70      1.0000 0.63110  0.10750  0.40975  Biso   1.000  C
  C71      1.0000 0.63110  0.39250  0.90975  Biso   1.000  C
  C72      1.0000 0.36890  0.89250  0.59025  Biso   1.000  C
