data_image0
_cell_length_a       10.035
_cell_length_b       11.612
_cell_length_c       13.45
_cell_angle_alpha    98.628
_cell_angle_beta     108.676
_cell_angle_gamma    93.376

_symmetry_space_group_name_H-M    "P 1"
_symmetry_int_tables_number       1

loop_
  _symmetry_equiv_pos_as_xyz
  'x, y, z'

loop_
  _atom_site_label
  _atom_site_occupancy
  _atom_site_fract_x
  _atom_site_fract_y
  _atom_site_fract_z
  _atom_site_thermal_displace_type
  _atom_site_B_iso_or_equiv
  _atom_site_type_symbol
  Cu1      1.0000 0.06648  0.10057  0.93888  Biso   1.000  Cu
  Cu2      1.0000 0.93352  0.89943  0.06112  Biso   1.000  Cu
  O1       1.0000 0.10820  0.94438  0.97243  Biso   1.000  O
  O2       1.0000 0.89180  0.05562  0.02757  Biso   1.000  O
  O3       1.0000 0.10880  0.24920  0.60700  Biso   1.000  O
  O4       1.0000 0.89120  0.75080  0.39300  Biso   1.000  O
  H1       1.0000 0.02500  0.23100  0.56600  Biso   1.000  H
  H2       1.0000 0.97500  0.76900  0.43400  Biso   1.000  H
  H3       1.0000 0.10700  0.27300  0.67000  Biso   1.000  H
  H4       1.0000 0.89300  0.72700  0.33000  Biso   1.000  H
  O5       1.0000 0.26170  0.95500  0.88490  Biso   1.000  O
  O6       1.0000 0.73830  0.04500  0.11510  Biso   1.000  O
  O7       1.0000 0.58390  0.71190  0.09340  Biso   1.000  O
  O8       1.0000 0.41610  0.28810  0.90660  Biso   1.000  O
  O9       1.0000 0.52020  0.92650  0.17450  Biso   1.000  O
  O10      1.0000 0.47980  0.07350  0.82550  Biso   1.000  O
  O11      1.0000 0.58430  0.96690  0.22830  Biso   1.000  O
  O12      1.0000 0.41570  0.03310  0.77170  Biso   1.000  O
  O13      1.0000 0.61720  0.83340  0.15770  Biso   1.000  O
  O14      1.0000 0.38280  0.16660  0.84230  Biso   1.000  O
  O15      1.0000 0.42340  0.49850  0.98230  Biso   1.000  O
  O16      1.0000 0.57660  0.50150  0.01770  Biso   1.000  O
  O17      1.0000 0.12390  0.27640  0.81540  Biso   1.000  O
  O18      1.0000 0.87610  0.72360  0.18460  Biso   1.000  O
  O19      1.0000 0.98840  0.24762  0.91406  Biso   1.000  O
  O20      1.0000 0.01160  0.75238  0.08594  Biso   1.000  O
  O21      1.0000 0.37550  0.85750  0.58390  Biso   1.000  O
  O22      1.0000 0.62450  0.14250  0.41610  Biso   1.000  O
  O23      1.0000 0.23820  0.73800  0.45250  Biso   1.000  O
  O24      1.0000 0.76180  0.26200  0.54750  Biso   1.000  O
  O25      1.0000 0.15250  0.85330  0.55050  Biso   1.000  O
  O26      1.0000 0.84750  0.14670  0.44950  Biso   1.000  O
  N1       1.0000 0.22810  0.18670  0.06710  Biso   1.000  N
  N2       1.0000 0.77190  0.81330  0.93290  Biso   1.000  N
  N3       1.0000 0.54980  0.51190  0.36570  Biso   1.000  N
  N4       1.0000 0.45020  0.48810  0.63430  Biso   1.000  N
  N5       1.0000 0.65060  0.76010  0.43830  Biso   1.000  N
  N6       1.0000 0.34940  0.23990  0.56170  Biso   1.000  N
  H5       1.0000 0.73000  0.75300  0.42400  Biso   1.000  H
  H6       1.0000 0.27000  0.24700  0.57600  Biso   1.000  H
  N7       1.0000 0.93340  0.02720  0.79080  Biso   1.000  N
  N8       1.0000 0.06660  0.97280  0.20920  Biso   1.000  N
  N9       1.0000 0.25440  0.81750  0.53020  Biso   1.000  N
  N10      1.0000 0.74560  0.18250  0.46980  Biso   1.000  N
  C1       1.0000 0.36220  0.16040  0.08970  Biso   1.000  C
  C2       1.0000 0.63780  0.83960  0.91030  Biso   1.000  C
  H7       1.0000 0.38080  0.09420  0.04740  Biso   1.000  H
  H8       1.0000 0.61920  0.90580  0.95260  Biso   1.000  H
  C3       1.0000 0.47330  0.22540  0.17140  Biso   1.000  C
  C4       1.0000 0.52670  0.77460  0.82860  Biso   1.000  C
  H9       1.0000 0.56620  0.20330  0.18490  Biso   1.000  H
  H10      1.0000 0.43380  0.79670  0.81510  Biso   1.000  H
  C5       1.0000 0.44990  0.32380  0.23480  Biso   1.000  C
  C6       1.0000 0.55010  0.67620  0.76520  Biso   1.000  C
  C7       1.0000 0.31230  0.34900  0.21280  Biso   1.000  C
  C8       1.0000 0.68770  0.65100  0.78720  Biso   1.000  C
  H11      1.0000 0.29090  0.41380  0.25500  Biso   1.000  H
  H12      1.0000 0.70910  0.58620  0.74500  Biso   1.000  H
  C9       1.0000 0.20500  0.27990  0.12930  Biso   1.000  C
  C10      1.0000 0.79500  0.72010  0.87070  Biso   1.000  C
  H13      1.0000 0.11080  0.29930  0.11530  Biso   1.000  H
  H14      1.0000 0.88920  0.70070  0.88470  Biso   1.000  H
  C11      1.0000 0.57420  0.39300  0.32360  Biso   1.000  C
  C12      1.0000 0.42580  0.60700  0.67640  Biso   1.000  C
  H15      1.0000 0.65550  0.39980  0.29740  Biso   1.000  H
  H16      1.0000 0.34450  0.60020  0.70260  Biso   1.000  H
  H17      1.0000 0.60090  0.34850  0.38300  Biso   1.000  H
  H18      1.0000 0.39910  0.65150  0.61700  Biso   1.000  H
  C13      1.0000 0.55420  0.59130  0.29110  Biso   1.000  C
  C14      1.0000 0.44580  0.40870  0.70890  Biso   1.000  C
  H19      1.0000 0.64620  0.59150  0.27860  Biso   1.000  H
  H20      1.0000 0.35380  0.40850  0.72140  Biso   1.000  H
  H21      1.0000 0.47830  0.56270  0.22190  Biso   1.000  H
  H22      1.0000 0.52170  0.43730  0.77810  Biso   1.000  H
  C15      1.0000 0.53500  0.71450  0.33430  Biso   1.000  C
  C16      1.0000 0.46500  0.28550  0.66570  Biso   1.000  C
  H23      1.0000 0.44190  0.71500  0.34500  Biso   1.000  H
  H24      1.0000 0.55810  0.28500  0.65500  Biso   1.000  H
  H25      1.0000 0.53700  0.76610  0.28230  Biso   1.000  H
  H26      1.0000 0.46300  0.23390  0.71770  Biso   1.000  H
  C17      1.0000 0.66270  0.55570  0.46750  Biso   1.000  C
  C18      1.0000 0.33730  0.44430  0.53250  Biso   1.000  C
  H27      1.0000 0.66000  0.50310  0.51850  Biso   1.000  H
  H28      1.0000 0.34000  0.49690  0.48150  Biso   1.000  H
  H29      1.0000 0.75550  0.55430  0.45650  Biso   1.000  H
  H30      1.0000 0.24450  0.44570  0.54350  Biso   1.000  H
  C19      1.0000 0.64850  0.67920  0.51470  Biso   1.000  C
  C20      1.0000 0.35150  0.32080  0.48530  Biso   1.000  C
  H31      1.0000 0.72750  0.70600  0.58250  Biso   1.000  H
  H32      1.0000 0.27250  0.29400  0.41750  Biso   1.000  H
  H33      1.0000 0.55860  0.68030  0.53030  Biso   1.000  H
  H34      1.0000 0.44140  0.31970  0.46970  Biso   1.000  H
  C21      1.0000 0.63580  0.88520  0.47920  Biso   1.000  C
  C22      1.0000 0.36420  0.11480  0.52080  Biso   1.000  C
  H35      1.0000 0.64770  0.93470  0.42820  Biso   1.000  H
  H36      1.0000 0.35230  0.06530  0.57180  Biso   1.000  H
  H37      1.0000 0.53900  0.88940  0.48240  Biso   1.000  H
  H38      1.0000 0.46100  0.11060  0.51760  Biso   1.000  H
  C23      1.0000 0.79370  0.01420  0.77280  Biso   1.000  C
  C24      1.0000 0.20630  0.98580  0.22720  Biso   1.000  C
  H39      1.0000 0.76020  0.03840  0.83030  Biso   1.000  H
  H40      1.0000 0.23980  0.96160  0.16970  Biso   1.000  H
  C25      1.0000 0.69590  0.96700  0.67370  Biso   1.000  C
  C26      1.0000 0.30410  0.03300  0.32630  Biso   1.000  C
  H41      1.0000 0.59780  0.95730  0.66470  Biso   1.000  H
  H42      1.0000 0.40220  0.04270  0.33530  Biso   1.000  H
  C27      1.0000 0.74160  0.93410  0.58820  Biso   1.000  C
  C28      1.0000 0.25840  0.06590  0.41180  Biso   1.000  C
  C29      1.0000 0.88660  0.94990  0.60560  Biso   1.000  C
  C30      1.0000 0.11340  0.05010  0.39440  Biso   1.000  C
  H43      1.0000 0.92170  0.92980  0.54830  Biso   1.000  H
  H44      1.0000 0.07830  0.07020  0.45170  Biso   1.000  H
  C31      1.0000 0.97890  0.99510  0.70720  Biso   1.000  C
  C32      1.0000 0.02110  0.00490  0.29280  Biso   1.000  C
  H45      1.0000 0.07770  0.00390  0.71870  Biso   1.000  H
  H46      1.0000 0.92230  0.99610  0.28130  Biso   1.000  H
  C33      1.0000 0.14610  0.68580  0.85310  Biso   1.000  C
  C34      1.0000 0.85390  0.31420  0.14690  Biso   1.000  C
  C35      1.0000 0.11850  0.70530  0.74860  Biso   1.000  C
  C36      1.0000 0.88150  0.29470  0.25140  Biso   1.000  C
  H47      1.0000 0.15600  0.77690  0.73650  Biso   1.000  H
  H48      1.0000 0.84400  0.22310  0.26350  Biso   1.000  H
  C37      1.0000 0.03710  0.62120  0.66230  Biso   1.000  C
  C38      1.0000 0.96290  0.37880  0.33770  Biso   1.000  C
  H49      1.0000 0.02150  0.63460  0.59170  Biso   1.000  H
  H50      1.0000 0.97850  0.36540  0.40830  Biso   1.000  H
  C39      1.0000 0.97770  0.51600  0.67910  Biso   1.000  C
  C40      1.0000 0.02230  0.48400  0.32090  Biso   1.000  C
  H51      1.0000 0.92170  0.45860  0.62010  Biso   1.000  H
  H52      1.0000 0.07830  0.54140  0.37990  Biso   1.000  H
  C41      1.0000 0.00110  0.49650  0.78240  Biso   1.000  C
  C42      1.0000 0.99890  0.50350  0.21760  Biso   1.000  C
  C43      1.0000 0.08650  0.58120  0.86830  Biso   1.000  C
  C44      1.0000 0.91350  0.41880  0.13170  Biso   1.000  C
  H53      1.0000 0.10430  0.56690  0.93880  Biso   1.000  H
  H54      1.0000 0.89570  0.43310  0.06120  Biso   1.000  H
  C45      1.0000 0.23320  0.77650  0.94990  Biso   1.000  C
  C46      1.0000 0.76680  0.22350  0.05010  Biso   1.000  C
  C47      1.0000 0.20100  0.90020  0.93300  Biso   1.000  C
  C48      1.0000 0.79900  0.09980  0.06700  Biso   1.000  C
  C49      1.0000 0.92590  0.38950  0.80260  Biso   1.000  C
  C50      1.0000 0.07410  0.61050  0.19740  Biso   1.000  C
  C51      1.0000 0.02370  0.29930  0.84700  Biso   1.000  C
  C52      1.0000 0.97630  0.70070  0.15300  Biso   1.000  C
