data_image0
_cell_length_a       6.9599
_cell_length_b       13.9136
_cell_length_c       17.8236
_cell_angle_alpha    90
_cell_angle_beta     97.993
_cell_angle_gamma    90

_symmetry_space_group_name_H-M    "P 1"
_symmetry_int_tables_number       1

loop_
  _symmetry_equiv_pos_as_xyz
  'x, y, z'

loop_
  _atom_site_label
  _atom_site_occupancy
  _atom_site_fract_x
  _atom_site_fract_y
  _atom_site_fract_z
  _atom_site_thermal_displace_type
  _atom_site_B_iso_or_equiv
  _atom_site_type_symbol
  Cu1      1.0000 0.79636  0.26752  0.34121  Biso   1.000  Cu
  Cu2      1.0000 0.20364  0.76752  0.15879  Biso   1.000  Cu
  Cu3      1.0000 0.20364  0.73248  0.65878  Biso   1.000  Cu
  Cu4      1.0000 0.79636  0.23248  0.84122  Biso   1.000  Cu
  S1       1.0000 0.68270  0.01204  0.19753  Biso   1.000  S
  S2       1.0000 0.31730  0.51204  0.30247  Biso   1.000  S
  S3       1.0000 0.31730  0.98796  0.80247  Biso   1.000  S
  S4       1.0000 0.68270  0.48796  0.69753  Biso   1.000  S
  O1       1.0000 0.87070  0.25008  0.45026  Biso   1.000  O
  O2       1.0000 0.12930  0.75008  0.04974  Biso   1.000  O
  O3       1.0000 0.12930  0.74992  0.54974  Biso   1.000  O
  O4       1.0000 0.87070  0.24992  0.95026  Biso   1.000  O
  H1       1.0000 0.98570  0.26480  0.45930  Biso   1.000  H
  H2       1.0000 0.01430  0.76480  0.04070  Biso   1.000  H
  H3       1.0000 0.01430  0.73520  0.54070  Biso   1.000  H
  H4       1.0000 0.98570  0.23520  0.95930  Biso   1.000  H
  H5       1.0000 0.80760  0.27990  0.47920  Biso   1.000  H
  H6       1.0000 0.19240  0.77990  0.02080  Biso   1.000  H
  H7       1.0000 0.19240  0.72010  0.52080  Biso   1.000  H
  H8       1.0000 0.80760  0.22010  0.97920  Biso   1.000  H
  O5       1.0000 0.25760  0.29862  0.45750  Biso   1.000  O
  O6       1.0000 0.74240  0.79862  0.04250  Biso   1.000  O
  O7       1.0000 0.74240  0.70138  0.54250  Biso   1.000  O
  O8       1.0000 0.25760  0.20138  0.95750  Biso   1.000  O
  O9       1.0000 0.16170  0.25068  0.34303  Biso   1.000  O
  O10      1.0000 0.83830  0.75068  0.15697  Biso   1.000  O
  O11      1.0000 0.83830  0.74932  0.65697  Biso   1.000  O
  O12      1.0000 0.16170  0.24932  0.84303  Biso   1.000  O
  O13      1.0000 0.45330  0.30270  0.37399  Biso   1.000  O
  O14      1.0000 0.54670  0.80270  0.12601  Biso   1.000  O
  O15      1.0000 0.54670  0.69730  0.62601  Biso   1.000  O
  O16      1.0000 0.45330  0.19730  0.87399  Biso   1.000  O
  N1       1.0000 0.75500  0.28368  0.23157  Biso   1.000  N
  N2       1.0000 0.24500  0.78368  0.26843  Biso   1.000  N
  N3       1.0000 0.24500  0.71632  0.76843  Biso   1.000  N
  N4       1.0000 0.75500  0.21632  0.73157  Biso   1.000  N
  N5       1.0000 0.74780  0.13288  0.30945  Biso   1.000  N
  N6       1.0000 0.25220  0.63288  0.19055  Biso   1.000  N
  N7       1.0000 0.25220  0.86712  0.69055  Biso   1.000  N
  N8       1.0000 0.74780  0.36712  0.80945  Biso   1.000  N
  N9       1.0000 0.81410  0.41191  0.33562  Biso   1.000  N
  N10      1.0000 0.18590  0.91191  0.16438  Biso   1.000  N
  N11      1.0000 0.18590  0.58809  0.66438  Biso   1.000  N
  N12      1.0000 0.81410  0.08809  0.83562  Biso   1.000  N
  N13      1.0000 0.29300  0.28203  0.39138  Biso   1.000  N
  N14      1.0000 0.70700  0.78203  0.10862  Biso   1.000  N
  N15      1.0000 0.70700  0.71797  0.60862  Biso   1.000  N
  N16      1.0000 0.29300  0.21797  0.89138  Biso   1.000  N
  N17      1.0000 0.72030  0.20356  0.18747  Biso   1.000  N
  N18      1.0000 0.27970  0.70356  0.31253  Biso   1.000  N
  N19      1.0000 0.27970  0.79644  0.81253  Biso   1.000  N
  N20      1.0000 0.72030  0.29644  0.68747  Biso   1.000  N
  C1       1.0000 0.80640  0.54120  0.24759  Biso   1.000  C
  C2       1.0000 0.19360  0.04120  0.25241  Biso   1.000  C
  C3       1.0000 0.19360  0.45880  0.75241  Biso   1.000  C
  C4       1.0000 0.80640  0.95880  0.74759  Biso   1.000  C
  H9       1.0000 0.79590  0.56260  0.19780  Biso   1.000  H
  H10      1.0000 0.20410  0.06260  0.30220  Biso   1.000  H
  H11      1.0000 0.20410  0.43740  0.80220  Biso   1.000  H
  H12      1.0000 0.79590  0.93740  0.69780  Biso   1.000  H
  C5       1.0000 0.80070  0.44404  0.26334  Biso   1.000  C
  C6       1.0000 0.19930  0.94404  0.23666  Biso   1.000  C
  C7       1.0000 0.19930  0.55596  0.73666  Biso   1.000  C
  C8       1.0000 0.80070  0.05596  0.76334  Biso   1.000  C
  C9       1.0000 0.70960  0.96695  0.29001  Biso   1.000  C
  C10      1.0000 0.29040  0.46695  0.20999  Biso   1.000  C
  C11      1.0000 0.29040  0.03305  0.70999  Biso   1.000  C
  C12      1.0000 0.70960  0.53305  0.79001  Biso   1.000  C
  C13      1.0000 0.70090  0.87259  0.31338  Biso   1.000  C
  C14      1.0000 0.29910  0.37259  0.18662  Biso   1.000  C
  C15      1.0000 0.29910  0.12741  0.68662  Biso   1.000  C
  C16      1.0000 0.70090  0.62741  0.81338  Biso   1.000  C
  H13      1.0000 0.67910  0.82310  0.27820  Biso   1.000  H
  H14      1.0000 0.32090  0.32310  0.22180  Biso   1.000  H
  H15      1.0000 0.32090  0.17690  0.72180  Biso   1.000  H
  H16      1.0000 0.67910  0.67690  0.77820  Biso   1.000  H
  C17      1.0000 0.74310  0.04262  0.34277  Biso   1.000  C
  C18      1.0000 0.25690  0.54262  0.15723  Biso   1.000  C
  C19      1.0000 0.25690  0.95738  0.65723  Biso   1.000  C
  C20      1.0000 0.74310  0.45738  0.84277  Biso   1.000  C
  C21      1.0000 0.77200  0.36890  0.20415  Biso   1.000  C
  C22      1.0000 0.22800  0.86890  0.29585  Biso   1.000  C
  C23      1.0000 0.22800  0.63110  0.79585  Biso   1.000  C
  C24      1.0000 0.77200  0.13110  0.70415  Biso   1.000  C
  C25      1.0000 0.71970  0.12783  0.23429  Biso   1.000  C
  C26      1.0000 0.28030  0.62783  0.26571  Biso   1.000  C
  C27      1.0000 0.28030  0.87217  0.76571  Biso   1.000  C
  C28      1.0000 0.71970  0.37217  0.73429  Biso   1.000  C
  C29      1.0000 0.76630  0.02257  0.41948  Biso   1.000  C
  C30      1.0000 0.23370  0.52257  0.08052  Biso   1.000  C
  C31      1.0000 0.23370  0.97743  0.58052  Biso   1.000  C
  C32      1.0000 0.76630  0.47743  0.91948  Biso   1.000  C
  H17      1.0000 0.78680  0.07190  0.45490  Biso   1.000  H
  H18      1.0000 0.21320  0.57190  0.04510  Biso   1.000  H
  H19      1.0000 0.21320  0.92810  0.54510  Biso   1.000  H
  H20      1.0000 0.78680  0.42810  0.95490  Biso   1.000  H
  C33      1.0000 0.84060  0.57290  0.38003  Biso   1.000  C
  C34      1.0000 0.15940  0.07290  0.11997  Biso   1.000  C
  C35      1.0000 0.15940  0.42710  0.61997  Biso   1.000  C
  C36      1.0000 0.84060  0.92710  0.88003  Biso   1.000  C
  H21      1.0000 0.85430  0.61550  0.42070  Biso   1.000  H
  H22      1.0000 0.14570  0.11550  0.07930  Biso   1.000  H
  H23      1.0000 0.14570  0.38450  0.57930  Biso   1.000  H
  H24      1.0000 0.85430  0.88450  0.92070  Biso   1.000  H
  C37      1.0000 0.75860  0.92740  0.44264  Biso   1.000  C
  C38      1.0000 0.24140  0.42740  0.05736  Biso   1.000  C
  C39      1.0000 0.24140  0.07260  0.55736  Biso   1.000  C
  C40      1.0000 0.75860  0.57260  0.94264  Biso   1.000  C
  H25      1.0000 0.77600  0.91300  0.49410  Biso   1.000  H
  H26      1.0000 0.22400  0.41300  0.00590  Biso   1.000  H
  H27      1.0000 0.22400  0.08700  0.50590  Biso   1.000  H
  H28      1.0000 0.77600  0.58700  0.99410  Biso   1.000  H
  C41      1.0000 0.72530  0.85344  0.38996  Biso   1.000  C
  C42      1.0000 0.27470  0.35344  0.11004  Biso   1.000  C
  C43      1.0000 0.27470  0.14656  0.61004  Biso   1.000  C
  C44      1.0000 0.72530  0.64656  0.88996  Biso   1.000  C
  H29      1.0000 0.71950  0.79030  0.40660  Biso   1.000  H
  H30      1.0000 0.28050  0.29030  0.09340  Biso   1.000  H
  H31      1.0000 0.28050  0.20970  0.59340  Biso   1.000  H
  H32      1.0000 0.71950  0.70970  0.90660  Biso   1.000  H
  C45      1.0000 0.82810  0.60620  0.30696  Biso   1.000  C
  C46      1.0000 0.17190  0.10620  0.19304  Biso   1.000  C
  C47      1.0000 0.17190  0.39380  0.69304  Biso   1.000  C
  C48      1.0000 0.82810  0.89380  0.80696  Biso   1.000  C
  H33      1.0000 0.83420  0.67180  0.29750  Biso   1.000  H
  H34      1.0000 0.16580  0.17180  0.20250  Biso   1.000  H
  H35      1.0000 0.16580  0.32820  0.70250  Biso   1.000  H
  H36      1.0000 0.83420  0.82820  0.79750  Biso   1.000  H
  C49      1.0000 0.76350  0.39240  0.12250  Biso   1.000  C
  C50      1.0000 0.23650  0.89240  0.37750  Biso   1.000  C
  C51      1.0000 0.23650  0.60760  0.87750  Biso   1.000  C
  C52      1.0000 0.76350  0.10760  0.62250  Biso   1.000  C
  H37      1.0000 0.75470  0.33400  0.09350  Biso   1.000  H
  H38      1.0000 0.24530  0.83400  0.40650  Biso   1.000  H
  H39      1.0000 0.24530  0.66600  0.90650  Biso   1.000  H
  H40      1.0000 0.75470  0.16600  0.59350  Biso   1.000  H
  H41      1.0000 0.87860  0.42670  0.11460  Biso   1.000  H
  H42      1.0000 0.12140  0.92670  0.38540  Biso   1.000  H
  H43      1.0000 0.12140  0.57330  0.88540  Biso   1.000  H
  H44      1.0000 0.87860  0.07330  0.61460  Biso   1.000  H
  H45      1.0000 0.65170  0.43150  0.10660  Biso   1.000  H
  H46      1.0000 0.34830  0.93150  0.39340  Biso   1.000  H
  H47      1.0000 0.34830  0.56850  0.89340  Biso   1.000  H
  H48      1.0000 0.65170  0.06850  0.60660  Biso   1.000  H
  C53      1.0000 0.83240  0.47520  0.39197  Biso   1.000  C
  C54      1.0000 0.16760  0.97520  0.10803  Biso   1.000  C
  C55      1.0000 0.16760  0.52480  0.60803  Biso   1.000  C
  C56      1.0000 0.83240  0.02480  0.89197  Biso   1.000  C
  H49      1.0000 0.84000  0.45260  0.44140  Biso   1.000  H
  H50      1.0000 0.16000  0.95260  0.05860  Biso   1.000  H
  H51      1.0000 0.16000  0.54740  0.55860  Biso   1.000  H
  H52      1.0000 0.84000  0.04740  0.94140  Biso   1.000  H
  O17      1.0000 0.65870  0.34560  0.53405  Biso   1.000  O
  O18      1.0000 0.34130  0.84560  0.96595  Biso   1.000  O
  O19      1.0000 0.34130  0.65440  0.46595  Biso   1.000  O
  O20      1.0000 0.65870  0.15440  0.03405  Biso   1.000  O
  H53      1.0000 0.54440  0.34530  0.51560  Biso   1.000  H
  H54      1.0000 0.45560  0.84530  0.98440  Biso   1.000  H
  H55      1.0000 0.45560  0.65470  0.48440  Biso   1.000  H
  H56      1.0000 0.54440  0.15470  0.01560  Biso   1.000  H
  H57      1.0000 0.68150  0.32350  0.57690  Biso   1.000  H
  H58      1.0000 0.31850  0.82350  0.92310  Biso   1.000  H
  H59      1.0000 0.31850  0.67650  0.42310  Biso   1.000  H
  H60      1.0000 0.68150  0.17650  0.07690  Biso   1.000  H
