data_image0
_cell_length_a       8.84
_cell_length_b       12.7073
_cell_length_c       19.617
_cell_angle_alpha    90
_cell_angle_beta     100.998
_cell_angle_gamma    90

_symmetry_space_group_name_H-M    "P 1"
_symmetry_int_tables_number       1

loop_
  _symmetry_equiv_pos_as_xyz
  'x, y, z'

loop_
  _atom_site_label
  _atom_site_occupancy
  _atom_site_fract_x
  _atom_site_fract_y
  _atom_site_fract_z
  _atom_site_thermal_displace_type
  _atom_site_B_iso_or_equiv
  _atom_site_type_symbol
  Cu1      1.0000 0.35406  0.36910  0.31866  Biso   1.000  Cu
  Cu2      1.0000 0.64594  0.86910  0.18134  Biso   1.000  Cu
  Cu3      1.0000 0.64594  0.63090  0.68134  Biso   1.000  Cu
  Cu4      1.0000 0.35406  0.13090  0.81866  Biso   1.000  Cu
  N1       1.0000 0.17290  0.34680  0.24324  Biso   1.000  N
  N2       1.0000 0.82710  0.84680  0.25676  Biso   1.000  N
  N3       1.0000 0.82710  0.65320  0.75676  Biso   1.000  N
  N4       1.0000 0.17290  0.15320  0.74324  Biso   1.000  N
  C1       1.0000 0.17110  0.34340  0.17456  Biso   1.000  C
  C2       1.0000 0.82890  0.84340  0.32544  Biso   1.000  C
  C3       1.0000 0.82890  0.65660  0.82544  Biso   1.000  C
  C4       1.0000 0.17110  0.15660  0.67456  Biso   1.000  C
  H1       1.0000 0.26360  0.34910  0.15890  Biso   1.000  H
  H2       1.0000 0.73640  0.84910  0.34110  Biso   1.000  H
  H3       1.0000 0.73640  0.65090  0.84110  Biso   1.000  H
  H4       1.0000 0.26360  0.15090  0.65890  Biso   1.000  H
  C5       1.0000 0.03600  0.33180  0.12663  Biso   1.000  C
  C6       1.0000 0.96400  0.83180  0.37337  Biso   1.000  C
  C7       1.0000 0.96400  0.66820  0.87337  Biso   1.000  C
  C8       1.0000 0.03600  0.16820  0.62663  Biso   1.000  C
  H5       1.0000 0.03760  0.32770  0.07940  Biso   1.000  H
  H6       1.0000 0.96240  0.82770  0.42060  Biso   1.000  H
  H7       1.0000 0.96240  0.67230  0.92060  Biso   1.000  H
  H8       1.0000 0.03760  0.17230  0.57940  Biso   1.000  H
  C9       1.0000 0.89720  0.32620  0.15017  Biso   1.000  C
  C10      1.0000 0.10280  0.82620  0.34983  Biso   1.000  C
  C11      1.0000 0.10280  0.67380  0.84983  Biso   1.000  C
  C12      1.0000 0.89720  0.17380  0.65017  Biso   1.000  C
  H9       1.0000 0.80440  0.32110  0.11880  Biso   1.000  H
  H10      1.0000 0.19560  0.82110  0.38120  Biso   1.000  H
  H11      1.0000 0.19560  0.67890  0.88120  Biso   1.000  H
  H12      1.0000 0.80440  0.17890  0.61880  Biso   1.000  H
  C13      1.0000 0.89930  0.32830  0.22012  Biso   1.000  C
  C14      1.0000 0.10070  0.82830  0.27988  Biso   1.000  C
  C15      1.0000 0.10070  0.67170  0.77988  Biso   1.000  C
  C16      1.0000 0.89930  0.17170  0.72012  Biso   1.000  C
  H13      1.0000 0.80780  0.32390  0.23670  Biso   1.000  H
  H14      1.0000 0.19220  0.82390  0.26330  Biso   1.000  H
  H15      1.0000 0.19220  0.67610  0.76330  Biso   1.000  H
  H16      1.0000 0.80780  0.17610  0.73670  Biso   1.000  H
  C17      1.0000 0.03850  0.33710  0.26594  Biso   1.000  C
  C18      1.0000 0.96150  0.83710  0.23406  Biso   1.000  C
  C19      1.0000 0.96150  0.66290  0.73406  Biso   1.000  C
  C20      1.0000 0.03850  0.16290  0.76594  Biso   1.000  C
  C21      1.0000 0.05150  0.33680  0.34342  Biso   1.000  C
  C22      1.0000 0.94850  0.83680  0.15658  Biso   1.000  C
  C23      1.0000 0.94850  0.66320  0.65658  Biso   1.000  C
  C24      1.0000 0.05150  0.16320  0.84342  Biso   1.000  C
  O1       1.0000 0.93710  0.32810  0.36941  Biso   1.000  O
  O2       1.0000 0.06290  0.82810  0.13059  Biso   1.000  O
  O3       1.0000 0.06290  0.67190  0.63059  Biso   1.000  O
  O4       1.0000 0.93710  0.17190  0.86941  Biso   1.000  O
  N5       1.0000 0.20210  0.34660  0.37644  Biso   1.000  N
  N6       1.0000 0.79790  0.84660  0.12356  Biso   1.000  N
  N7       1.0000 0.79790  0.65340  0.62356  Biso   1.000  N
  N8       1.0000 0.20210  0.15340  0.87644  Biso   1.000  N
  C25      1.0000 0.25310  0.33910  0.44624  Biso   1.000  C
  C26      1.0000 0.74690  0.83910  0.05376  Biso   1.000  C
  C27      1.0000 0.74690  0.66090  0.55376  Biso   1.000  C
  C28      1.0000 0.25310  0.16090  0.94624  Biso   1.000  C
  O5       1.0000 0.18050  0.31870  0.49203  Biso   1.000  O
  O6       1.0000 0.81950  0.81870  0.00797  Biso   1.000  O
  O7       1.0000 0.81950  0.68130  0.50797  Biso   1.000  O
  O8       1.0000 0.18050  0.18130  0.99203  Biso   1.000  O
  C29      1.0000 0.42560  0.35780  0.46440  Biso   1.000  C
  C30      1.0000 0.57440  0.85780  0.03560  Biso   1.000  C
  C31      1.0000 0.57440  0.64220  0.53560  Biso   1.000  C
  C32      1.0000 0.42560  0.14220  0.96440  Biso   1.000  C
  C33      1.0000 0.50550  0.36010  0.53197  Biso   1.000  C
  C34      1.0000 0.49450  0.86010  0.96803  Biso   1.000  C
  C35      1.0000 0.49450  0.63990  0.46803  Biso   1.000  C
  C36      1.0000 0.50550  0.13990  0.03197  Biso   1.000  C
  H17      1.0000 0.45470  0.34940  0.56880  Biso   1.000  H
  H18      1.0000 0.54530  0.84940  0.93120  Biso   1.000  H
  H19      1.0000 0.54530  0.65060  0.43120  Biso   1.000  H
  H20      1.0000 0.45470  0.15060  0.06880  Biso   1.000  H
  C37      1.0000 0.66270  0.37870  0.54412  Biso   1.000  C
  C38      1.0000 0.33730  0.87870  0.95588  Biso   1.000  C
  C39      1.0000 0.33730  0.62130  0.45588  Biso   1.000  C
  C40      1.0000 0.66270  0.12130  0.04412  Biso   1.000  C
  H21      1.0000 0.71850  0.38160  0.58930  Biso   1.000  H
  H22      1.0000 0.28150  0.88160  0.91070  Biso   1.000  H
  H23      1.0000 0.28150  0.61840  0.41070  Biso   1.000  H
  H24      1.0000 0.71850  0.11840  0.08930  Biso   1.000  H
  C41      1.0000 0.73670  0.39310  0.48818  Biso   1.000  C
  C42      1.0000 0.26330  0.89310  0.01182  Biso   1.000  C
  C43      1.0000 0.26330  0.60690  0.51182  Biso   1.000  C
  C44      1.0000 0.73670  0.10690  0.98818  Biso   1.000  C
  H25      1.0000 0.84260  0.40380  0.49520  Biso   1.000  H
  H26      1.0000 0.15740  0.90380  0.00480  Biso   1.000  H
  H27      1.0000 0.15740  0.59620  0.50480  Biso   1.000  H
  H28      1.0000 0.84260  0.09620  0.99520  Biso   1.000  H
  C45      1.0000 0.64840  0.39090  0.42173  Biso   1.000  C
  C46      1.0000 0.35160  0.89090  0.07827  Biso   1.000  C
  C47      1.0000 0.35160  0.60910  0.57827  Biso   1.000  C
  C48      1.0000 0.64840  0.10910  0.92173  Biso   1.000  C
  H29      1.0000 0.69680  0.40110  0.38410  Biso   1.000  H
  H30      1.0000 0.30320  0.90110  0.11590  Biso   1.000  H
  H31      1.0000 0.30320  0.59890  0.61590  Biso   1.000  H
  H32      1.0000 0.69680  0.09890  0.88410  Biso   1.000  H
  N9       1.0000 0.49590  0.37472  0.40978  Biso   1.000  N
  N10      1.0000 0.50410  0.87472  0.09022  Biso   1.000  N
  N11      1.0000 0.50410  0.62528  0.59022  Biso   1.000  N
  N12      1.0000 0.49590  0.12528  0.90978  Biso   1.000  N
  O9       1.0000 0.48140  0.44184  0.26176  Biso   1.000  O
  O10      1.0000 0.51860  0.94184  0.23824  Biso   1.000  O
  O11      1.0000 0.51860  0.55816  0.73824  Biso   1.000  O
  O12      1.0000 0.48140  0.05816  0.76176  Biso   1.000  O
  C49      1.0000 0.46900  0.54110  0.26394  Biso   1.000  C
  C50      1.0000 0.53100  0.04110  0.23606  Biso   1.000  C
  C51      1.0000 0.53100  0.45890  0.73606  Biso   1.000  C
  C52      1.0000 0.46900  0.95890  0.76394  Biso   1.000  C
  O13      1.0000 0.40470  0.59221  0.30447  Biso   1.000  O
  O14      1.0000 0.59530  0.09221  0.19553  Biso   1.000  O
  O15      1.0000 0.59530  0.40779  0.69553  Biso   1.000  O
  O16      1.0000 0.40470  0.90779  0.80447  Biso   1.000  O
  C53      1.0000 0.53380  0.60410  0.20814  Biso   1.000  C
  C54      1.0000 0.46620  0.10410  0.29186  Biso   1.000  C
  C55      1.0000 0.46620  0.39590  0.79186  Biso   1.000  C
  C56      1.0000 0.53380  0.89590  0.70814  Biso   1.000  C
  C57      1.0000 0.70690  0.58740  0.21645  Biso   1.000  C
  C58      1.0000 0.29310  0.08740  0.28355  Biso   1.000  C
  C59      1.0000 0.29310  0.41260  0.78355  Biso   1.000  C
  C60      1.0000 0.70690  0.91260  0.71645  Biso   1.000  C
  C61      1.0000 0.79550  0.57870  0.28278  Biso   1.000  C
  C62      1.0000 0.20450  0.07870  0.21722  Biso   1.000  C
  C63      1.0000 0.20450  0.42130  0.71722  Biso   1.000  C
  C64      1.0000 0.79550  0.92130  0.78278  Biso   1.000  C
  H33      1.0000 0.74780  0.57370  0.32100  Biso   1.000  H
  H34      1.0000 0.25220  0.07370  0.17900  Biso   1.000  H
  H35      1.0000 0.25220  0.42630  0.67900  Biso   1.000  H
  H36      1.0000 0.74780  0.92630  0.82100  Biso   1.000  H
  C65      1.0000 0.95440  0.57730  0.29200  Biso   1.000  C
  C66      1.0000 0.04560  0.07730  0.20800  Biso   1.000  C
  C67      1.0000 0.04560  0.42270  0.70800  Biso   1.000  C
  C68      1.0000 0.95440  0.92270  0.79200  Biso   1.000  C
  H37      1.0000 0.01320  0.57200  0.33660  Biso   1.000  H
  H38      1.0000 0.98680  0.07200  0.16340  Biso   1.000  H
  H39      1.0000 0.98680  0.42800  0.66340  Biso   1.000  H
  H40      1.0000 0.01320  0.92800  0.83660  Biso   1.000  H
  C69      1.0000 0.02700  0.58380  0.23530  Biso   1.000  C
  C70      1.0000 0.97300  0.08380  0.26470  Biso   1.000  C
  C71      1.0000 0.97300  0.41620  0.76470  Biso   1.000  C
  C72      1.0000 0.02700  0.91620  0.73530  Biso   1.000  C
  H41      1.0000 0.13400  0.58280  0.24160  Biso   1.000  H
  H42      1.0000 0.86600  0.08280  0.25840  Biso   1.000  H
  H43      1.0000 0.86600  0.41720  0.75840  Biso   1.000  H
  H44      1.0000 0.13400  0.91720  0.74160  Biso   1.000  H
  C73      1.0000 0.93930  0.59160  0.16980  Biso   1.000  C
  C74      1.0000 0.06070  0.09160  0.33020  Biso   1.000  C
  C75      1.0000 0.06070  0.40840  0.83020  Biso   1.000  C
  C76      1.0000 0.93930  0.90840  0.66980  Biso   1.000  C
  H45      1.0000 0.98760  0.59550  0.13170  Biso   1.000  H
  H46      1.0000 0.01240  0.09550  0.36830  Biso   1.000  H
  H47      1.0000 0.01240  0.40450  0.86830  Biso   1.000  H
  H48      1.0000 0.98760  0.90450  0.63170  Biso   1.000  H
  C77      1.0000 0.77920  0.59390  0.15951  Biso   1.000  C
  C78      1.0000 0.22080  0.09390  0.34049  Biso   1.000  C
  C79      1.0000 0.22080  0.40610  0.84049  Biso   1.000  C
  C80      1.0000 0.77920  0.90610  0.65951  Biso   1.000  C
  H49      1.0000 0.72100  0.59970  0.11490  Biso   1.000  H
  H50      1.0000 0.27900  0.09970  0.38510  Biso   1.000  H
  H51      1.0000 0.27900  0.40030  0.88510  Biso   1.000  H
  H52      1.0000 0.72100  0.90030  0.61490  Biso   1.000  H
  C81      1.0000 0.43680  0.57220  0.13840  Biso   1.000  C
  C82      1.0000 0.56320  0.07220  0.36160  Biso   1.000  C
  C83      1.0000 0.56320  0.42780  0.86160  Biso   1.000  C
  C84      1.0000 0.43680  0.92780  0.63840  Biso   1.000  C
  C85      1.0000 0.46350  0.47910  0.10514  Biso   1.000  C
  C86      1.0000 0.53650  0.97910  0.39486  Biso   1.000  C
  C87      1.0000 0.53650  0.52090  0.89486  Biso   1.000  C
  C88      1.0000 0.46350  0.02090  0.60514  Biso   1.000  C
  H53      1.0000 0.54760  0.43740  0.12380  Biso   1.000  H
  H54      1.0000 0.45240  0.93740  0.37620  Biso   1.000  H
  H55      1.0000 0.45240  0.56260  0.87620  Biso   1.000  H
  H56      1.0000 0.54760  0.06260  0.62380  Biso   1.000  H
  C89      1.0000 0.36640  0.44800  0.04467  Biso   1.000  C
  C90      1.0000 0.63360  0.94800  0.45533  Biso   1.000  C
  C91      1.0000 0.63360  0.55200  0.95533  Biso   1.000  C
  C92      1.0000 0.36640  0.05200  0.54467  Biso   1.000  C
  H57      1.0000 0.38600  0.38560  0.02300  Biso   1.000  H
  H58      1.0000 0.61400  0.88560  0.47700  Biso   1.000  H
  H59      1.0000 0.61400  0.61440  0.97700  Biso   1.000  H
  H60      1.0000 0.38600  0.11440  0.52300  Biso   1.000  H
  C93      1.0000 0.24010  0.50900  0.01601  Biso   1.000  C
  C94      1.0000 0.75990  0.00900  0.48399  Biso   1.000  C
  C95      1.0000 0.75990  0.49100  0.98399  Biso   1.000  C
  C96      1.0000 0.24010  0.99100  0.51601  Biso   1.000  C
  H61      1.0000 0.17460  0.48770  0.97550  Biso   1.000  H
  H62      1.0000 0.82540  0.98770  0.52450  Biso   1.000  H
  H63      1.0000 0.82540  0.51230  0.02450  Biso   1.000  H
  H64      1.0000 0.17460  0.01230  0.47550  Biso   1.000  H
  C97      1.0000 0.21240  0.60230  0.04856  Biso   1.000  C
  C98      1.0000 0.78760  0.10230  0.45144  Biso   1.000  C
  C99      1.0000 0.78760  0.39770  0.95144  Biso   1.000  C
  C100     1.0000 0.21240  0.89770  0.54856  Biso   1.000  C
  H65      1.0000 0.12860  0.64410  0.02950  Biso   1.000  H
  H66      1.0000 0.87140  0.14410  0.47050  Biso   1.000  H
  H67      1.0000 0.87140  0.35590  0.97050  Biso   1.000  H
  H68      1.0000 0.12860  0.85590  0.52950  Biso   1.000  H
  C101     1.0000 0.30980  0.63330  0.10942  Biso   1.000  C
  C102     1.0000 0.69020  0.13330  0.39058  Biso   1.000  C
  C103     1.0000 0.69020  0.36670  0.89058  Biso   1.000  C
  C104     1.0000 0.30980  0.86670  0.60942  Biso   1.000  C
  H69      1.0000 0.28990  0.69550  0.13110  Biso   1.000  H
  H70      1.0000 0.71010  0.19550  0.36890  Biso   1.000  H
  H71      1.0000 0.71010  0.30450  0.86890  Biso   1.000  H
  H72      1.0000 0.28990  0.80450  0.63110  Biso   1.000  H
  O17      1.0000 0.51310  0.71415  0.21971  Biso   1.000  O
  O18      1.0000 0.48690  0.21415  0.28029  Biso   1.000  O
  O19      1.0000 0.48690  0.28585  0.78029  Biso   1.000  O
  O20      1.0000 0.51310  0.78585  0.71971  Biso   1.000  O
  H73      1.0000 0.46210  0.72170  0.25020  Biso   1.000  H
  H74      1.0000 0.53790  0.22170  0.24980  Biso   1.000  H
  H75      1.0000 0.53790  0.27830  0.74980  Biso   1.000  H
  H76      1.0000 0.46210  0.77830  0.75020  Biso   1.000  H
