data_image0
_cell_length_a       18.0702
_cell_length_b       10.5176
_cell_length_c       29.665
_cell_angle_alpha    90
_cell_angle_beta     90
_cell_angle_gamma    90

_symmetry_space_group_name_H-M    "P 1"
_symmetry_int_tables_number       1

loop_
  _symmetry_equiv_pos_as_xyz
  'x, y, z'

loop_
  _atom_site_label
  _atom_site_occupancy
  _atom_site_fract_x
  _atom_site_fract_y
  _atom_site_fract_z
  _atom_site_thermal_displace_type
  _atom_site_B_iso_or_equiv
  _atom_site_type_symbol
  Cu1      1.0000 0.80881  0.94672  0.11889  Biso   1.000  Cu
  Cu2      1.0000 0.69119  0.05328  0.61889  Biso   1.000  Cu
  Cu3      1.0000 0.19119  0.44672  0.38111  Biso   1.000  Cu
  Cu4      1.0000 0.30881  0.55328  0.88111  Biso   1.000  Cu
  Cu5      1.0000 0.19119  0.05328  0.88111  Biso   1.000  Cu
  Cu6      1.0000 0.30881  0.94672  0.38111  Biso   1.000  Cu
  Cu7      1.0000 0.80881  0.55328  0.61889  Biso   1.000  Cu
  Cu8      1.0000 0.69119  0.44672  0.11889  Biso   1.000  Cu
  S1       1.0000 0.72190  0.99079  0.36657  Biso   1.000  S
  S2       1.0000 0.77810  0.00921  0.86657  Biso   1.000  S
  S3       1.0000 0.27810  0.49079  0.13343  Biso   1.000  S
  S4       1.0000 0.22190  0.50921  0.63343  Biso   1.000  S
  S5       1.0000 0.27810  0.00921  0.63343  Biso   1.000  S
  S6       1.0000 0.22190  0.99079  0.13343  Biso   1.000  S
  S7       1.0000 0.72190  0.50921  0.86657  Biso   1.000  S
  S8       1.0000 0.77810  0.49079  0.36657  Biso   1.000  S
  N1       1.0000 0.89600  0.81910  0.12176  Biso   1.000  N
  N2       1.0000 0.60400  0.18090  0.62176  Biso   1.000  N
  N3       1.0000 0.10400  0.31910  0.37824  Biso   1.000  N
  N4       1.0000 0.39600  0.68090  0.87824  Biso   1.000  N
  N5       1.0000 0.10400  0.18090  0.87824  Biso   1.000  N
  N6       1.0000 0.39600  0.81910  0.37824  Biso   1.000  N
  N7       1.0000 0.89600  0.68090  0.62176  Biso   1.000  N
  N8       1.0000 0.60400  0.31910  0.12176  Biso   1.000  N
  N9       1.0000 0.80480  0.97380  0.19073  Biso   1.000  N
  N10      1.0000 0.69520  0.02620  0.69073  Biso   1.000  N
  N11      1.0000 0.19520  0.47380  0.30927  Biso   1.000  N
  N12      1.0000 0.30480  0.52620  0.80927  Biso   1.000  N
  N13      1.0000 0.19520  0.02620  0.80927  Biso   1.000  N
  N14      1.0000 0.30480  0.97380  0.30927  Biso   1.000  N
  N15      1.0000 0.80480  0.52620  0.69073  Biso   1.000  N
  N16      1.0000 0.69520  0.47380  0.19073  Biso   1.000  N
  N17      1.0000 0.80490  0.17590  0.34593  Biso   1.000  N
  N18      1.0000 0.69510  0.82410  0.84593  Biso   1.000  N
  N19      1.0000 0.19510  0.67590  0.15407  Biso   1.000  N
  N20      1.0000 0.30490  0.32410  0.65407  Biso   1.000  N
  N21      1.0000 0.19510  0.82410  0.65407  Biso   1.000  N
  N22      1.0000 0.30490  0.17590  0.15407  Biso   1.000  N
  N23      1.0000 0.80490  0.32410  0.84593  Biso   1.000  N
  N24      1.0000 0.69510  0.67590  0.34593  Biso   1.000  N
  N25      1.0000 0.79340  0.18690  0.39100  Biso   1.000  N
  N26      1.0000 0.70660  0.81310  0.89100  Biso   1.000  N
  N27      1.0000 0.20660  0.68690  0.10900  Biso   1.000  N
  N28      1.0000 0.29340  0.31310  0.60900  Biso   1.000  N
  N29      1.0000 0.20660  0.81310  0.60900  Biso   1.000  N
  N30      1.0000 0.29340  0.18690  0.10900  Biso   1.000  N
  N31      1.0000 0.79340  0.31310  0.89100  Biso   1.000  N
  N32      1.0000 0.70660  0.68690  0.39100  Biso   1.000  N
  N33      1.0000 0.70670  0.06430  0.54716  Biso   1.000  N
  N34      1.0000 0.79330  0.93570  0.04716  Biso   1.000  N
  N35      1.0000 0.29330  0.56430  0.95284  Biso   1.000  N
  N36      1.0000 0.20670  0.43570  0.45284  Biso   1.000  N
  N37      1.0000 0.29330  0.93570  0.45284  Biso   1.000  N
  N38      1.0000 0.20670  0.06430  0.95284  Biso   1.000  N
  N39      1.0000 0.70670  0.43570  0.04716  Biso   1.000  N
  N40      1.0000 0.79330  0.56430  0.54716  Biso   1.000  N
  O1       1.0000 0.78730  0.54710  0.12093  Biso   1.000  O
  O2       1.0000 0.71270  0.45290  0.62093  Biso   1.000  O
  O3       1.0000 0.21270  0.04710  0.37907  Biso   1.000  O
  O4       1.0000 0.28730  0.95290  0.87907  Biso   1.000  O
  O5       1.0000 0.21270  0.45290  0.87907  Biso   1.000  O
  O6       1.0000 0.28730  0.54710  0.37907  Biso   1.000  O
  O7       1.0000 0.78730  0.95290  0.62093  Biso   1.000  O
  O8       1.0000 0.71270  0.04710  0.12093  Biso   1.000  O
  O9       1.0000 0.75790  0.75240  0.12528  Biso   1.000  O
  O10      1.0000 0.74210  0.24760  0.62528  Biso   1.000  O
  O11      1.0000 0.24210  0.25240  0.37472  Biso   1.000  O
  O12      1.0000 0.25790  0.74760  0.87472  Biso   1.000  O
  O13      1.0000 0.24210  0.24760  0.87472  Biso   1.000  O
  O14      1.0000 0.25790  0.75240  0.37472  Biso   1.000  O
  O15      1.0000 0.75790  0.74760  0.62528  Biso   1.000  O
  O16      1.0000 0.74210  0.25240  0.12528  Biso   1.000  O
  O17      1.0000 0.90520  0.06220  0.11238  Biso   1.000  O
  O18      1.0000 0.59480  0.93780  0.61238  Biso   1.000  O
  O19      1.0000 0.09480  0.56220  0.38762  Biso   1.000  O
  O20      1.0000 0.40520  0.43780  0.88762  Biso   1.000  O
  O21      1.0000 0.09480  0.93780  0.88762  Biso   1.000  O
  O22      1.0000 0.40520  0.06220  0.38762  Biso   1.000  O
  O23      1.0000 0.90520  0.43780  0.61238  Biso   1.000  O
  O24      1.0000 0.59480  0.56220  0.11238  Biso   1.000  O
  O25      1.0000 0.02870  0.05710  0.10893  Biso   1.000  O
  O26      1.0000 0.47130  0.94290  0.60893  Biso   1.000  O
  O27      1.0000 0.97130  0.55710  0.39107  Biso   1.000  O
  O28      1.0000 0.52870  0.44290  0.89107  Biso   1.000  O
  O29      1.0000 0.97130  0.94290  0.89107  Biso   1.000  O
  O30      1.0000 0.52870  0.05710  0.39107  Biso   1.000  O
  O31      1.0000 0.02870  0.44290  0.60893  Biso   1.000  O
  O32      1.0000 0.47130  0.55710  0.10893  Biso   1.000  O
  C1       1.0000 0.80230  0.66070  0.12394  Biso   1.000  C
  C2       1.0000 0.69770  0.33930  0.62394  Biso   1.000  C
  C3       1.0000 0.19770  0.16070  0.37606  Biso   1.000  C
  C4       1.0000 0.30230  0.83930  0.87606  Biso   1.000  C
  C5       1.0000 0.19770  0.33930  0.87606  Biso   1.000  C
  C6       1.0000 0.30230  0.66070  0.37606  Biso   1.000  C
  C7       1.0000 0.80230  0.83930  0.62394  Biso   1.000  C
  C8       1.0000 0.69770  0.16070  0.12394  Biso   1.000  C
  C9       1.0000 0.88330  0.69530  0.12659  Biso   1.000  C
  C10      1.0000 0.61670  0.30470  0.62659  Biso   1.000  C
  C11      1.0000 0.11670  0.19530  0.37341  Biso   1.000  C
  C12      1.0000 0.38330  0.80470  0.87341  Biso   1.000  C
  C13      1.0000 0.11670  0.30470  0.87341  Biso   1.000  C
  C14      1.0000 0.38330  0.69530  0.37341  Biso   1.000  C
  C15      1.0000 0.88330  0.80470  0.62659  Biso   1.000  C
  C16      1.0000 0.61670  0.19530  0.12659  Biso   1.000  C
  C17      1.0000 0.94030  0.61150  0.13290  Biso   1.000  C
  C18      1.0000 0.55970  0.38850  0.63290  Biso   1.000  C
  C19      1.0000 0.05970  0.11150  0.36710  Biso   1.000  C
  C20      1.0000 0.44030  0.88850  0.86710  Biso   1.000  C
  C21      1.0000 0.05970  0.38850  0.86710  Biso   1.000  C
  C22      1.0000 0.44030  0.61150  0.36710  Biso   1.000  C
  C23      1.0000 0.94030  0.88850  0.63290  Biso   1.000  C
  C24      1.0000 0.55970  0.11150  0.13290  Biso   1.000  C
  H1       1.0000 0.93130  0.52490  0.13600  Biso   1.000  H
  H2       1.0000 0.56870  0.47510  0.63600  Biso   1.000  H
  H3       1.0000 0.06870  0.02490  0.36400  Biso   1.000  H
  H4       1.0000 0.43130  0.97510  0.86400  Biso   1.000  H
  H5       1.0000 0.06870  0.47510  0.86400  Biso   1.000  H
  H6       1.0000 0.43130  0.52490  0.36400  Biso   1.000  H
  H7       1.0000 0.93130  0.97510  0.63600  Biso   1.000  H
  H8       1.0000 0.56870  0.02490  0.13600  Biso   1.000  H
  C25      1.0000 0.01210  0.65930  0.13450  Biso   1.000  C
  C26      1.0000 0.48790  0.34070  0.63450  Biso   1.000  C
  C27      1.0000 0.98790  0.15930  0.36550  Biso   1.000  C
  C28      1.0000 0.51210  0.84070  0.86550  Biso   1.000  C
  C29      1.0000 0.98790  0.34070  0.86550  Biso   1.000  C
  C30      1.0000 0.51210  0.65930  0.36550  Biso   1.000  C
  C31      1.0000 0.01210  0.84070  0.63450  Biso   1.000  C
  C32      1.0000 0.48790  0.15930  0.13450  Biso   1.000  C
  H9       1.0000 0.05170  0.60510  0.14010  Biso   1.000  H
  H10      1.0000 0.44830  0.39490  0.64010  Biso   1.000  H
  H11      1.0000 0.94830  0.10510  0.35990  Biso   1.000  H
  H12      1.0000 0.55170  0.89490  0.85990  Biso   1.000  H
  H13      1.0000 0.94830  0.39490  0.85990  Biso   1.000  H
  H14      1.0000 0.55170  0.60510  0.35990  Biso   1.000  H
  H15      1.0000 0.05170  0.89490  0.64010  Biso   1.000  H
  H16      1.0000 0.44830  0.10510  0.14010  Biso   1.000  H
  C33      1.0000 0.02400  0.78580  0.12780  Biso   1.000  C
  C34      1.0000 0.47600  0.21420  0.62780  Biso   1.000  C
  C35      1.0000 0.97600  0.28580  0.37220  Biso   1.000  C
  C36      1.0000 0.52400  0.71420  0.87220  Biso   1.000  C
  C37      1.0000 0.97600  0.21420  0.87220  Biso   1.000  C
  C38      1.0000 0.52400  0.78580  0.37220  Biso   1.000  C
  C39      1.0000 0.02400  0.71420  0.62780  Biso   1.000  C
  C40      1.0000 0.47600  0.28580  0.12780  Biso   1.000  C
  H17      1.0000 0.07200  0.81800  0.12770  Biso   1.000  H
  H18      1.0000 0.42800  0.18200  0.62770  Biso   1.000  H
  H19      1.0000 0.92800  0.31800  0.37230  Biso   1.000  H
  H20      1.0000 0.57200  0.68200  0.87230  Biso   1.000  H
  H21      1.0000 0.92800  0.18200  0.87230  Biso   1.000  H
  H22      1.0000 0.57200  0.81800  0.37230  Biso   1.000  H
  H23      1.0000 0.07200  0.68200  0.62770  Biso   1.000  H
  H24      1.0000 0.42800  0.31800  0.12770  Biso   1.000  H
  C41      1.0000 0.96460  0.86540  0.12114  Biso   1.000  C
  C42      1.0000 0.53540  0.13460  0.62114  Biso   1.000  C
  C43      1.0000 0.03540  0.36540  0.37886  Biso   1.000  C
  C44      1.0000 0.46460  0.63460  0.87886  Biso   1.000  C
  C45      1.0000 0.03540  0.13460  0.87886  Biso   1.000  C
  C46      1.0000 0.46460  0.86540  0.37886  Biso   1.000  C
  C47      1.0000 0.96460  0.63460  0.62114  Biso   1.000  C
  C48      1.0000 0.53540  0.36540  0.12114  Biso   1.000  C
  C49      1.0000 0.96750  0.00700  0.11341  Biso   1.000  C
  C50      1.0000 0.53250  0.99300  0.61341  Biso   1.000  C
  C51      1.0000 0.03250  0.50700  0.38659  Biso   1.000  C
  C52      1.0000 0.46750  0.49300  0.88659  Biso   1.000  C
  C53      1.0000 0.03250  0.99300  0.88659  Biso   1.000  C
  C54      1.0000 0.46750  0.00700  0.38659  Biso   1.000  C
  C55      1.0000 0.96750  0.49300  0.61341  Biso   1.000  C
  C56      1.0000 0.53250  0.50700  0.11341  Biso   1.000  C
  C57      1.0000 0.84220  0.06890  0.21050  Biso   1.000  C
  C58      1.0000 0.65780  0.93110  0.71050  Biso   1.000  C
  C59      1.0000 0.15780  0.56890  0.28950  Biso   1.000  C
  C60      1.0000 0.34220  0.43110  0.78950  Biso   1.000  C
  C61      1.0000 0.15780  0.93110  0.78950  Biso   1.000  C
  C62      1.0000 0.34220  0.06890  0.28950  Biso   1.000  C
  C63      1.0000 0.84220  0.43110  0.71050  Biso   1.000  C
  C64      1.0000 0.65780  0.56890  0.21050  Biso   1.000  C
  H25      1.0000 0.87700  0.11240  0.19340  Biso   1.000  H
  H26      1.0000 0.62300  0.88760  0.69340  Biso   1.000  H
  H27      1.0000 0.12300  0.61240  0.30660  Biso   1.000  H
  H28      1.0000 0.37700  0.38760  0.80660  Biso   1.000  H
  H29      1.0000 0.12300  0.88760  0.80660  Biso   1.000  H
  H30      1.0000 0.37700  0.11240  0.30660  Biso   1.000  H
  H31      1.0000 0.87700  0.38760  0.69340  Biso   1.000  H
  H32      1.0000 0.62300  0.61240  0.19340  Biso   1.000  H
  C65      1.0000 0.83220  0.10640  0.25500  Biso   1.000  C
  C66      1.0000 0.66780  0.89360  0.75500  Biso   1.000  C
  C67      1.0000 0.16780  0.60640  0.24500  Biso   1.000  C
  C68      1.0000 0.33220  0.39360  0.74500  Biso   1.000  C
  C69      1.0000 0.16780  0.89360  0.74500  Biso   1.000  C
  C70      1.0000 0.33220  0.10640  0.24500  Biso   1.000  C
  C71      1.0000 0.83220  0.39360  0.75500  Biso   1.000  C
  C72      1.0000 0.66780  0.60640  0.25500  Biso   1.000  C
  H33      1.0000 0.85950  0.17330  0.26700  Biso   1.000  H
  H34      1.0000 0.64050  0.82670  0.76700  Biso   1.000  H
  H35      1.0000 0.14050  0.67330  0.23300  Biso   1.000  H
  H36      1.0000 0.35950  0.32670  0.73300  Biso   1.000  H
  H37      1.0000 0.14050  0.82670  0.73300  Biso   1.000  H
  H38      1.0000 0.35950  0.17330  0.23300  Biso   1.000  H
  H39      1.0000 0.85950  0.32670  0.76700  Biso   1.000  H
  H40      1.0000 0.64050  0.67330  0.26700  Biso   1.000  H
  C73      1.0000 0.78120  0.04290  0.28090  Biso   1.000  C
  C74      1.0000 0.71880  0.95710  0.78090  Biso   1.000  C
  C75      1.0000 0.21880  0.54290  0.21910  Biso   1.000  C
  C76      1.0000 0.28120  0.45710  0.71910  Biso   1.000  C
  C77      1.0000 0.21880  0.95710  0.71910  Biso   1.000  C
  C78      1.0000 0.28120  0.04290  0.21910  Biso   1.000  C
  C79      1.0000 0.78120  0.45710  0.78090  Biso   1.000  C
  C80      1.0000 0.71880  0.54290  0.28090  Biso   1.000  C
  C81      1.0000 0.74360  0.94680  0.26090  Biso   1.000  C
  C82      1.0000 0.75640  0.05320  0.76090  Biso   1.000  C
  C83      1.0000 0.25640  0.44680  0.23910  Biso   1.000  C
  C84      1.0000 0.24360  0.55320  0.73910  Biso   1.000  C
  C85      1.0000 0.25640  0.05320  0.73910  Biso   1.000  C
  C86      1.0000 0.24360  0.94680  0.23910  Biso   1.000  C
  C87      1.0000 0.74360  0.55320  0.76090  Biso   1.000  C
  C88      1.0000 0.75640  0.44680  0.26090  Biso   1.000  C
  H41      1.0000 0.70920  0.90060  0.27750  Biso   1.000  H
  H42      1.0000 0.79080  0.09940  0.77750  Biso   1.000  H
  H43      1.0000 0.29080  0.40060  0.22250  Biso   1.000  H
  H44      1.0000 0.20920  0.59940  0.72250  Biso   1.000  H
  H45      1.0000 0.29080  0.09940  0.72250  Biso   1.000  H
  H46      1.0000 0.20920  0.90060  0.22250  Biso   1.000  H
  H47      1.0000 0.70920  0.59940  0.77750  Biso   1.000  H
  H48      1.0000 0.79080  0.40060  0.27750  Biso   1.000  H
  C89      1.0000 0.75560  0.91680  0.21670  Biso   1.000  C
  C90      1.0000 0.74440  0.08320  0.71670  Biso   1.000  C
  C91      1.0000 0.24440  0.41680  0.28330  Biso   1.000  C
  C92      1.0000 0.25560  0.58320  0.78330  Biso   1.000  C
  C93      1.0000 0.24440  0.08320  0.78330  Biso   1.000  C
  C94      1.0000 0.25560  0.91680  0.28330  Biso   1.000  C
  C95      1.0000 0.75560  0.58320  0.71670  Biso   1.000  C
  C96      1.0000 0.74440  0.41680  0.21670  Biso   1.000  C
  H49      1.0000 0.72720  0.85210  0.20410  Biso   1.000  H
  H50      1.0000 0.77280  0.14790  0.70410  Biso   1.000  H
  H51      1.0000 0.27280  0.35210  0.29590  Biso   1.000  H
  H52      1.0000 0.22720  0.64790  0.79590  Biso   1.000  H
  H53      1.0000 0.27280  0.14790  0.79590  Biso   1.000  H
  H54      1.0000 0.22720  0.85210  0.29590  Biso   1.000  H
  H55      1.0000 0.72720  0.64790  0.70410  Biso   1.000  H
  H56      1.0000 0.77280  0.35210  0.20410  Biso   1.000  H
  C97      1.0000 0.77190  0.07920  0.32823  Biso   1.000  C
  C98      1.0000 0.72810  0.92080  0.82823  Biso   1.000  C
  C99      1.0000 0.22810  0.57920  0.17177  Biso   1.000  C
  C100     1.0000 0.27190  0.42080  0.67177  Biso   1.000  C
  C101     1.0000 0.22810  0.92080  0.67177  Biso   1.000  C
  C102     1.0000 0.27190  0.07920  0.17177  Biso   1.000  C
  C103     1.0000 0.77190  0.42080  0.82823  Biso   1.000  C
  C104     1.0000 0.72810  0.57920  0.32823  Biso   1.000  C
  C105     1.0000 0.75230  0.09570  0.40663  Biso   1.000  C
  C106     1.0000 0.74770  0.90430  0.90663  Biso   1.000  C
  C107     1.0000 0.24770  0.59570  0.09337  Biso   1.000  C
  C108     1.0000 0.25230  0.40430  0.59337  Biso   1.000  C
  C109     1.0000 0.24770  0.90430  0.59337  Biso   1.000  C
  C110     1.0000 0.25230  0.09570  0.09337  Biso   1.000  C
  C111     1.0000 0.75230  0.40430  0.90663  Biso   1.000  C
  C112     1.0000 0.74770  0.59570  0.40663  Biso   1.000  C
  C113     1.0000 0.73480  0.08360  0.45512  Biso   1.000  C
  C114     1.0000 0.76520  0.91640  0.95512  Biso   1.000  C
  C115     1.0000 0.26520  0.58360  0.04488  Biso   1.000  C
  C116     1.0000 0.23480  0.41640  0.54488  Biso   1.000  C
  C117     1.0000 0.26520  0.91640  0.54488  Biso   1.000  C
  C118     1.0000 0.23480  0.08360  0.04488  Biso   1.000  C
  C119     1.0000 0.73480  0.41640  0.95512  Biso   1.000  C
  C120     1.0000 0.76520  0.58360  0.45512  Biso   1.000  C
  C121     1.0000 0.67760  0.01060  0.47107  Biso   1.000  C
  C122     1.0000 0.82240  0.98940  0.97107  Biso   1.000  C
  C123     1.0000 0.32240  0.51060  0.02893  Biso   1.000  C
  C124     1.0000 0.17760  0.48940  0.52893  Biso   1.000  C
  C125     1.0000 0.32240  0.98940  0.52893  Biso   1.000  C
  C126     1.0000 0.17760  0.01060  0.02893  Biso   1.000  C
  C127     1.0000 0.67760  0.48940  0.97107  Biso   1.000  C
  C128     1.0000 0.82240  0.51060  0.47107  Biso   1.000  C
  H57      1.0000 0.64700  0.96640  0.45130  Biso   1.000  H
  H58      1.0000 0.85300  0.03360  0.95130  Biso   1.000  H
  H59      1.0000 0.35300  0.46640  0.04870  Biso   1.000  H
  H60      1.0000 0.14700  0.53360  0.54870  Biso   1.000  H
  H61      1.0000 0.35300  0.03360  0.54870  Biso   1.000  H
  H62      1.0000 0.14700  0.96640  0.04870  Biso   1.000  H
  H63      1.0000 0.64700  0.53360  0.95130  Biso   1.000  H
  H64      1.0000 0.85300  0.46640  0.45130  Biso   1.000  H
  C129     1.0000 0.66630  0.00400  0.51700  Biso   1.000  C
  C130     1.0000 0.83370  0.99600  0.01700  Biso   1.000  C
  C131     1.0000 0.33370  0.50400  0.98300  Biso   1.000  C
  C132     1.0000 0.16630  0.49600  0.48300  Biso   1.000  C
  C133     1.0000 0.33370  0.99600  0.48300  Biso   1.000  C
  C134     1.0000 0.16630  0.00400  0.98300  Biso   1.000  C
  C135     1.0000 0.66630  0.49600  0.01700  Biso   1.000  C
  C136     1.0000 0.83370  0.50400  0.51700  Biso   1.000  C
  H65      1.0000 0.62760  0.95360  0.52740  Biso   1.000  H
  H66      1.0000 0.87240  0.04640  0.02740  Biso   1.000  H
  H67      1.0000 0.37240  0.45360  0.97260  Biso   1.000  H
  H68      1.0000 0.12760  0.54640  0.47260  Biso   1.000  H
  H69      1.0000 0.37240  0.04640  0.47260  Biso   1.000  H
  H70      1.0000 0.12760  0.95360  0.97260  Biso   1.000  H
  H71      1.0000 0.62760  0.54640  0.02740  Biso   1.000  H
  H72      1.0000 0.87240  0.45360  0.52740  Biso   1.000  H
  C137     1.0000 0.76280  0.13530  0.53118  Biso   1.000  C
  C138     1.0000 0.73720  0.86470  0.03118  Biso   1.000  C
  C139     1.0000 0.23720  0.63530  0.96882  Biso   1.000  C
  C140     1.0000 0.26280  0.36470  0.46882  Biso   1.000  C
  C141     1.0000 0.23720  0.86470  0.46882  Biso   1.000  C
  C142     1.0000 0.26280  0.13530  0.96882  Biso   1.000  C
  C143     1.0000 0.76280  0.36470  0.03118  Biso   1.000  C
  C144     1.0000 0.73720  0.63530  0.53118  Biso   1.000  C
  H73      1.0000 0.79190  0.17920  0.55180  Biso   1.000  H
  H74      1.0000 0.70810  0.82080  0.05180  Biso   1.000  H
  H75      1.0000 0.20810  0.67920  0.94820  Biso   1.000  H
  H76      1.0000 0.29190  0.32080  0.44820  Biso   1.000  H
  H77      1.0000 0.20810  0.82080  0.44820  Biso   1.000  H
  H78      1.0000 0.29190  0.17920  0.94820  Biso   1.000  H
  H79      1.0000 0.79190  0.32080  0.05180  Biso   1.000  H
  H80      1.0000 0.70810  0.67920  0.55180  Biso   1.000  H
  C145     1.0000 0.77950  0.14700  0.48660  Biso   1.000  C
  C146     1.0000 0.72050  0.85300  0.98660  Biso   1.000  C
  C147     1.0000 0.22050  0.64700  0.01340  Biso   1.000  C
  C148     1.0000 0.27950  0.35300  0.51340  Biso   1.000  C
  C149     1.0000 0.22050  0.85300  0.51340  Biso   1.000  C
  C150     1.0000 0.27950  0.14700  0.01340  Biso   1.000  C
  C151     1.0000 0.77950  0.35300  0.98660  Biso   1.000  C
  C152     1.0000 0.72050  0.64700  0.48660  Biso   1.000  C
  H81      1.0000 0.81960  0.19570  0.47720  Biso   1.000  H
  H82      1.0000 0.68040  0.80430  0.97720  Biso   1.000  H
  H83      1.0000 0.18040  0.69570  0.02280  Biso   1.000  H
  H84      1.0000 0.31960  0.30430  0.52280  Biso   1.000  H
  H85      1.0000 0.18040  0.80430  0.52280  Biso   1.000  H
  H86      1.0000 0.31960  0.19570  0.02280  Biso   1.000  H
  H87      1.0000 0.81960  0.30430  0.97720  Biso   1.000  H
  H88      1.0000 0.68040  0.69570  0.47720  Biso   1.000  H
  Cl1      1.0000 0.53670  0.88300  0.05247  Biso   1.000  Cl
  Cl2      1.0000 0.96330  0.11700  0.55247  Biso   1.000  Cl
  Cl3      1.0000 0.46330  0.38300  0.44753  Biso   1.000  Cl
  Cl4      1.0000 0.03670  0.61700  0.94753  Biso   1.000  Cl
  Cl5      1.0000 0.46330  0.11700  0.94753  Biso   1.000  Cl
  Cl6      1.0000 0.03670  0.88300  0.44753  Biso   1.000  Cl
  Cl7      1.0000 0.53670  0.61700  0.55247  Biso   1.000  Cl
  Cl8      1.0000 0.96330  0.38300  0.05247  Biso   1.000  Cl
  Cl9      1.0000 0.49755  0.70050  0.98896  Biso   1.000  Cl
  Cl10     1.0000 0.00245  0.29950  0.48896  Biso   1.000  Cl
  Cl11     1.0000 0.50245  0.20050  0.51104  Biso   1.000  Cl
  Cl12     1.0000 0.99755  0.79950  0.01104  Biso   1.000  Cl
  Cl13     1.0000 0.50245  0.29950  0.01104  Biso   1.000  Cl
  Cl14     1.0000 0.99755  0.70050  0.51104  Biso   1.000  Cl
  Cl15     1.0000 0.49755  0.79950  0.48896  Biso   1.000  Cl
  Cl16     1.0000 0.00245  0.20050  0.98896  Biso   1.000  Cl
  Cl17     1.0000 0.38539  0.85370  0.02889  Biso   1.000  Cl
  Cl18     1.0000 0.11461  0.14630  0.52889  Biso   1.000  Cl
  Cl19     1.0000 0.61461  0.35370  0.47111  Biso   1.000  Cl
  Cl20     1.0000 0.88539  0.64630  0.97111  Biso   1.000  Cl
  Cl21     1.0000 0.61461  0.14630  0.97111  Biso   1.000  Cl
  Cl22     1.0000 0.88539  0.85370  0.47111  Biso   1.000  Cl
  Cl23     1.0000 0.38539  0.64630  0.52889  Biso   1.000  Cl
  Cl24     1.0000 0.11461  0.35370  0.02889  Biso   1.000  Cl
  C153     1.0000 0.47020  0.78020  0.03710  Biso   1.000  C
  C154     1.0000 0.02980  0.21980  0.53710  Biso   1.000  C
  C155     1.0000 0.52980  0.28020  0.46290  Biso   1.000  C
  C156     1.0000 0.97020  0.71980  0.96290  Biso   1.000  C
  C157     1.0000 0.52980  0.21980  0.96290  Biso   1.000  C
  C158     1.0000 0.97020  0.78020  0.46290  Biso   1.000  C
  C159     1.0000 0.47020  0.71980  0.53710  Biso   1.000  C
  C160     1.0000 0.02980  0.28020  0.03710  Biso   1.000  C
  H89      1.0000 0.46450  0.71760  0.06130  Biso   1.000  H
  H90      1.0000 0.03550  0.28240  0.56130  Biso   1.000  H
  H91      1.0000 0.53550  0.21760  0.43870  Biso   1.000  H
  H92      1.0000 0.96450  0.78240  0.93870  Biso   1.000  H
  H93      1.0000 0.53550  0.28240  0.93870  Biso   1.000  H
  H94      1.0000 0.96450  0.71760  0.43870  Biso   1.000  H
  H95      1.0000 0.46450  0.78240  0.56130  Biso   1.000  H
  H96      1.0000 0.03550  0.21760  0.06130  Biso   1.000  H
  Cl25     1.0000 0.11326  0.31160  0.16072  Biso   1.000  Cl
  Cl26     1.0000 0.38674  0.68840  0.66072  Biso   1.000  Cl
  Cl27     1.0000 0.88674  0.81160  0.33928  Biso   1.000  Cl
  Cl28     1.0000 0.61326  0.18840  0.83928  Biso   1.000  Cl
  Cl29     1.0000 0.88674  0.68840  0.83928  Biso   1.000  Cl
  Cl30     1.0000 0.61326  0.31160  0.33928  Biso   1.000  Cl
  Cl31     1.0000 0.11326  0.18840  0.66072  Biso   1.000  Cl
  Cl32     1.0000 0.38674  0.81160  0.16072  Biso   1.000  Cl
  Cl33     1.0000 0.07100  0.13070  0.22703  Biso   1.000  Cl
  Cl34     1.0000 0.42900  0.86930  0.72703  Biso   1.000  Cl
  Cl35     1.0000 0.92900  0.63070  0.27297  Biso   1.000  Cl
  Cl36     1.0000 0.57100  0.36930  0.77297  Biso   1.000  Cl
  Cl37     1.0000 0.92900  0.86930  0.77297  Biso   1.000  Cl
  Cl38     1.0000 0.57100  0.13070  0.27297  Biso   1.000  Cl
  Cl39     1.0000 0.07100  0.36930  0.72703  Biso   1.000  Cl
  Cl40     1.0000 0.42900  0.63070  0.22703  Biso   1.000  Cl
  Cl41     1.0000 0.99210  0.35530  0.21890  Biso   1.000  Cl
  Cl42     1.0000 0.50790  0.64470  0.71890  Biso   1.000  Cl
  Cl43     1.0000 0.00790  0.85530  0.28110  Biso   1.000  Cl
  Cl44     1.0000 0.49210  0.14470  0.78110  Biso   1.000  Cl
  Cl45     1.0000 0.00790  0.64470  0.78110  Biso   1.000  Cl
  Cl46     1.0000 0.49210  0.35530  0.28110  Biso   1.000  Cl
  Cl47     1.0000 0.99210  0.14470  0.71890  Biso   1.000  Cl
  Cl48     1.0000 0.50790  0.85530  0.21890  Biso   1.000  Cl
  C161     1.0000 0.04360  0.24560  0.19340  Biso   1.000  C
  C162     1.0000 0.45640  0.75440  0.69340  Biso   1.000  C
  C163     1.0000 0.95640  0.74560  0.30660  Biso   1.000  C
  C164     1.0000 0.54360  0.25440  0.80660  Biso   1.000  C
  C165     1.0000 0.95640  0.75440  0.80660  Biso   1.000  C
  C166     1.0000 0.54360  0.24560  0.30660  Biso   1.000  C
  C167     1.0000 0.04360  0.25440  0.69340  Biso   1.000  C
  C168     1.0000 0.45640  0.74560  0.19340  Biso   1.000  C
  H97      1.0000 0.01020  0.20450  0.17180  Biso   1.000  H
  H98      1.0000 0.48980  0.79550  0.67180  Biso   1.000  H
  H99      1.0000 0.98980  0.70450  0.32820  Biso   1.000  H
  H100     1.0000 0.51020  0.29550  0.82820  Biso   1.000  H
  H101     1.0000 0.98980  0.79550  0.82820  Biso   1.000  H
  H102     1.0000 0.51020  0.20450  0.32820  Biso   1.000  H
  H103     1.0000 0.01020  0.29550  0.67180  Biso   1.000  H
  H104     1.0000 0.48980  0.70450  0.17180  Biso   1.000  H
  O33      1.0000 0.90330  0.29800  0.13850  Biso   1.000  O
  O34      1.0000 0.59670  0.70200  0.63850  Biso   1.000  O
  O35      1.0000 0.09670  0.79800  0.36150  Biso   1.000  O
  O36      1.0000 0.40330  0.20200  0.86150  Biso   1.000  O
  O37      1.0000 0.09670  0.70200  0.86150  Biso   1.000  O
  O38      1.0000 0.40330  0.29800  0.36150  Biso   1.000  O
  O39      1.0000 0.90330  0.20200  0.63850  Biso   1.000  O
  O40      1.0000 0.59670  0.79800  0.13850  Biso   1.000  O
