data_image0
_cell_length_a       4.84
_cell_length_b       27.55
_cell_length_c       6.77
_cell_angle_alpha    90
_cell_angle_beta     106.08
_cell_angle_gamma    90

_symmetry_space_group_name_H-M    "P 1"
_symmetry_int_tables_number       1

loop_
  _symmetry_equiv_pos_as_xyz
  'x, y, z'

loop_
  _atom_site_label
  _atom_site_occupancy
  _atom_site_fract_x
  _atom_site_fract_y
  _atom_site_fract_z
  _atom_site_thermal_displace_type
  _atom_site_B_iso_or_equiv
  _atom_site_type_symbol
  Cu1      1.0000 0.24660  0.65280  0.25880  Biso   1.000  Cu
  Cu2      1.0000 0.75340  0.15280  0.74120  Biso   1.000  Cu
  O1       1.0000 0.44660  0.69570  0.98900  Biso   1.000  O
  O2       1.0000 0.55340  0.19570  0.01100  Biso   1.000  O
  O3       1.0000 0.51110  0.69000  0.46960  Biso   1.000  O
  O4       1.0000 0.48890  0.19000  0.53040  Biso   1.000  O
  O5       1.0000 0.36000  0.76680  0.40500  Biso   1.000  O
  O6       1.0000 0.64000  0.26680  0.59500  Biso   1.000  O
  O7       1.0000 0.06300  0.61240  0.52230  Biso   1.000  O
  O8       1.0000 0.93700  0.11240  0.47770  Biso   1.000  O
  O9       1.0000 0.97050  0.61950  0.03300  Biso   1.000  O
  O10      1.0000 0.02950  0.11950  0.96700  Biso   1.000  O
  O11      1.0000 0.11250  0.54220  0.09130  Biso   1.000  O
  O12      1.0000 0.88750  0.04220  0.90870  Biso   1.000  O
  O13      1.0000 0.52430  0.60430  0.28780  Biso   1.000  O
  O14      1.0000 0.47570  0.10430  0.71220  Biso   1.000  O
  O15      1.0000 0.96620  0.70780  0.21660  Biso   1.000  O
  O16      1.0000 0.03380  0.20780  0.78340  Biso   1.000  O
  N1       1.0000 0.25280  0.72860  0.88800  Biso   1.000  N
  N2       1.0000 0.74720  0.22860  0.11200  Biso   1.000  N
  N3       1.0000 0.22770  0.57610  0.61440  Biso   1.000  N
  N4       1.0000 0.77230  0.07610  0.38560  Biso   1.000  N
  C1       1.0000 0.00420  0.71850  0.75710  Biso   1.000  C
  C2       1.0000 0.99580  0.21850  0.24290  Biso   1.000  C
  C3       1.0000 0.82670  0.74940  0.66260  Biso   1.000  C
  C4       1.0000 0.17330  0.24940  0.33740  Biso   1.000  C
  C5       1.0000 0.86660  0.79800  0.69550  Biso   1.000  C
  C6       1.0000 0.13340  0.29800  0.30450  Biso   1.000  C
  C7       1.0000 0.12880  0.81650  0.81950  Biso   1.000  C
  C8       1.0000 0.87120  0.31650  0.18050  Biso   1.000  C
  C9       1.0000 0.31210  0.77930  0.91590  Biso   1.000  C
  C10      1.0000 0.68790  0.27930  0.08410  Biso   1.000  C
  C11      1.0000 0.54570  0.73540  0.50150  Biso   1.000  C
  C12      1.0000 0.45430  0.23540  0.49850  Biso   1.000  C
  C13      1.0000 0.48190  0.59620  0.76450  Biso   1.000  C
  C14      1.0000 0.51810  0.09620  0.23550  Biso   1.000  C
  C15      1.0000 0.67580  0.55660  0.86330  Biso   1.000  C
  C16      1.0000 0.32420  0.05660  0.13670  Biso   1.000  C
  C17      1.0000 0.61580  0.50660  0.82060  Biso   1.000  C
  C18      1.0000 0.38420  0.00660  0.17940  Biso   1.000  C
  C19      1.0000 0.34950  0.49560  0.66260  Biso   1.000  C
  C20      1.0000 0.65050  0.99560  0.33740  Biso   1.000  C
  C21      1.0000 0.16630  0.53240  0.56490  Biso   1.000  C
  C22      1.0000 0.83370  0.03240  0.43510  Biso   1.000  C
  C23      1.0000 0.95230  0.57640  0.02070  Biso   1.000  C
  C24      1.0000 0.04770  0.07640  0.97930  Biso   1.000  C
  O17      1.0000 0.70900  0.87840  0.13550  Biso   1.000  O
  O18      1.0000 0.29100  0.37840  0.86450  Biso   1.000  O
  O19      1.0000 0.22180  0.44690  0.17080  Biso   1.000  O
  O20      1.0000 0.77820  0.94690  0.82920  Biso   1.000  O
  O21      1.0000 0.81920  0.42930  0.36830  Biso   1.000  O
  O22      1.0000 0.18080  0.92930  0.63170  Biso   1.000  O
  O23      1.0000 0.28210  0.86370  0.34230  Biso   1.000  O
  O24      1.0000 0.71790  0.36370  0.65770  Biso   1.000  O
