data_image0
_cell_length_a       4.84
_cell_length_b       27.55
_cell_length_c       6.77
_cell_angle_alpha    90
_cell_angle_beta     106.08
_cell_angle_gamma    90

_symmetry_space_group_name_H-M    "P 1"
_symmetry_int_tables_number       1

loop_
  _symmetry_equiv_pos_as_xyz
  'x, y, z'

loop_
  _atom_site_label
  _atom_site_occupancy
  _atom_site_fract_x
  _atom_site_fract_y
  _atom_site_fract_z
  _atom_site_thermal_displace_type
  _atom_site_B_iso_or_equiv
  _atom_site_type_symbol
  Cu1      1.0000 0.00000  0.00000  0.00000  Biso   1.000  Cu
  Cu2      1.0000 0.50000  0.50000  0.50000  Biso   1.000  Cu
  O1       1.0000 0.19180  0.04165  0.73335  Biso   1.000  O
  O2       1.0000 0.30820  0.54165  0.76665  Biso   1.000  O
  O3       1.0000 0.80820  0.95835  0.26665  Biso   1.000  O
  O4       1.0000 0.69180  0.45835  0.23335  Biso   1.000  O
  O5       1.0000 0.27030  0.03525  0.21830  Biso   1.000  O
  O6       1.0000 0.22970  0.53525  0.28170  Biso   1.000  O
  O7       1.0000 0.72970  0.96475  0.78170  Biso   1.000  O
  O8       1.0000 0.77030  0.46475  0.71830  Biso   1.000  O
  O9       1.0000 0.12375  0.11230  0.15685  Biso   1.000  O
  O10      1.0000 0.37625  0.61230  0.34315  Biso   1.000  O
  O11      1.0000 0.87625  0.88770  0.84315  Biso   1.000  O
  O12      1.0000 0.62375  0.38770  0.65685  Biso   1.000  O
  O13      1.0000 0.27905  0.94825  0.03560  Biso   1.000  O
  O14      1.0000 0.22095  0.44825  0.46440  Biso   1.000  O
  O15      1.0000 0.72095  0.05175  0.96440  Biso   1.000  O
  O16      1.0000 0.77905  0.55175  0.53560  Biso   1.000  O
  N1       1.0000 0.01255  0.07625  0.63680  Biso   1.000  N
  N2       1.0000 0.48745  0.57625  0.86320  Biso   1.000  N
  N3       1.0000 0.98745  0.92375  0.36320  Biso   1.000  N
  N4       1.0000 0.51255  0.42375  0.13680  Biso   1.000  N
  C1       1.0000 0.76115  0.06115  0.49630  Biso   1.000  C
  C2       1.0000 0.73885  0.56115  0.00370  Biso   1.000  C
  C3       1.0000 0.23885  0.93885  0.50370  Biso   1.000  C
  C4       1.0000 0.26115  0.43885  0.99630  Biso   1.000  C
  C5       1.0000 0.57545  0.09640  0.39965  Biso   1.000  C
  C6       1.0000 0.92455  0.59640  0.10035  Biso   1.000  C
  C7       1.0000 0.42455  0.90360  0.60035  Biso   1.000  C
  C8       1.0000 0.07545  0.40360  0.89965  Biso   1.000  C
  C9       1.0000 0.62540  0.14570  0.43745  Biso   1.000  C
  C10      1.0000 0.87460  0.64570  0.06255  Biso   1.000  C
  C11      1.0000 0.37460  0.85430  0.56255  Biso   1.000  C
  C12      1.0000 0.12540  0.35430  0.93745  Biso   1.000  C
  C13      1.0000 0.88965  0.16045  0.57845  Biso   1.000  C
  C14      1.0000 0.61035  0.66045  0.92155  Biso   1.000  C
  C15      1.0000 0.11035  0.83955  0.42155  Biso   1.000  C
  C16      1.0000 0.38965  0.33955  0.07845  Biso   1.000  C
  C17      1.0000 0.07290  0.12345  0.67550  Biso   1.000  C
  C18      1.0000 0.42710  0.62345  0.82450  Biso   1.000  C
  C19      1.0000 0.92710  0.87655  0.32450  Biso   1.000  C
  C20      1.0000 0.57290  0.37655  0.17550  Biso   1.000  C
  C21      1.0000 0.29670  0.07950  0.24040  Biso   1.000  C
  C22      1.0000 0.20330  0.57950  0.25960  Biso   1.000  C
  C23      1.0000 0.70330  0.92050  0.75960  Biso   1.000  C
  C24      1.0000 0.79670  0.42050  0.74040  Biso   1.000  C
  O17      1.0000 0.44490  0.22455  0.88360  Biso   1.000  O
  O18      1.0000 0.05510  0.72455  0.61640  Biso   1.000  O
  O19      1.0000 0.55510  0.77545  0.11640  Biso   1.000  O
  O20      1.0000 0.94490  0.27545  0.38360  Biso   1.000  O
  O21      1.0000 0.03015  0.20840  0.08575  Biso   1.000  O
  O22      1.0000 0.46985  0.70840  0.41425  Biso   1.000  O
  O23      1.0000 0.96985  0.79160  0.91425  Biso   1.000  O
  O24      1.0000 0.53015  0.29160  0.58575  Biso   1.000  O
