data_image0
_cell_length_a       4.8515
_cell_length_b       27.525
_cell_length_c       7.2173
_cell_angle_alpha    90
_cell_angle_beta     114.168
_cell_angle_gamma    90

_symmetry_space_group_name_H-M    "P 1"
_symmetry_int_tables_number       1

loop_
  _symmetry_equiv_pos_as_xyz
  'x, y, z'

loop_
  _atom_site_label
  _atom_site_occupancy
  _atom_site_fract_x
  _atom_site_fract_y
  _atom_site_fract_z
  _atom_site_thermal_displace_type
  _atom_site_B_iso_or_equiv
  _atom_site_type_symbol
  Cu1      1.0000 0.00000  0.00000  0.00000  Biso   1.000  Cu
  Cu2      1.0000 0.00000  0.50000  0.50000  Biso   1.000  Cu
  O1       1.0000 0.05250  0.03530  0.78160  Biso   1.000  O
  O2       1.0000 0.94750  0.53530  0.71840  Biso   1.000  O
  O3       1.0000 0.94750  0.96470  0.21840  Biso   1.000  O
  O4       1.0000 0.05250  0.46470  0.28160  Biso   1.000  O
  O5       1.0000 0.75650  0.05146  0.03830  Biso   1.000  O
  O6       1.0000 0.24350  0.55146  0.46170  Biso   1.000  O
  O7       1.0000 0.24350  0.94854  0.96170  Biso   1.000  O
  O8       1.0000 0.75650  0.44854  0.53830  Biso   1.000  O
  O9       1.0000 0.54510  0.95835  0.73400  Biso   1.000  O
  O10      1.0000 0.45490  0.45835  0.76600  Biso   1.000  O
  O11      1.0000 0.45490  0.04165  0.26600  Biso   1.000  O
  O12      1.0000 0.54510  0.54165  0.23400  Biso   1.000  O
  H1       1.0000 0.78800  0.07500  0.00600  Biso   1.000  H
  H2       1.0000 0.21200  0.57500  0.49400  Biso   1.000  H
  H3       1.0000 0.21200  0.92500  0.99400  Biso   1.000  H
  H4       1.0000 0.78800  0.42500  0.50600  Biso   1.000  H
  H5       1.0000 0.67400  0.05130  0.10400  Biso   1.000  H
  H6       1.0000 0.32600  0.55130  0.39600  Biso   1.000  H
  H7       1.0000 0.32600  0.94870  0.89600  Biso   1.000  H
  H8       1.0000 0.67400  0.44870  0.60400  Biso   1.000  H
  N1       1.0000 0.62480  0.92439  0.63540  Biso   1.000  N
  N2       1.0000 0.37520  0.42439  0.86460  Biso   1.000  N
  N3       1.0000 0.37520  0.07561  0.36460  Biso   1.000  N
  N4       1.0000 0.62480  0.57561  0.13540  Biso   1.000  N
  C1       1.0000 0.73150  0.93788  0.49730  Biso   1.000  C
  C2       1.0000 0.26850  0.43788  0.00270  Biso   1.000  C
  C3       1.0000 0.26850  0.06212  0.50270  Biso   1.000  C
  C4       1.0000 0.73150  0.56212  0.99730  Biso   1.000  C
  C5       1.0000 0.60430  0.87680  0.67580  Biso   1.000  C
  C6       1.0000 0.39570  0.37680  0.82420  Biso   1.000  C
  C7       1.0000 0.39570  0.12320  0.32420  Biso   1.000  C
  C8       1.0000 0.60430  0.62320  0.17580  Biso   1.000  C
  H9       1.0000 0.74050  0.97060  0.46850  Biso   1.000  H
  H10      1.0000 0.25950  0.47060  0.03150  Biso   1.000  H
  H11      1.0000 0.25950  0.02940  0.53150  Biso   1.000  H
  H12      1.0000 0.74050  0.52940  0.96850  Biso   1.000  H
  C9       1.0000 0.82720  0.90326  0.39860  Biso   1.000  C
  C10      1.0000 0.17280  0.40326  0.10140  Biso   1.000  C
  C11      1.0000 0.17280  0.09674  0.60140  Biso   1.000  C
  C12      1.0000 0.82720  0.59674  0.89860  Biso   1.000  C
  C13      1.0000 0.69460  0.84173  0.57970  Biso   1.000  C
  C14      1.0000 0.30540  0.34173  0.92030  Biso   1.000  C
  C15      1.0000 0.30540  0.15827  0.42030  Biso   1.000  C
  C16      1.0000 0.69460  0.65827  0.07970  Biso   1.000  C
  H13      1.0000 0.52780  0.86800  0.76990  Biso   1.000  H
  H14      1.0000 0.47220  0.36800  0.73010  Biso   1.000  H
  H15      1.0000 0.47220  0.13200  0.23010  Biso   1.000  H
  H16      1.0000 0.52780  0.63200  0.26990  Biso   1.000  H
  C17      1.0000 0.80900  0.85476  0.43960  Biso   1.000  C
  C18      1.0000 0.19100  0.35476  0.06040  Biso   1.000  C
  C19      1.0000 0.19100  0.14524  0.56040  Biso   1.000  C
  C20      1.0000 0.80900  0.64524  0.93960  Biso   1.000  C
  C21      1.0000 0.94700  0.91966  0.24530  Biso   1.000  C
  C22      1.0000 0.05300  0.41966  0.25470  Biso   1.000  C
  C23      1.0000 0.05300  0.08034  0.75470  Biso   1.000  C
  C24      1.0000 0.94700  0.58034  0.74530  Biso   1.000  C
  H17      1.0000 0.67950  0.80910  0.60800  Biso   1.000  H
  H18      1.0000 0.32050  0.30910  0.89200  Biso   1.000  H
  H19      1.0000 0.32050  0.19090  0.39200  Biso   1.000  H
  H20      1.0000 0.67950  0.69090  0.10800  Biso   1.000  H
  H21      1.0000 0.87270  0.83110  0.37400  Biso   1.000  H
  H22      1.0000 0.12730  0.33110  0.12600  Biso   1.000  H
  H23      1.0000 0.12730  0.16890  0.62600  Biso   1.000  H
  H24      1.0000 0.87270  0.66890  0.87400  Biso   1.000  H
  O13      1.0000 0.03350  0.88824  0.15770  Biso   1.000  O
  O14      1.0000 0.96650  0.38824  0.34230  Biso   1.000  O
  O15      1.0000 0.96650  0.11176  0.84230  Biso   1.000  O
  O16      1.0000 0.03350  0.61176  0.65770  Biso   1.000  O
  O17      1.0000 0.93710  0.20920  0.91060  Biso   1.000  O
  O18      1.0000 0.06290  0.70920  0.58940  Biso   1.000  O
  O19      1.0000 0.06290  0.79080  0.08940  Biso   1.000  O
  O20      1.0000 0.93710  0.29080  0.41060  Biso   1.000  O
  H25      1.0000 0.93600  0.18140  0.88600  Biso   1.000  H
  H26      1.0000 0.06400  0.68140  0.61400  Biso   1.000  H
  H27      1.0000 0.06400  0.81860  0.11400  Biso   1.000  H
  H28      1.0000 0.93600  0.31860  0.38600  Biso   1.000  H
  H29      1.0000 0.10400  0.21710  0.96900  Biso   1.000  H
  H30      1.0000 0.89600  0.71710  0.53100  Biso   1.000  H
  H31      1.0000 0.89600  0.78290  0.03100  Biso   1.000  H
  H32      1.0000 0.10400  0.28290  0.46900  Biso   1.000  H
  O21      1.0000 0.55790  0.22428  0.11570  Biso   1.000  O
  O22      1.0000 0.44210  0.72428  0.38430  Biso   1.000  O
  O23      1.0000 0.44210  0.77572  0.88430  Biso   1.000  O
  O24      1.0000 0.55790  0.27572  0.61570  Biso   1.000  O
  H33      1.0000 0.66300  0.22000  0.05500  Biso   1.000  H
  H34      1.0000 0.33700  0.72000  0.44500  Biso   1.000  H
  H35      1.0000 0.33700  0.78000  0.94500  Biso   1.000  H
  H36      1.0000 0.66300  0.28000  0.55500  Biso   1.000  H
  H37      1.0000 0.65700  0.24470  0.19500  Biso   1.000  H
  H38      1.0000 0.34300  0.74470  0.30500  Biso   1.000  H
  H39      1.0000 0.34300  0.75530  0.80500  Biso   1.000  H
  H40      1.0000 0.65700  0.25530  0.69500  Biso   1.000  H
