data_image0
_cell_length_a       17.094
_cell_length_b       19.605
_cell_length_c       11.782
_cell_angle_alpha    90
_cell_angle_beta     113.95
_cell_angle_gamma    90

_symmetry_space_group_name_H-M    "P 1"
_symmetry_int_tables_number       1

loop_
  _symmetry_equiv_pos_as_xyz
  'x, y, z'

loop_
  _atom_site_label
  _atom_site_occupancy
  _atom_site_fract_x
  _atom_site_fract_y
  _atom_site_fract_z
  _atom_site_thermal_displace_type
  _atom_site_B_iso_or_equiv
  _atom_site_type_symbol
  C1       1.0000 0.59190  0.87057  0.72130  Biso   1.000  C
  C2       1.0000 0.40810  0.87057  0.77870  Biso   1.000  C
  C3       1.0000 0.09190  0.37057  0.72130  Biso   1.000  C
  C4       1.0000 0.90810  0.37057  0.77870  Biso   1.000  C
  C5       1.0000 0.40810  0.12943  0.27870  Biso   1.000  C
  C6       1.0000 0.59190  0.12943  0.22130  Biso   1.000  C
  C7       1.0000 0.90810  0.62943  0.27870  Biso   1.000  C
  C8       1.0000 0.09190  0.62943  0.22130  Biso   1.000  C
  C9       1.0000 0.64210  0.93000  0.70620  Biso   1.000  C
  C10      1.0000 0.35790  0.93000  0.79380  Biso   1.000  C
  C11      1.0000 0.14210  0.43000  0.70620  Biso   1.000  C
  C12      1.0000 0.85790  0.43000  0.79380  Biso   1.000  C
  C13      1.0000 0.35790  0.07000  0.29380  Biso   1.000  C
  C14      1.0000 0.64210  0.07000  0.20620  Biso   1.000  C
  C15      1.0000 0.85790  0.57000  0.29380  Biso   1.000  C
  C16      1.0000 0.14210  0.57000  0.20620  Biso   1.000  C
  C17      1.0000 0.71460  0.95090  0.80430  Biso   1.000  C
  C18      1.0000 0.28540  0.95090  0.69570  Biso   1.000  C
  C19      1.0000 0.21460  0.45090  0.80430  Biso   1.000  C
  C20      1.0000 0.78540  0.45090  0.69570  Biso   1.000  C
  C21      1.0000 0.28540  0.04910  0.19570  Biso   1.000  C
  C22      1.0000 0.71460  0.04910  0.30430  Biso   1.000  C
  C23      1.0000 0.78540  0.54910  0.19570  Biso   1.000  C
  C24      1.0000 0.21460  0.54910  0.30430  Biso   1.000  C
  H1       1.0000 0.73300  0.92710  0.87900  Biso   1.000  H
  H2       1.0000 0.26700  0.92710  0.62100  Biso   1.000  H
  H3       1.0000 0.23300  0.42710  0.87900  Biso   1.000  H
  H4       1.0000 0.76700  0.42710  0.62100  Biso   1.000  H
  H5       1.0000 0.26700  0.07290  0.12100  Biso   1.000  H
  H6       1.0000 0.73300  0.07290  0.37900  Biso   1.000  H
  H7       1.0000 0.76700  0.57290  0.12100  Biso   1.000  H
  H8       1.0000 0.23300  0.57290  0.37900  Biso   1.000  H
  C25      1.0000 0.61520  0.96520  0.59240  Biso   1.000  C
  C26      1.0000 0.38480  0.96520  0.90760  Biso   1.000  C
  C27      1.0000 0.11520  0.46520  0.59240  Biso   1.000  C
  C28      1.0000 0.88480  0.46520  0.90760  Biso   1.000  C
  C29      1.0000 0.38480  0.03480  0.40760  Biso   1.000  C
  C30      1.0000 0.61520  0.03480  0.09240  Biso   1.000  C
  C31      1.0000 0.88480  0.53480  0.40760  Biso   1.000  C
  C32      1.0000 0.11520  0.53480  0.09240  Biso   1.000  C
  H9       1.0000 0.56680  0.95030  0.52530  Biso   1.000  H
  H10      1.0000 0.43320  0.95030  0.97470  Biso   1.000  H
  H11      1.0000 0.06680  0.45030  0.52530  Biso   1.000  H
  H12      1.0000 0.93320  0.45030  0.97470  Biso   1.000  H
  H13      1.0000 0.43320  0.04970  0.47470  Biso   1.000  H
  H14      1.0000 0.56680  0.04970  0.02530  Biso   1.000  H
  H15      1.0000 0.93320  0.54970  0.47470  Biso   1.000  H
  H16      1.0000 0.06680  0.54970  0.02530  Biso   1.000  H
  C33      1.0000 0.76130  0.00760  0.79390  Biso   1.000  C
  C34      1.0000 0.23870  0.00760  0.70610  Biso   1.000  C
  C35      1.0000 0.26130  0.50760  0.79390  Biso   1.000  C
  C36      1.0000 0.73870  0.50760  0.70610  Biso   1.000  C
  C37      1.0000 0.23870  0.99240  0.20610  Biso   1.000  C
  C38      1.0000 0.76130  0.99240  0.29390  Biso   1.000  C
  C39      1.0000 0.73870  0.49240  0.20610  Biso   1.000  C
  C40      1.0000 0.26130  0.49240  0.29390  Biso   1.000  C
  C41      1.0000 0.65840  0.02010  0.57870  Biso   1.000  C
  C42      1.0000 0.34160  0.02010  0.92130  Biso   1.000  C
  C43      1.0000 0.15840  0.52010  0.57870  Biso   1.000  C
  C44      1.0000 0.84160  0.52010  0.92130  Biso   1.000  C
  C45      1.0000 0.34160  0.97990  0.42130  Biso   1.000  C
  C46      1.0000 0.65840  0.97990  0.07870  Biso   1.000  C
  C47      1.0000 0.84160  0.47990  0.42130  Biso   1.000  C
  C48      1.0000 0.15840  0.47990  0.07870  Biso   1.000  C
  H17      1.0000 0.63850  0.04320  0.50330  Biso   1.000  H
  H18      1.0000 0.36150  0.04320  0.99670  Biso   1.000  H
  H19      1.0000 0.13850  0.54320  0.50330  Biso   1.000  H
  H20      1.0000 0.86150  0.54320  0.99670  Biso   1.000  H
  H21      1.0000 0.36150  0.95680  0.49670  Biso   1.000  H
  H22      1.0000 0.63850  0.95680  0.00330  Biso   1.000  H
  H23      1.0000 0.86150  0.45680  0.49670  Biso   1.000  H
  H24      1.0000 0.13850  0.45680  0.00330  Biso   1.000  H
  C49      1.0000 0.73400  0.04300  0.67900  Biso   1.000  C
  C50      1.0000 0.26600  0.04300  0.82100  Biso   1.000  C
  C51      1.0000 0.23400  0.54300  0.67900  Biso   1.000  C
  C52      1.0000 0.76600  0.54300  0.82100  Biso   1.000  C
  C53      1.0000 0.26600  0.95700  0.32100  Biso   1.000  C
  C54      1.0000 0.73400  0.95700  0.17900  Biso   1.000  C
  C55      1.0000 0.76600  0.45700  0.32100  Biso   1.000  C
  C56      1.0000 0.23400  0.45700  0.17900  Biso   1.000  C
  C57      1.0000 0.83580  0.03120  0.89520  Biso   1.000  C
  C58      1.0000 0.16420  0.03120  0.60480  Biso   1.000  C
  C59      1.0000 0.33580  0.53120  0.89520  Biso   1.000  C
  C60      1.0000 0.66420  0.53120  0.60480  Biso   1.000  C
  C61      1.0000 0.16420  0.96880  0.10480  Biso   1.000  C
  C62      1.0000 0.83580  0.96880  0.39520  Biso   1.000  C
  C63      1.0000 0.66420  0.46880  0.10480  Biso   1.000  C
  C64      1.0000 0.33580  0.46880  0.39520  Biso   1.000  C
  H25      1.0000 0.85520  0.00790  0.97040  Biso   1.000  H
  H26      1.0000 0.14480  0.00790  0.52960  Biso   1.000  H
  H27      1.0000 0.35520  0.50790  0.97040  Biso   1.000  H
  H28      1.0000 0.64480  0.50790  0.52960  Biso   1.000  H
  H29      1.0000 0.14480  0.99210  0.02960  Biso   1.000  H
  H30      1.0000 0.85520  0.99210  0.47040  Biso   1.000  H
  H31      1.0000 0.64480  0.49210  0.02960  Biso   1.000  H
  H32      1.0000 0.35520  0.49210  0.47040  Biso   1.000  H
  C65      1.0000 0.87880  0.08700  0.88400  Biso   1.000  C
  C66      1.0000 0.12120  0.08700  0.61600  Biso   1.000  C
  C67      1.0000 0.37880  0.58700  0.88400  Biso   1.000  C
  C68      1.0000 0.62120  0.58700  0.61600  Biso   1.000  C
  C69      1.0000 0.12120  0.91300  0.11600  Biso   1.000  C
  C70      1.0000 0.87880  0.91300  0.38400  Biso   1.000  C
  C71      1.0000 0.62120  0.41300  0.11600  Biso   1.000  C
  C72      1.0000 0.37880  0.41300  0.38400  Biso   1.000  C
  H33      1.0000 0.92620  0.10240  0.95220  Biso   1.000  H
  H34      1.0000 0.07380  0.10240  0.54780  Biso   1.000  H
  H35      1.0000 0.42620  0.60240  0.95220  Biso   1.000  H
  H36      1.0000 0.57380  0.60240  0.54780  Biso   1.000  H
  H37      1.0000 0.07380  0.89760  0.04780  Biso   1.000  H
  H38      1.0000 0.92620  0.89760  0.45220  Biso   1.000  H
  H39      1.0000 0.57380  0.39760  0.04780  Biso   1.000  H
  H40      1.0000 0.42620  0.39760  0.45220  Biso   1.000  H
  C73      1.0000 0.78090  0.10020  0.66920  Biso   1.000  C
  C74      1.0000 0.21910  0.10020  0.83080  Biso   1.000  C
  C75      1.0000 0.28090  0.60020  0.66920  Biso   1.000  C
  C76      1.0000 0.71910  0.60020  0.83080  Biso   1.000  C
  C77      1.0000 0.21910  0.89980  0.33080  Biso   1.000  C
  C78      1.0000 0.78090  0.89980  0.16920  Biso   1.000  C
  C79      1.0000 0.71910  0.39980  0.33080  Biso   1.000  C
  C80      1.0000 0.28090  0.39980  0.16920  Biso   1.000  C
  H41      1.0000 0.76320  0.12340  0.59410  Biso   1.000  H
  H42      1.0000 0.23680  0.12340  0.90590  Biso   1.000  H
  H43      1.0000 0.26320  0.62340  0.59410  Biso   1.000  H
  H44      1.0000 0.73680  0.62340  0.90590  Biso   1.000  H
  H45      1.0000 0.23680  0.87660  0.40590  Biso   1.000  H
  H46      1.0000 0.76320  0.87660  0.09410  Biso   1.000  H
  H47      1.0000 0.73680  0.37660  0.40590  Biso   1.000  H
  H48      1.0000 0.26320  0.37660  0.09410  Biso   1.000  H
  C81      1.0000 0.85230  0.12220  0.76900  Biso   1.000  C
  C82      1.0000 0.14770  0.12220  0.73100  Biso   1.000  C
  C83      1.0000 0.35230  0.62220  0.76900  Biso   1.000  C
  C84      1.0000 0.64770  0.62220  0.73100  Biso   1.000  C
  C85      1.0000 0.14770  0.87780  0.23100  Biso   1.000  C
  C86      1.0000 0.85230  0.87780  0.26900  Biso   1.000  C
  C87      1.0000 0.64770  0.37780  0.23100  Biso   1.000  C
  C88      1.0000 0.35230  0.37780  0.26900  Biso   1.000  C
  C89      1.0000 0.90160  0.18290  0.75850  Biso   1.000  C
  C90      1.0000 0.09840  0.18290  0.74150  Biso   1.000  C
  C91      1.0000 0.40160  0.68290  0.75850  Biso   1.000  C
  C92      1.0000 0.59840  0.68290  0.74150  Biso   1.000  C
  C93      1.0000 0.09840  0.81710  0.24150  Biso   1.000  C
  C94      1.0000 0.90160  0.81710  0.25850  Biso   1.000  C
  C95      1.0000 0.59840  0.31710  0.24150  Biso   1.000  C
  C96      1.0000 0.40160  0.31710  0.25850  Biso   1.000  C
  C97      1.0000 0.67950  0.73490  0.13010  Biso   1.000  C
  C98      1.0000 0.32050  0.73490  0.36990  Biso   1.000  C
  C99      1.0000 0.17950  0.23490  0.13010  Biso   1.000  C
  C100     1.0000 0.82050  0.23490  0.36990  Biso   1.000  C
  C101     1.0000 0.32050  0.26510  0.86990  Biso   1.000  C
  C102     1.0000 0.67950  0.26510  0.63010  Biso   1.000  C
  C103     1.0000 0.82050  0.76510  0.86990  Biso   1.000  C
  C104     1.0000 0.17950  0.76510  0.63010  Biso   1.000  C
  H49      1.0000 0.70010  0.70970  0.08120  Biso   1.000  H
  H50      1.0000 0.29990  0.70970  0.41880  Biso   1.000  H
  H51      1.0000 0.20010  0.20970  0.08120  Biso   1.000  H
  H52      1.0000 0.79990  0.20970  0.41880  Biso   1.000  H
  H53      1.0000 0.29990  0.29030  0.91880  Biso   1.000  H
  H54      1.0000 0.70010  0.29030  0.58120  Biso   1.000  H
  H55      1.0000 0.79990  0.79030  0.91880  Biso   1.000  H
  H56      1.0000 0.20010  0.79030  0.58120  Biso   1.000  H
  C105     1.0000 0.58780  0.81350  0.14520  Biso   1.000  C
  C106     1.0000 0.41220  0.81350  0.35480  Biso   1.000  C
  C107     1.0000 0.08780  0.31350  0.14520  Biso   1.000  C
  C108     1.0000 0.91220  0.31350  0.35480  Biso   1.000  C
  C109     1.0000 0.41220  0.18650  0.85480  Biso   1.000  C
  C110     1.0000 0.58780  0.18650  0.64520  Biso   1.000  C
  C111     1.0000 0.91220  0.68650  0.85480  Biso   1.000  C
  C112     1.0000 0.08780  0.68650  0.64520  Biso   1.000  C
  H57      1.0000 0.54220  0.84320  0.10730  Biso   1.000  H
  H58      1.0000 0.45780  0.84320  0.39270  Biso   1.000  H
  H59      1.0000 0.04220  0.34320  0.10730  Biso   1.000  H
  H60      1.0000 0.95780  0.34320  0.39270  Biso   1.000  H
  H61      1.0000 0.45780  0.15680  0.89270  Biso   1.000  H
  H62      1.0000 0.54220  0.15680  0.60730  Biso   1.000  H
  H63      1.0000 0.95780  0.65680  0.89270  Biso   1.000  H
  H64      1.0000 0.04220  0.65680  0.60730  Biso   1.000  H
  C113     1.0000 0.72110  0.73010  0.25740  Biso   1.000  C
  C114     1.0000 0.27890  0.73010  0.24260  Biso   1.000  C
  C115     1.0000 0.22110  0.23010  0.25740  Biso   1.000  C
  C116     1.0000 0.77890  0.23010  0.24260  Biso   1.000  C
  C117     1.0000 0.27890  0.26990  0.74260  Biso   1.000  C
  C118     1.0000 0.72110  0.26990  0.75740  Biso   1.000  C
  C119     1.0000 0.77890  0.76990  0.74260  Biso   1.000  C
  C120     1.0000 0.22110  0.76990  0.75740  Biso   1.000  C
  H65      1.0000 0.76770  0.70100  0.29350  Biso   1.000  H
  H66      1.0000 0.23230  0.70100  0.20650  Biso   1.000  H
  H67      1.0000 0.26770  0.20100  0.29350  Biso   1.000  H
  H68      1.0000 0.73230  0.20100  0.20650  Biso   1.000  H
  H69      1.0000 0.23230  0.29900  0.70650  Biso   1.000  H
  H70      1.0000 0.76770  0.29900  0.79350  Biso   1.000  H
  H71      1.0000 0.73230  0.79900  0.70650  Biso   1.000  H
  H72      1.0000 0.26770  0.79900  0.79350  Biso   1.000  H
  C121     1.0000 0.62780  0.81320  0.27380  Biso   1.000  C
  C122     1.0000 0.37220  0.81320  0.22620  Biso   1.000  C
  C123     1.0000 0.12780  0.31320  0.27380  Biso   1.000  C
  C124     1.0000 0.87220  0.31320  0.22620  Biso   1.000  C
  C125     1.0000 0.37220  0.18680  0.72620  Biso   1.000  C
  C126     1.0000 0.62780  0.18680  0.77380  Biso   1.000  C
  C127     1.0000 0.87220  0.68680  0.72620  Biso   1.000  C
  C128     1.0000 0.12780  0.68680  0.77380  Biso   1.000  C
  H73      1.0000 0.60980  0.84310  0.31980  Biso   1.000  H
  H74      1.0000 0.39020  0.84310  0.18020  Biso   1.000  H
  H75      1.0000 0.10980  0.34310  0.31980  Biso   1.000  H
  H76      1.0000 0.89020  0.34310  0.18020  Biso   1.000  H
  H77      1.0000 0.39020  0.15690  0.68020  Biso   1.000  H
  H78      1.0000 0.60980  0.15690  0.81980  Biso   1.000  H
  H79      1.0000 0.89020  0.65690  0.68020  Biso   1.000  H
  H80      1.0000 0.10980  0.65690  0.81980  Biso   1.000  H
  C129     1.0000 0.69220  0.76980  0.33170  Biso   1.000  C
  C130     1.0000 0.30780  0.76980  0.16830  Biso   1.000  C
  C131     1.0000 0.19220  0.26980  0.33170  Biso   1.000  C
  C132     1.0000 0.80780  0.26980  0.16830  Biso   1.000  C
  C133     1.0000 0.30780  0.23020  0.66830  Biso   1.000  C
  C134     1.0000 0.69220  0.23020  0.83170  Biso   1.000  C
  C135     1.0000 0.80780  0.73020  0.66830  Biso   1.000  C
  C136     1.0000 0.19220  0.73020  0.83170  Biso   1.000  C
  C137     1.0000 0.70144  0.74790  0.46090  Biso   1.000  C
  C138     1.0000 0.29856  0.74790  0.03910  Biso   1.000  C
  C139     1.0000 0.20144  0.24790  0.46090  Biso   1.000  C
  C140     1.0000 0.79856  0.24790  0.03910  Biso   1.000  C
  C141     1.0000 0.29856  0.25210  0.53910  Biso   1.000  C
  C142     1.0000 0.70144  0.25210  0.96090  Biso   1.000  C
  C143     1.0000 0.79856  0.75210  0.53910  Biso   1.000  C
  C144     1.0000 0.20144  0.75210  0.96090  Biso   1.000  C
  H81      1.0000 0.68060  0.70170  0.45970  Biso   1.000  H
  H82      1.0000 0.31940  0.70170  0.04030  Biso   1.000  H
  H83      1.0000 0.18060  0.20170  0.45970  Biso   1.000  H
  H84      1.0000 0.81940  0.20170  0.04030  Biso   1.000  H
  H85      1.0000 0.31940  0.29830  0.54030  Biso   1.000  H
  H86      1.0000 0.68060  0.29830  0.95970  Biso   1.000  H
  H87      1.0000 0.81940  0.79830  0.54030  Biso   1.000  H
  H88      1.0000 0.18060  0.79830  0.95970  Biso   1.000  H
  H89      1.0000 0.67050  0.77840  0.49280  Biso   1.000  H
  H90      1.0000 0.32950  0.77840  0.00720  Biso   1.000  H
  H91      1.0000 0.17050  0.27840  0.49280  Biso   1.000  H
  H92      1.0000 0.82950  0.27840  0.00720  Biso   1.000  H
  H93      1.0000 0.32950  0.22160  0.50720  Biso   1.000  H
  H94      1.0000 0.67050  0.22160  0.99280  Biso   1.000  H
  H95      1.0000 0.82950  0.72160  0.50720  Biso   1.000  H
  H96      1.0000 0.17050  0.72160  0.99280  Biso   1.000  H
  Cu1      1.0000 0.54560  0.77681  0.87412  Biso   1.000  Cu
  Cu2      1.0000 0.45440  0.77681  0.62588  Biso   1.000  Cu
  Cu3      1.0000 0.04560  0.27681  0.87412  Biso   1.000  Cu
  Cu4      1.0000 0.95440  0.27681  0.62588  Biso   1.000  Cu
  Cu5      1.0000 0.45440  0.22319  0.12588  Biso   1.000  Cu
  Cu6      1.0000 0.54560  0.22319  0.37412  Biso   1.000  Cu
  Cu7      1.0000 0.95440  0.72319  0.12588  Biso   1.000  Cu
  Cu8      1.0000 0.04560  0.72319  0.37412  Biso   1.000  Cu
  N1       1.0000 0.61080  0.77425  0.07410  Biso   1.000  N
  N2       1.0000 0.38920  0.77425  0.42590  Biso   1.000  N
  N3       1.0000 0.11080  0.27425  0.07410  Biso   1.000  N
  N4       1.0000 0.88920  0.27425  0.42590  Biso   1.000  N
  N5       1.0000 0.38920  0.22575  0.92590  Biso   1.000  N
  N6       1.0000 0.61080  0.22575  0.57410  Biso   1.000  N
  N7       1.0000 0.88920  0.72575  0.92590  Biso   1.000  N
  N8       1.0000 0.11080  0.72575  0.57410  Biso   1.000  N
  O1       1.0000 0.61251  0.84716  0.82910  Biso   1.000  O
  O2       1.0000 0.38749  0.84716  0.67090  Biso   1.000  O
  O3       1.0000 0.11251  0.34716  0.82910  Biso   1.000  O
  O4       1.0000 0.88749  0.34716  0.67090  Biso   1.000  O
  O5       1.0000 0.38749  0.15284  0.17090  Biso   1.000  O
  O6       1.0000 0.61251  0.15284  0.32910  Biso   1.000  O
  O7       1.0000 0.88749  0.65284  0.17090  Biso   1.000  O
  O8       1.0000 0.11251  0.65284  0.32910  Biso   1.000  O
  O9       1.0000 0.53181  0.84880  0.62360  Biso   1.000  O
  O10      1.0000 0.46819  0.84880  0.87640  Biso   1.000  O
  O11      1.0000 0.03181  0.34880  0.62360  Biso   1.000  O
  O12      1.0000 0.96819  0.34880  0.87640  Biso   1.000  O
  O13      1.0000 0.46819  0.15120  0.37640  Biso   1.000  O
  O14      1.0000 0.53181  0.15120  0.12360  Biso   1.000  O
  O15      1.0000 0.96819  0.65120  0.37640  Biso   1.000  O
  O16      1.0000 0.03181  0.65120  0.12360  Biso   1.000  O
  O17      1.0000 0.95710  0.20633  0.85780  Biso   1.000  O
  O18      1.0000 0.04290  0.20633  0.64220  Biso   1.000  O
  O19      1.0000 0.45710  0.70633  0.85780  Biso   1.000  O
  O20      1.0000 0.54290  0.70633  0.64220  Biso   1.000  O
  O21      1.0000 0.04290  0.79367  0.14220  Biso   1.000  O
  O22      1.0000 0.95710  0.79367  0.35780  Biso   1.000  O
  O23      1.0000 0.54290  0.29367  0.14220  Biso   1.000  O
  O24      1.0000 0.45710  0.29367  0.35780  Biso   1.000  O
  O25      1.0000 0.88409  0.20554  0.64990  Biso   1.000  O
  O26      1.0000 0.11591  0.20554  0.85010  Biso   1.000  O
  O27      1.0000 0.38409  0.70554  0.64990  Biso   1.000  O
  O28      1.0000 0.61591  0.70554  0.85010  Biso   1.000  O
  O29      1.0000 0.11591  0.79446  0.35010  Biso   1.000  O
  O30      1.0000 0.88409  0.79446  0.14990  Biso   1.000  O
  O31      1.0000 0.61591  0.29446  0.35010  Biso   1.000  O
  O32      1.0000 0.38409  0.29446  0.14990  Biso   1.000  O
  O33      1.0000 0.00000  0.06220  0.25000  Biso   1.000  O
  O34      1.0000 0.50000  0.56220  0.25000  Biso   1.000  O
  O35      1.0000 0.00000  0.93780  0.75000  Biso   1.000  O
  O36      1.0000 0.50000  0.43780  0.75000  Biso   1.000  O
  H97      1.0000 0.04310  0.08860  0.25290  Biso   1.000  H
  H98      1.0000 0.95690  0.08860  0.24710  Biso   1.000  H
  H99      1.0000 0.54310  0.58860  0.25290  Biso   1.000  H
  H100     1.0000 0.45690  0.58860  0.24710  Biso   1.000  H
  H101     1.0000 0.95690  0.91140  0.74710  Biso   1.000  H
  H102     1.0000 0.04310  0.91140  0.75290  Biso   1.000  H
  H103     1.0000 0.45690  0.41140  0.74710  Biso   1.000  H
  H104     1.0000 0.54310  0.41140  0.75290  Biso   1.000  H
