data_image0
_cell_length_a       7.424
_cell_length_b       11.256
_cell_length_c       16.495
_cell_angle_alpha    70.324
_cell_angle_beta     86.055
_cell_angle_gamma    80.098

_symmetry_space_group_name_H-M    "P 1"
_symmetry_int_tables_number       1

loop_
  _symmetry_equiv_pos_as_xyz
  'x, y, z'

loop_
  _atom_site_label
  _atom_site_occupancy
  _atom_site_fract_x
  _atom_site_fract_y
  _atom_site_fract_z
  _atom_site_thermal_displace_type
  _atom_site_B_iso_or_equiv
  _atom_site_type_symbol
  Cu1      1.0000 0.50000  0.00000  0.00000  Biso   1.000  Cu
  Cu2      1.0000 0.00000  0.50000  0.00000  Biso   1.000  Cu
  Cl1      1.0000 0.25808  0.08632  0.22216  Biso   1.000  Cl
  Cl2      1.0000 0.74192  0.91368  0.77784  Biso   1.000  Cl
  Cl3      1.0000 0.31645  0.09608  0.40387  Biso   1.000  Cl
  Cl4      1.0000 0.68355  0.90392  0.59613  Biso   1.000  Cl
  Cl5      1.0000 0.63764  0.22108  0.43466  Biso   1.000  Cl
  Cl6      1.0000 0.36236  0.77892  0.56534  Biso   1.000  Cl
  Cl7      1.0000 0.90993  0.32159  0.28662  Biso   1.000  Cl
  Cl8      1.0000 0.09007  0.67841  0.71338  Biso   1.000  Cl
  O1       1.0000 0.20100  0.63750  0.37590  Biso   1.000  O
  O2       1.0000 0.79900  0.36250  0.62410  Biso   1.000  O
  O3       1.0000 0.69200  0.67829  0.21621  Biso   1.000  O
  O4       1.0000 0.30800  0.32171  0.78379  Biso   1.000  O
  O5       1.0000 0.82580  0.41955  0.08644  Biso   1.000  O
  O6       1.0000 0.17420  0.58045  0.91356  Biso   1.000  O
  O7       1.0000 0.94090  0.22275  0.08536  Biso   1.000  O
  O8       1.0000 0.05910  0.77725  0.91464  Biso   1.000  O
  O9       1.0000 0.52300  0.27035  0.02401  Biso   1.000  O
  O10      1.0000 0.47700  0.72965  0.97599  Biso   1.000  O
  O11      1.0000 0.56340  0.05898  0.09031  Biso   1.000  O
  O12      1.0000 0.43660  0.94102  0.90969  Biso   1.000  O
  O13      1.0000 0.78850  0.88130  0.01674  Biso   1.000  O
  O14      1.0000 0.21150  0.11870  0.98326  Biso   1.000  O
  H1       1.0000 0.85560  0.88660  0.05480  Biso   1.000  H
  H2       1.0000 0.14440  0.11340  0.94520  Biso   1.000  H
  H3       1.0000 0.83610  0.83380  0.98780  Biso   1.000  H
  H4       1.0000 0.16390  0.16620  0.01220  Biso   1.000  H
  O15      1.0000 0.41910  0.84415  0.09536  Biso   1.000  O
  O16      1.0000 0.58090  0.15585  0.90464  Biso   1.000  O
  H5       1.0000 0.48900  0.82270  0.13840  Biso   1.000  H
  H6       1.0000 0.51100  0.17730  0.86160  Biso   1.000  H
  H7       1.0000 0.42450  0.78900  0.07010  Biso   1.000  H
  H8       1.0000 0.57550  0.21100  0.92990  Biso   1.000  H
  N1       1.0000 0.12330  0.53199  0.09212  Biso   1.000  N
  N2       1.0000 0.87670  0.46801  0.90788  Biso   1.000  N
  N3       1.0000 0.03850  0.66520  0.34729  Biso   1.000  N
  N4       1.0000 0.96150  0.33480  0.65271  Biso   1.000  N
  N5       1.0000 0.79770  0.68129  0.27328  Biso   1.000  N
  N6       1.0000 0.20230  0.31871  0.72672  Biso   1.000  N
  C1       1.0000 0.28690  0.57160  0.22373  Biso   1.000  C
  C2       1.0000 0.71310  0.42840  0.77627  Biso   1.000  C
  H9       1.0000 0.34330  0.58450  0.26810  Biso   1.000  H
  H10      1.0000 0.65670  0.41550  0.73190  Biso   1.000  H
  C3       1.0000 0.39060  0.52470  0.16528  Biso   1.000  C
  C4       1.0000 0.60940  0.47530  0.83472  Biso   1.000  C
  H11      1.0000 0.51730  0.50630  0.16980  Biso   1.000  H
  H12      1.0000 0.48270  0.49370  0.83020  Biso   1.000  H
  C5       1.0000 0.30600  0.50550  0.10059  Biso   1.000  C
  C6       1.0000 0.69400  0.49450  0.89941  Biso   1.000  C
  H13      1.0000 0.37650  0.47320  0.06160  Biso   1.000  H
  H14      1.0000 0.62350  0.52680  0.93840  Biso   1.000  H
  C7       1.0000 0.02140  0.57880  0.14814  Biso   1.000  C
  C8       1.0000 0.97860  0.42120  0.85186  Biso   1.000  C
  H15      1.0000 0.89520  0.59800  0.14140  Biso   1.000  H
  H16      1.0000 0.10480  0.40200  0.85860  Biso   1.000  H
  C9       1.0000 0.09740  0.59970  0.21605  Biso   1.000  C
  C10      1.0000 0.90260  0.40030  0.78395  Biso   1.000  C
  C11      1.0000 0.98040  0.64800  0.27677  Biso   1.000  C
  C12      1.0000 0.01960  0.35200  0.72323  Biso   1.000  C
  C13      1.0000 0.71840  0.70740  0.35303  Biso   1.000  C
  C14      1.0000 0.28160  0.29260  0.64697  Biso   1.000  C
  C15      1.0000 0.65180  0.58540  0.41017  Biso   1.000  C
  C16      1.0000 0.34820  0.41460  0.58983  Biso   1.000  C
  H17      1.0000 0.56540  0.56300  0.37930  Biso   1.000  H
  H18      1.0000 0.43460  0.43700  0.62070  Biso   1.000  H
  H19      1.0000 0.59420  0.59870  0.46100  Biso   1.000  H
  H20      1.0000 0.40580  0.40130  0.53900  Biso   1.000  H
  H21      1.0000 0.75390  0.51740  0.42630  Biso   1.000  H
  H22      1.0000 0.24610  0.48260  0.57370  Biso   1.000  H
  C17      1.0000 0.56040  0.81680  0.32811  Biso   1.000  C
  C18      1.0000 0.43960  0.18320  0.67189  Biso   1.000  C
  H23      1.0000 0.59860  0.88730  0.28250  Biso   1.000  H
  H24      1.0000 0.40140  0.11270  0.71750  Biso   1.000  H
  H25      1.0000 0.52190  0.84310  0.37710  Biso   1.000  H
  H26      1.0000 0.47810  0.15690  0.62290  Biso   1.000  H
  H27      1.0000 0.46050  0.78950  0.30890  Biso   1.000  H
  H28      1.0000 0.53950  0.21050  0.69110  Biso   1.000  H
  C19      1.0000 0.88970  0.73580  0.38747  Biso   1.000  C
  C20      1.0000 0.11030  0.26420  0.61253  Biso   1.000  C
  C21      1.0000 0.90700  0.68420  0.48514  Biso   1.000  C
  C22      1.0000 0.09300  0.31580  0.51486  Biso   1.000  C
  H29      1.0000 0.90240  0.59420  0.50540  Biso   1.000  H
  H30      1.0000 0.09760  0.40580  0.49460  Biso   1.000  H
  H31      1.0000 0.80810  0.72730  0.51060  Biso   1.000  H
  H32      1.0000 0.19190  0.27270  0.48940  Biso   1.000  H
  H33      1.0000 0.02130  0.69870  0.50100  Biso   1.000  H
  H34      1.0000 0.97870  0.30130  0.49900  Biso   1.000  H
  C23      1.0000 0.91550  0.87530  0.35330  Biso   1.000  C
  C24      1.0000 0.08450  0.12470  0.64670  Biso   1.000  C
  H35      1.0000 0.03390  0.88290  0.36920  Biso   1.000  H
  H36      1.0000 0.96610  0.11710  0.63080  Biso   1.000  H
  H37      1.0000 0.82270  0.92470  0.37740  Biso   1.000  H
  H38      1.0000 0.17730  0.07530  0.62260  Biso   1.000  H
  H39      1.0000 0.90610  0.90630  0.29170  Biso   1.000  H
  H40      1.0000 0.09390  0.09370  0.70830  Biso   1.000  H
  C25      1.0000 0.70960  0.24676  0.18711  Biso   1.000  C
  C26      1.0000 0.29040  0.75324  0.81289  Biso   1.000  C
  C27      1.0000 0.56720  0.18941  0.17410  Biso   1.000  C
  C28      1.0000 0.43280  0.81059  0.82590  Biso   1.000  C
  C29      1.0000 0.44260  0.14740  0.24044  Biso   1.000  C
  C30      1.0000 0.55740  0.85260  0.75956  Biso   1.000  C
  C31      1.0000 0.46450  0.15600  0.32127  Biso   1.000  C
  C32      1.0000 0.53550  0.84400  0.67873  Biso   1.000  C
  C33      1.0000 0.60900  0.20990  0.33490  Biso   1.000  C
  C34      1.0000 0.39100  0.79010  0.66510  Biso   1.000  C
  C35      1.0000 0.73040  0.25550  0.26813  Biso   1.000  C
  C36      1.0000 0.26960  0.74450  0.73187  Biso   1.000  C
  C37      1.0000 0.83870  0.29880  0.11304  Biso   1.000  C
  C38      1.0000 0.16130  0.70120  0.88696  Biso   1.000  C
  C39      1.0000 0.54810  0.17400  0.08752  Biso   1.000  C
  C40      1.0000 0.45190  0.82600  0.91248  Biso   1.000  C
  O17      1.0000 0.00800  0.92680  0.13211  Biso   1.000  O
  O18      1.0000 0.99200  0.07320  0.86789  Biso   1.000  O
  H41      1.0000 0.96800  0.00580  0.12210  Biso   1.000  H
  H42      1.0000 0.03200  0.99420  0.87790  Biso   1.000  H
  H43      1.0000 0.11910  0.90810  0.11840  Biso   1.000  H
  H44      1.0000 0.88090  0.09190  0.88160  Biso   1.000  H
