data_image0
_cell_length_a       3.9533
_cell_length_b       6.8531
_cell_length_c       17.0301
_cell_angle_alpha    97.238
_cell_angle_beta     96.001
_cell_angle_gamma    95.301

_symmetry_space_group_name_H-M    "P 1"
_symmetry_int_tables_number       1

loop_
  _symmetry_equiv_pos_as_xyz
  'x, y, z'

loop_
  _atom_site_label
  _atom_site_occupancy
  _atom_site_fract_x
  _atom_site_fract_y
  _atom_site_fract_z
  _atom_site_thermal_displace_type
  _atom_site_B_iso_or_equiv
  _atom_site_type_symbol
  Br1      1.0000 0.03187  0.23187  0.44816  Biso   1.000  Br
  Br2      1.0000 0.96813  0.76813  0.55184  Biso   1.000  Br
  Cu1      1.0000 0.50000  0.50000  0.50000  Biso   1.000  Cu
  O1       1.0000 0.49190  0.72730  0.13933  Biso   1.000  O
  O2       1.0000 0.50810  0.27270  0.86067  Biso   1.000  O
  O3       1.0000 0.66730  0.43620  0.16593  Biso   1.000  O
  O4       1.0000 0.33270  0.56380  0.83407  Biso   1.000  O
  N1       1.0000 0.46580  0.59880  0.39650  Biso   1.000  N
  N2       1.0000 0.53420  0.40120  0.60350  Biso   1.000  N
  N3       1.0000 0.36160  0.77860  0.38360  Biso   1.000  N
  N4       1.0000 0.63840  0.22140  0.61640  Biso   1.000  N
  N5       1.0000 0.28810  0.97450  0.27880  Biso   1.000  N
  N6       1.0000 0.71190  0.02550  0.72120  Biso   1.000  N
  C1       1.0000 0.54440  0.51930  0.32720  Biso   1.000  C
  C2       1.0000 0.45560  0.48070  0.67280  Biso   1.000  C
  C3       1.0000 0.49660  0.64280  0.26890  Biso   1.000  C
  C4       1.0000 0.50340  0.35720  0.73110  Biso   1.000  C
  C5       1.0000 0.37640  0.80860  0.30770  Biso   1.000  C
  C6       1.0000 0.62360  0.19140  0.69230  Biso   1.000  C
  C7       1.0000 0.55020  0.61180  0.18570  Biso   1.000  C
  C8       1.0000 0.44980  0.38820  0.81430  Biso   1.000  C
  C9       1.0000 0.73280  0.39070  0.08370  Biso   1.000  C
  C10      1.0000 0.26720  0.60930  0.91630  Biso   1.000  C
  C11      1.0000 0.85000  0.18860  0.07570  Biso   1.000  C
  C12      1.0000 0.15000  0.81140  0.92430  Biso   1.000  C
  H1       1.0000 0.26500  0.84500  0.41700  Biso   1.000  H
  H2       1.0000 0.73500  0.15500  0.58300  Biso   1.000  H
  H3       1.0000 0.25000  0.96100  0.22900  Biso   1.000  H
  H4       1.0000 0.75000  0.03900  0.77100  Biso   1.000  H
  H5       1.0000 0.15000  0.06000  0.30700  Biso   1.000  H
  H6       1.0000 0.85000  0.94000  0.69300  Biso   1.000  H
  H7       1.0000 0.52800  0.39300  0.04500  Biso   1.000  H
  H8       1.0000 0.47200  0.60700  0.95500  Biso   1.000  H
  H9       1.0000 0.92600  0.50500  0.07000  Biso   1.000  H
  H10      1.0000 0.07400  0.49500  0.93000  Biso   1.000  H
  H11      1.0000 0.67000  0.09900  0.08400  Biso   1.000  H
  H12      1.0000 0.33000  0.90100  0.91600  Biso   1.000  H
  H13      1.0000 0.07000  0.19200  0.11900  Biso   1.000  H
  H14      1.0000 0.93000  0.80800  0.88100  Biso   1.000  H
  H15      1.0000 0.92000  0.15000  0.02600  Biso   1.000  H
  H16      1.0000 0.08000  0.85000  0.97400  Biso   1.000  H
  H17      1.0000 0.64500  0.40100  0.31900  Biso   1.000  H
  H18      1.0000 0.35500  0.59900  0.68100  Biso   1.000  H
