data_image0
_cell_length_a       11.275
_cell_length_b       14.76
_cell_length_c       7.366
_cell_angle_alpha    96.44
_cell_angle_beta     101.63
_cell_angle_gamma    110.25

_symmetry_space_group_name_H-M    "P 1"
_symmetry_int_tables_number       1

loop_
  _symmetry_equiv_pos_as_xyz
  'x, y, z'

loop_
  _atom_site_label
  _atom_site_occupancy
  _atom_site_fract_x
  _atom_site_fract_y
  _atom_site_fract_z
  _atom_site_thermal_displace_type
  _atom_site_B_iso_or_equiv
  _atom_site_type_symbol
  B1       1.0000 0.33720  0.20920  0.57510  Biso   1.000  B
  B2       1.0000 0.66280  0.79080  0.42490  Biso   1.000  B
  Cu1      1.0000 0.37863  0.23878  0.09863  Biso   1.000  Cu
  Cu2      1.0000 0.62137  0.76122  0.90137  Biso   1.000  Cu
  N1       1.0000 0.21700  0.12370  0.96480  Biso   1.000  N
  N2       1.0000 0.78300  0.87630  0.03520  Biso   1.000  N
  C1       1.0000 0.10860  0.12710  0.85110  Biso   1.000  C
  C2       1.0000 0.89140  0.87290  0.14890  Biso   1.000  C
  C3       1.0000 0.00850  0.04210  0.74320  Biso   1.000  C
  C4       1.0000 0.99150  0.95790  0.25680  Biso   1.000  C
  C5       1.0000 0.02020  0.95370  0.74730  Biso   1.000  C
  C6       1.0000 0.97980  0.04630  0.25270  Biso   1.000  C
  C7       1.0000 0.13140  0.94960  0.86190  Biso   1.000  C
  C8       1.0000 0.86860  0.05040  0.13810  Biso   1.000  C
  C9       1.0000 0.22860  0.03710  0.96970  Biso   1.000  C
  C10      1.0000 0.77140  0.96290  0.03030  Biso   1.000  C
  C11      1.0000 0.35200  0.04160  0.09170  Biso   1.000  C
  C12      1.0000 0.64800  0.95840  0.90830  Biso   1.000  C
  C13      1.0000 0.37430  0.95940  0.13950  Biso   1.000  C
  C14      1.0000 0.62570  0.04060  0.86050  Biso   1.000  C
  C15      1.0000 0.49230  0.97220  0.25890  Biso   1.000  C
  C16      1.0000 0.50770  0.02780  0.74110  Biso   1.000  C
  C17      1.0000 0.58350  0.06500  0.32730  Biso   1.000  C
  C18      1.0000 0.41650  0.93500  0.67270  Biso   1.000  C
  C19      1.0000 0.55800  0.14530  0.27960  Biso   1.000  C
  C20      1.0000 0.44200  0.85470  0.72040  Biso   1.000  C
  N3       1.0000 0.44270  0.13260  0.15810  Biso   1.000  N
  N4       1.0000 0.55730  0.86740  0.84190  Biso   1.000  N
  F1       1.0000 0.40600  0.23230  0.76130  Biso   1.000  F
  F2       1.0000 0.59400  0.76770  0.23870  Biso   1.000  F
  F3       1.0000 0.41860  0.26160  0.47160  Biso   1.000  F
  F4       1.0000 0.58140  0.73840  0.52840  Biso   1.000  F
  F5       1.0000 0.29300  0.11100  0.50770  Biso   1.000  F
  F6       1.0000 0.70700  0.88900  0.49230  Biso   1.000  F
  F7       1.0000 0.23130  0.23820  0.55950  Biso   1.000  F
  F8       1.0000 0.76870  0.76180  0.44050  Biso   1.000  F
  N5       1.0000 0.54580  0.35390  0.13920  Biso   1.000  N
  N6       1.0000 0.45420  0.64610  0.86080  Biso   1.000  N
  C21      1.0000 0.65690  0.35260  0.10740  Biso   1.000  C
  C22      1.0000 0.34310  0.64740  0.89260  Biso   1.000  C
  C23      1.0000 0.76790  0.43490  0.14290  Biso   1.000  C
  C24      1.0000 0.23210  0.56510  0.85710  Biso   1.000  C
  C25      1.0000 0.76280  0.52470  0.21470  Biso   1.000  C
  C26      1.0000 0.23720  0.47530  0.78530  Biso   1.000  C
  C27      1.0000 0.64740  0.52860  0.24040  Biso   1.000  C
  C28      1.0000 0.35260  0.47140  0.75960  Biso   1.000  C
  C29      1.0000 0.53780  0.44100  0.20080  Biso   1.000  C
  C30      1.0000 0.46220  0.55900  0.79920  Biso   1.000  C
  C31      1.0000 0.40870  0.43520  0.21910  Biso   1.000  C
  C32      1.0000 0.59130  0.56480  0.78090  Biso   1.000  C
  C33      1.0000 0.38180  0.51630  0.29020  Biso   1.000  C
  C34      1.0000 0.61820  0.48370  0.70980  Biso   1.000  C
  C35      1.0000 0.25430  0.50100  0.30120  Biso   1.000  C
  C36      1.0000 0.74570  0.49900  0.69880  Biso   1.000  C
  C37      1.0000 0.16280  0.41130  0.24880  Biso   1.000  C
  C38      1.0000 0.83720  0.58870  0.75120  Biso   1.000  C
  C39      1.0000 0.19410  0.33400  0.18000  Biso   1.000  C
  C40      1.0000 0.80590  0.66600  0.82000  Biso   1.000  C
  N7       1.0000 0.31280  0.34520  0.16340  Biso   1.000  N
  N8       1.0000 0.68720  0.65480  0.83660  Biso   1.000  N
  H1       1.0000 0.09960  0.19730  0.84670  Biso   1.000  H
  H2       1.0000 0.90040  0.80270  0.15330  Biso   1.000  H
  H3       1.0000 0.92250  0.04620  0.65430  Biso   1.000  H
  H4       1.0000 0.07750  0.95380  0.34570  Biso   1.000  H
  H5       1.0000 0.94260  0.88690  0.66360  Biso   1.000  H
  H6       1.0000 0.05740  0.11310  0.33640  Biso   1.000  H
  H7       1.0000 0.14370  0.88040  0.86670  Biso   1.000  H
  H8       1.0000 0.85630  0.11960  0.13330  Biso   1.000  H
  H9       1.0000 0.29980  0.88640  0.08490  Biso   1.000  H
  H10      1.0000 0.70020  0.11360  0.91510  Biso   1.000  H
  H11      1.0000 0.51240  0.90960  0.29780  Biso   1.000  H
  H12      1.0000 0.48760  0.09040  0.70220  Biso   1.000  H
  H13      1.0000 0.67690  0.07580  0.41930  Biso   1.000  H
  H14      1.0000 0.32310  0.92420  0.58070  Biso   1.000  H
  H15      1.0000 0.63000  0.21370  0.33910  Biso   1.000  H
  H16      1.0000 0.37000  0.78630  0.66090  Biso   1.000  H
  H17      1.0000 0.65920  0.28310  0.04800  Biso   1.000  H
  H18      1.0000 0.34080  0.71690  0.95200  Biso   1.000  H
  H19      1.0000 0.85730  0.43120  0.11760  Biso   1.000  H
  H20      1.0000 0.14270  0.56880  0.88240  Biso   1.000  H
  H21      1.0000 0.84920  0.59150  0.24710  Biso   1.000  H
  H22      1.0000 0.15080  0.40850  0.75290  Biso   1.000  H
  H23      1.0000 0.63980  0.59750  0.29040  Biso   1.000  H
  H24      1.0000 0.36020  0.40250  0.70960  Biso   1.000  H
  H25      1.0000 0.45870  0.58860  0.33630  Biso   1.000  H
  H26      1.0000 0.54130  0.41140  0.66370  Biso   1.000  H
  H27      1.0000 0.23040  0.56290  0.34870  Biso   1.000  H
  H28      1.0000 0.76960  0.43710  0.65130  Biso   1.000  H
  H29      1.0000 0.06500  0.39940  0.26190  Biso   1.000  H
  H30      1.0000 0.93500  0.60060  0.73810  Biso   1.000  H
  H31      1.0000 0.11830  0.26100  0.13800  Biso   1.000  H
  H32      1.0000 0.88170  0.73900  0.86200  Biso   1.000  H
  B3       1.0000 0.13280  0.71820  0.23760  Biso   1.000  B
  B4       1.0000 0.86720  0.28180  0.76240  Biso   1.000  B
  F9       1.0000 0.25880  0.73830  0.29010  Biso   1.000  F
  F10      1.0000 0.74120  0.26170  0.70990  Biso   1.000  F
  F11      1.0000 0.06340  0.62440  0.19820  Biso   1.000  F
  F12      1.0000 0.93660  0.37560  0.80180  Biso   1.000  F
  F13      1.0000 0.11950  0.74470  0.05540  Biso   1.000  F
  F14      1.0000 0.88050  0.25530  0.94460  Biso   1.000  F
  F15      1.0000 0.09380  0.77440  0.32850  Biso   1.000  F
  F16      1.0000 0.90620  0.22560  0.67150  Biso   1.000  F
