data_image0
_cell_length_a       19.5915
_cell_length_b       7.8915
_cell_length_c       28.8468
_cell_angle_alpha    90
_cell_angle_beta     97.3034
_cell_angle_gamma    90

_symmetry_space_group_name_H-M    "P 1"
_symmetry_int_tables_number       1

loop_
  _symmetry_equiv_pos_as_xyz
  'x, y, z'

loop_
  _atom_site_label
  _atom_site_occupancy
  _atom_site_fract_x
  _atom_site_fract_y
  _atom_site_fract_z
  _atom_site_thermal_displace_type
  _atom_site_B_iso_or_equiv
  _atom_site_type_symbol
  Cu1      1.0000 0.48916  0.99138  0.12316  Biso   1.000  Cu
  Cu2      1.0000 0.51084  0.99138  0.37684  Biso   1.000  Cu
  Cu3      1.0000 0.98916  0.49138  0.12316  Biso   1.000  Cu
  Cu4      1.0000 0.01084  0.49138  0.37684  Biso   1.000  Cu
  Cu5      1.0000 0.51084  0.00862  0.87684  Biso   1.000  Cu
  Cu6      1.0000 0.48916  0.00862  0.62316  Biso   1.000  Cu
  Cu7      1.0000 0.01084  0.50862  0.87684  Biso   1.000  Cu
  Cu8      1.0000 0.98916  0.50862  0.62316  Biso   1.000  Cu
  N1       1.0000 0.39791  0.08700  0.09579  Biso   1.000  N
  N2       1.0000 0.60209  0.08700  0.40421  Biso   1.000  N
  N3       1.0000 0.89791  0.58700  0.09579  Biso   1.000  N
  N4       1.0000 0.10209  0.58700  0.40421  Biso   1.000  N
  N5       1.0000 0.60209  0.91300  0.90421  Biso   1.000  N
  N6       1.0000 0.39791  0.91300  0.59579  Biso   1.000  N
  N7       1.0000 0.10209  0.41300  0.90421  Biso   1.000  N
  N8       1.0000 0.89791  0.41300  0.59579  Biso   1.000  N
  N9       1.0000 0.48723  0.19910  0.16216  Biso   1.000  N
  N10      1.0000 0.51277  0.19910  0.33784  Biso   1.000  N
  N11      1.0000 0.98723  0.69910  0.16216  Biso   1.000  N
  N12      1.0000 0.01277  0.69910  0.33784  Biso   1.000  N
  N13      1.0000 0.51277  0.80090  0.83784  Biso   1.000  N
  N14      1.0000 0.48723  0.80090  0.66216  Biso   1.000  N
  N15      1.0000 0.01277  0.30090  0.83784  Biso   1.000  N
  N16      1.0000 0.98723  0.30090  0.66216  Biso   1.000  N
  N17      1.0000 0.51996  0.84570  0.07206  Biso   1.000  N
  N18      1.0000 0.48004  0.84570  0.42794  Biso   1.000  N
  N19      1.0000 0.01996  0.34570  0.07206  Biso   1.000  N
  N20      1.0000 0.98004  0.34570  0.42794  Biso   1.000  N
  N21      1.0000 0.48004  0.15430  0.92794  Biso   1.000  N
  N22      1.0000 0.51996  0.15430  0.57206  Biso   1.000  N
  N23      1.0000 0.98004  0.65430  0.92794  Biso   1.000  N
  N24      1.0000 0.01996  0.65430  0.57206  Biso   1.000  N
  N25      1.0000 0.58145  0.92590  0.15322  Biso   1.000  N
  N26      1.0000 0.41855  0.92590  0.34678  Biso   1.000  N
  N27      1.0000 0.08145  0.42590  0.15322  Biso   1.000  N
  N28      1.0000 0.91855  0.42590  0.34678  Biso   1.000  N
  N29      1.0000 0.41855  0.07410  0.84678  Biso   1.000  N
  N30      1.0000 0.58145  0.07410  0.65322  Biso   1.000  N
  N31      1.0000 0.91855  0.57410  0.84678  Biso   1.000  N
  N32      1.0000 0.08145  0.57410  0.65322  Biso   1.000  N
  N33      1.0000 0.44636  0.77760  0.16116  Biso   1.000  N
  N34      1.0000 0.55364  0.77760  0.33884  Biso   1.000  N
  N35      1.0000 0.94636  0.27760  0.16116  Biso   1.000  N
  N36      1.0000 0.05364  0.27760  0.33884  Biso   1.000  N
  N37      1.0000 0.55364  0.22240  0.83884  Biso   1.000  N
  N38      1.0000 0.44636  0.22240  0.66116  Biso   1.000  N
  N39      1.0000 0.05364  0.72240  0.83884  Biso   1.000  N
  N40      1.0000 0.94636  0.72240  0.66116  Biso   1.000  N
  C1       1.0000 0.34926  0.01430  0.06581  Biso   1.000  C
  C2       1.0000 0.65074  0.01430  0.43419  Biso   1.000  C
  C3       1.0000 0.84926  0.51430  0.06581  Biso   1.000  C
  C4       1.0000 0.15074  0.51430  0.43419  Biso   1.000  C
  C5       1.0000 0.65074  0.98570  0.93419  Biso   1.000  C
  C6       1.0000 0.34926  0.98570  0.56581  Biso   1.000  C
  C7       1.0000 0.15074  0.48570  0.93419  Biso   1.000  C
  C8       1.0000 0.84926  0.48570  0.56581  Biso   1.000  C
  C9       1.0000 0.38622  0.24420  0.11257  Biso   1.000  C
  C10      1.0000 0.61378  0.24420  0.38743  Biso   1.000  C
  C11      1.0000 0.88622  0.74420  0.11257  Biso   1.000  C
  C12      1.0000 0.11378  0.74420  0.38743  Biso   1.000  C
  C13      1.0000 0.61378  0.75580  0.88743  Biso   1.000  C
  C14      1.0000 0.38622  0.75580  0.61257  Biso   1.000  C
  C15      1.0000 0.11378  0.25580  0.88743  Biso   1.000  C
  C16      1.0000 0.88622  0.25580  0.61257  Biso   1.000  C
  C17      1.0000 0.43844  0.30630  0.14965  Biso   1.000  C
  C18      1.0000 0.56156  0.30630  0.35035  Biso   1.000  C
  C19      1.0000 0.93844  0.80630  0.14965  Biso   1.000  C
  C20      1.0000 0.06156  0.80630  0.35035  Biso   1.000  C
  C21      1.0000 0.56156  0.69370  0.85035  Biso   1.000  C
  C22      1.0000 0.43844  0.69370  0.64965  Biso   1.000  C
  C23      1.0000 0.06156  0.19370  0.85035  Biso   1.000  C
  C24      1.0000 0.93844  0.19370  0.64965  Biso   1.000  C
  O1       1.0000 0.53721  0.24160  0.19621  Biso   1.000  O
  O2       1.0000 0.46279  0.24160  0.30379  Biso   1.000  O
  O3       1.0000 0.03721  0.74160  0.19621  Biso   1.000  O
  O4       1.0000 0.96279  0.74160  0.30379  Biso   1.000  O
  O5       1.0000 0.46279  0.75840  0.80379  Biso   1.000  O
  O6       1.0000 0.53721  0.75840  0.69621  Biso   1.000  O
  O7       1.0000 0.96279  0.25840  0.80379  Biso   1.000  O
  O8       1.0000 0.03721  0.25840  0.69621  Biso   1.000  O
  C25      1.0000 0.49194  0.82680  0.02755  Biso   1.000  C
  C26      1.0000 0.50806  0.82680  0.47245  Biso   1.000  C
  C27      1.0000 0.99194  0.32680  0.02755  Biso   1.000  C
  C28      1.0000 0.00806  0.32680  0.47245  Biso   1.000  C
  C29      1.0000 0.50806  0.17320  0.97245  Biso   1.000  C
  C30      1.0000 0.49194  0.17320  0.52755  Biso   1.000  C
  C31      1.0000 0.00806  0.67320  0.97245  Biso   1.000  C
  C32      1.0000 0.99194  0.67320  0.52755  Biso   1.000  C
  C33      1.0000 0.57824  0.75760  0.08719  Biso   1.000  C
  C34      1.0000 0.42176  0.75760  0.41281  Biso   1.000  C
  C35      1.0000 0.07824  0.25760  0.08719  Biso   1.000  C
  C36      1.0000 0.92176  0.25760  0.41281  Biso   1.000  C
  C37      1.0000 0.42176  0.24240  0.91281  Biso   1.000  C
  C38      1.0000 0.57824  0.24240  0.58719  Biso   1.000  C
  C39      1.0000 0.92176  0.74240  0.91281  Biso   1.000  C
  C40      1.0000 0.07824  0.74240  0.58719  Biso   1.000  C
  C41      1.0000 0.61010  0.79780  0.13510  Biso   1.000  C
  C42      1.0000 0.38990  0.79780  0.36490  Biso   1.000  C
  C43      1.0000 0.11010  0.29780  0.13510  Biso   1.000  C
  C44      1.0000 0.88990  0.29780  0.36490  Biso   1.000  C
  C45      1.0000 0.38990  0.20220  0.86490  Biso   1.000  C
  C46      1.0000 0.61010  0.20220  0.63510  Biso   1.000  C
  C47      1.0000 0.88990  0.70220  0.86490  Biso   1.000  C
  C48      1.0000 0.11010  0.70220  0.63510  Biso   1.000  C
  O9       1.0000 0.60563  0.98180  0.19608  Biso   1.000  O
  O10      1.0000 0.39437  0.98180  0.30392  Biso   1.000  O
  O11      1.0000 0.10563  0.48180  0.19608  Biso   1.000  O
  O12      1.0000 0.89437  0.48180  0.30392  Biso   1.000  O
  O13      1.0000 0.39437  0.01820  0.80392  Biso   1.000  O
  O14      1.0000 0.60563  0.01820  0.69608  Biso   1.000  O
  O15      1.0000 0.89437  0.51820  0.80392  Biso   1.000  O
  O16      1.0000 0.10563  0.51820  0.69608  Biso   1.000  O
  H1       1.0000 0.35650  0.90500  0.05540  Biso   1.000  H
  H2       1.0000 0.64350  0.90500  0.44460  Biso   1.000  H
  H3       1.0000 0.85650  0.40500  0.05540  Biso   1.000  H
  H4       1.0000 0.14350  0.40500  0.44460  Biso   1.000  H
  H5       1.0000 0.64350  0.09500  0.94460  Biso   1.000  H
  H6       1.0000 0.35650  0.09500  0.55540  Biso   1.000  H
  H7       1.0000 0.14350  0.59500  0.94460  Biso   1.000  H
  H8       1.0000 0.85650  0.59500  0.55540  Biso   1.000  H
  C49      1.0000 0.28821  0.09560  0.04957  Biso   1.000  C
  C50      1.0000 0.71179  0.09560  0.45043  Biso   1.000  C
  C51      1.0000 0.78821  0.59560  0.04957  Biso   1.000  C
  C52      1.0000 0.21179  0.59560  0.45043  Biso   1.000  C
  C53      1.0000 0.71179  0.90440  0.95043  Biso   1.000  C
  C54      1.0000 0.28821  0.90440  0.54957  Biso   1.000  C
  C55      1.0000 0.21179  0.40440  0.95043  Biso   1.000  C
  C56      1.0000 0.78821  0.40440  0.54957  Biso   1.000  C
  C57      1.0000 0.32691  0.33280  0.09686  Biso   1.000  C
  C58      1.0000 0.67309  0.33280  0.40314  Biso   1.000  C
  C59      1.0000 0.82691  0.83280  0.09686  Biso   1.000  C
  C60      1.0000 0.17309  0.83280  0.40314  Biso   1.000  C
  C61      1.0000 0.67309  0.66720  0.90314  Biso   1.000  C
  C62      1.0000 0.32691  0.66720  0.59686  Biso   1.000  C
  C63      1.0000 0.17309  0.16720  0.90314  Biso   1.000  C
  C64      1.0000 0.82691  0.16720  0.59686  Biso   1.000  C
  C65      1.0000 0.43365  0.47670  0.17045  Biso   1.000  C
  C66      1.0000 0.56635  0.47670  0.32955  Biso   1.000  C
  C67      1.0000 0.93365  0.97670  0.17045  Biso   1.000  C
  C68      1.0000 0.06635  0.97670  0.32955  Biso   1.000  C
  C69      1.0000 0.56635  0.52330  0.82955  Biso   1.000  C
  C70      1.0000 0.43365  0.52330  0.67045  Biso   1.000  C
  C71      1.0000 0.06635  0.02330  0.82955  Biso   1.000  C
  C72      1.0000 0.93365  0.02330  0.67045  Biso   1.000  C
  H9       1.0000 0.57160  0.12400  0.19900  Biso   1.000  H
  H10      1.0000 0.42840  0.12400  0.30100  Biso   1.000  H
  H11      1.0000 0.07160  0.62400  0.19900  Biso   1.000  H
  H12      1.0000 0.92840  0.62400  0.30100  Biso   1.000  H
  H13      1.0000 0.42840  0.87600  0.80100  Biso   1.000  H
  H14      1.0000 0.57160  0.87600  0.69900  Biso   1.000  H
  H15      1.0000 0.92840  0.37600  0.80100  Biso   1.000  H
  H16      1.0000 0.07160  0.37600  0.69900  Biso   1.000  H
  H17      1.0000 0.45220  0.88750  0.01710  Biso   1.000  H
  H18      1.0000 0.54780  0.88750  0.48290  Biso   1.000  H
  H19      1.0000 0.95220  0.38750  0.01710  Biso   1.000  H
  H20      1.0000 0.04780  0.38750  0.48290  Biso   1.000  H
  H21      1.0000 0.54780  0.11250  0.98290  Biso   1.000  H
  H22      1.0000 0.45220  0.11250  0.51710  Biso   1.000  H
  H23      1.0000 0.04780  0.61250  0.98290  Biso   1.000  H
  H24      1.0000 0.95220  0.61250  0.51710  Biso   1.000  H
  C73      1.0000 0.51926  0.72160  0.99637  Biso   1.000  C
  C74      1.0000 0.48074  0.72160  0.50363  Biso   1.000  C
  C75      1.0000 0.01926  0.22160  0.99637  Biso   1.000  C
  C76      1.0000 0.98074  0.22160  0.50363  Biso   1.000  C
  C77      1.0000 0.48074  0.27840  0.00363  Biso   1.000  C
  C78      1.0000 0.51926  0.27840  0.49637  Biso   1.000  C
  C79      1.0000 0.98074  0.77840  0.00363  Biso   1.000  C
  C80      1.0000 0.01926  0.77840  0.49637  Biso   1.000  C
  C81      1.0000 0.60654  0.64490  0.05844  Biso   1.000  C
  C82      1.0000 0.39346  0.64490  0.44156  Biso   1.000  C
  C83      1.0000 0.10654  0.14490  0.05844  Biso   1.000  C
  C84      1.0000 0.89346  0.14490  0.44156  Biso   1.000  C
  C85      1.0000 0.39346  0.35510  0.94156  Biso   1.000  C
  C86      1.0000 0.60654  0.35510  0.55844  Biso   1.000  C
  C87      1.0000 0.89346  0.85510  0.94156  Biso   1.000  C
  C88      1.0000 0.10654  0.85510  0.55844  Biso   1.000  C
  C89      1.0000 0.66766  0.69960  0.15973  Biso   1.000  C
  C90      1.0000 0.33234  0.69960  0.34027  Biso   1.000  C
  C91      1.0000 0.16766  0.19960  0.15973  Biso   1.000  C
  C92      1.0000 0.83234  0.19960  0.34027  Biso   1.000  C
  C93      1.0000 0.33234  0.30040  0.84027  Biso   1.000  C
  C94      1.0000 0.66766  0.30040  0.65973  Biso   1.000  C
  C95      1.0000 0.83234  0.80040  0.84027  Biso   1.000  C
  C96      1.0000 0.16766  0.80040  0.65973  Biso   1.000  C
  H25      1.0000 0.25500  0.04140  0.02890  Biso   1.000  H
  H26      1.0000 0.74500  0.04140  0.47110  Biso   1.000  H
  H27      1.0000 0.75500  0.54140  0.02890  Biso   1.000  H
  H28      1.0000 0.24500  0.54140  0.47110  Biso   1.000  H
  H29      1.0000 0.74500  0.95860  0.97110  Biso   1.000  H
  H30      1.0000 0.25500  0.95860  0.52890  Biso   1.000  H
  H31      1.0000 0.24500  0.45860  0.97110  Biso   1.000  H
  H32      1.0000 0.75500  0.45860  0.52890  Biso   1.000  H
  C97      1.0000 0.27747  0.25840  0.06457  Biso   1.000  C
  C98      1.0000 0.72253  0.25840  0.43543  Biso   1.000  C
  C99      1.0000 0.77747  0.75840  0.06457  Biso   1.000  C
  C100     1.0000 0.22253  0.75840  0.43543  Biso   1.000  C
  C101     1.0000 0.72253  0.74160  0.93543  Biso   1.000  C
  C102     1.0000 0.27747  0.74160  0.56457  Biso   1.000  C
  C103     1.0000 0.22253  0.24160  0.93543  Biso   1.000  C
  C104     1.0000 0.77747  0.24160  0.56457  Biso   1.000  C
  H33      1.0000 0.32020  0.44150  0.10790  Biso   1.000  H
  H34      1.0000 0.67980  0.44150  0.39210  Biso   1.000  H
  H35      1.0000 0.82020  0.94150  0.10790  Biso   1.000  H
  H36      1.0000 0.17980  0.94150  0.39210  Biso   1.000  H
  H37      1.0000 0.67980  0.55850  0.89210  Biso   1.000  H
  H38      1.0000 0.32020  0.55850  0.60790  Biso   1.000  H
  H39      1.0000 0.17980  0.05850  0.89210  Biso   1.000  H
  H40      1.0000 0.82020  0.05850  0.60790  Biso   1.000  H
  C105     1.0000 0.41400  0.50140  0.21430  Biso   1.000  C
  C106     1.0000 0.58600  0.50140  0.28570  Biso   1.000  C
  C107     1.0000 0.91400  0.00140  0.21430  Biso   1.000  C
  C108     1.0000 0.08600  0.00140  0.28570  Biso   1.000  C
  C109     1.0000 0.58600  0.49860  0.78570  Biso   1.000  C
  C110     1.0000 0.41400  0.49860  0.71430  Biso   1.000  C
  C111     1.0000 0.08600  0.99860  0.78570  Biso   1.000  C
  C112     1.0000 0.91400  0.99860  0.71430  Biso   1.000  C
  C113     1.0000 0.44837  0.61790  0.14554  Biso   1.000  C
  C114     1.0000 0.55163  0.61790  0.35446  Biso   1.000  C
  C115     1.0000 0.94837  0.11790  0.14554  Biso   1.000  C
  C116     1.0000 0.05163  0.11790  0.35446  Biso   1.000  C
  C117     1.0000 0.55163  0.38210  0.85446  Biso   1.000  C
  C118     1.0000 0.44837  0.38210  0.64554  Biso   1.000  C
  C119     1.0000 0.05163  0.88210  0.85446  Biso   1.000  C
  C120     1.0000 0.94837  0.88210  0.64554  Biso   1.000  C
  H41      1.0000 0.49930  0.71420  0.96540  Biso   1.000  H
  H42      1.0000 0.50070  0.71420  0.53460  Biso   1.000  H
  H43      1.0000 0.99930  0.21420  0.96540  Biso   1.000  H
  H44      1.0000 0.00070  0.21420  0.53460  Biso   1.000  H
  H45      1.0000 0.50070  0.28580  0.03460  Biso   1.000  H
  H46      1.0000 0.49930  0.28580  0.46540  Biso   1.000  H
  H47      1.0000 0.00070  0.78580  0.03460  Biso   1.000  H
  H48      1.0000 0.99930  0.78580  0.46540  Biso   1.000  H
  C121     1.0000 0.57699  0.62760  0.01232  Biso   1.000  C
  C122     1.0000 0.42301  0.62760  0.48768  Biso   1.000  C
  C123     1.0000 0.07699  0.12760  0.01232  Biso   1.000  C
  C124     1.0000 0.92301  0.12760  0.48768  Biso   1.000  C
  C125     1.0000 0.42301  0.37240  0.98768  Biso   1.000  C
  C126     1.0000 0.57699  0.37240  0.51232  Biso   1.000  C
  C127     1.0000 0.92301  0.87240  0.98768  Biso   1.000  C
  C128     1.0000 0.07699  0.87240  0.51232  Biso   1.000  C
  H49      1.0000 0.64500  0.58130  0.06980  Biso   1.000  H
  H50      1.0000 0.35500  0.58130  0.43020  Biso   1.000  H
  H51      1.0000 0.14500  0.08130  0.06980  Biso   1.000  H
  H52      1.0000 0.85500  0.08130  0.43020  Biso   1.000  H
  H53      1.0000 0.35500  0.41870  0.93020  Biso   1.000  H
  H54      1.0000 0.64500  0.41870  0.56980  Biso   1.000  H
  H55      1.0000 0.85500  0.91870  0.93020  Biso   1.000  H
  H56      1.0000 0.14500  0.91870  0.56980  Biso   1.000  H
  C129     1.0000 0.72663  0.77960  0.18162  Biso   1.000  C
  C130     1.0000 0.27337  0.77960  0.31838  Biso   1.000  C
  C131     1.0000 0.22663  0.27960  0.18162  Biso   1.000  C
  C132     1.0000 0.77337  0.27960  0.31838  Biso   1.000  C
  C133     1.0000 0.27337  0.22040  0.81838  Biso   1.000  C
  C134     1.0000 0.72663  0.22040  0.68162  Biso   1.000  C
  C135     1.0000 0.77337  0.72040  0.81838  Biso   1.000  C
  C136     1.0000 0.22663  0.72040  0.68162  Biso   1.000  C
  C137     1.0000 0.66332  0.52420  0.16353  Biso   1.000  C
  C138     1.0000 0.33668  0.52420  0.33647  Biso   1.000  C
  C139     1.0000 0.16332  0.02420  0.16353  Biso   1.000  C
  C140     1.0000 0.83668  0.02420  0.33647  Biso   1.000  C
  C141     1.0000 0.33668  0.47580  0.83647  Biso   1.000  C
  C142     1.0000 0.66332  0.47580  0.66353  Biso   1.000  C
  C143     1.0000 0.83668  0.97580  0.83647  Biso   1.000  C
  C144     1.0000 0.16332  0.97580  0.66353  Biso   1.000  C
  H57      1.0000 0.23770  0.31720  0.05320  Biso   1.000  H
  H58      1.0000 0.76230  0.31720  0.44680  Biso   1.000  H
  H59      1.0000 0.73770  0.81720  0.05320  Biso   1.000  H
  H60      1.0000 0.26230  0.81720  0.44680  Biso   1.000  H
  H61      1.0000 0.76230  0.68280  0.94680  Biso   1.000  H
  H62      1.0000 0.23770  0.68280  0.55320  Biso   1.000  H
  H63      1.0000 0.26230  0.18280  0.94680  Biso   1.000  H
  H64      1.0000 0.73770  0.18280  0.55320  Biso   1.000  H
  H65      1.0000 0.40310  0.40990  0.23230  Biso   1.000  H
  H66      1.0000 0.59690  0.40990  0.26770  Biso   1.000  H
  H67      1.0000 0.90310  0.90990  0.23230  Biso   1.000  H
  H68      1.0000 0.09690  0.90990  0.26770  Biso   1.000  H
  H69      1.0000 0.59690  0.59010  0.76770  Biso   1.000  H
  H70      1.0000 0.40310  0.59010  0.73230  Biso   1.000  H
  H71      1.0000 0.09690  0.09010  0.76770  Biso   1.000  H
  H72      1.0000 0.90310  0.09010  0.73230  Biso   1.000  H
  C145     1.0000 0.41090  0.66570  0.23068  Biso   1.000  C
  C146     1.0000 0.58910  0.66570  0.26932  Biso   1.000  C
  C147     1.0000 0.91090  0.16570  0.23068  Biso   1.000  C
  C148     1.0000 0.08910  0.16570  0.26932  Biso   1.000  C
  C149     1.0000 0.58910  0.33430  0.76932  Biso   1.000  C
  C150     1.0000 0.41090  0.33430  0.73068  Biso   1.000  C
  C151     1.0000 0.08910  0.83430  0.76932  Biso   1.000  C
  C152     1.0000 0.91090  0.83430  0.73068  Biso   1.000  C
  H73      1.0000 0.46060  0.60140  0.11580  Biso   1.000  H
  H74      1.0000 0.53940  0.60140  0.38420  Biso   1.000  H
  H75      1.0000 0.96060  0.10140  0.11580  Biso   1.000  H
  H76      1.0000 0.03940  0.10140  0.38420  Biso   1.000  H
  H77      1.0000 0.53940  0.39860  0.88420  Biso   1.000  H
  H78      1.0000 0.46060  0.39860  0.61580  Biso   1.000  H
  H79      1.0000 0.03940  0.89860  0.88420  Biso   1.000  H
  H80      1.0000 0.96060  0.89860  0.61580  Biso   1.000  H
  H81      1.0000 0.59590  0.55340  0.99240  Biso   1.000  H
  H82      1.0000 0.40410  0.55340  0.50760  Biso   1.000  H
  H83      1.0000 0.09590  0.05340  0.99240  Biso   1.000  H
  H84      1.0000 0.90410  0.05340  0.50760  Biso   1.000  H
  H85      1.0000 0.40410  0.44660  0.00760  Biso   1.000  H
  H86      1.0000 0.59590  0.44660  0.49240  Biso   1.000  H
  H87      1.0000 0.90410  0.94660  0.00760  Biso   1.000  H
  H88      1.0000 0.09590  0.94660  0.49240  Biso   1.000  H
  H89      1.0000 0.73020  0.89640  0.17840  Biso   1.000  H
  H90      1.0000 0.26980  0.89640  0.32160  Biso   1.000  H
  H91      1.0000 0.23020  0.39640  0.17840  Biso   1.000  H
  H92      1.0000 0.76980  0.39640  0.32160  Biso   1.000  H
  H93      1.0000 0.26980  0.10360  0.82160  Biso   1.000  H
  H94      1.0000 0.73020  0.10360  0.67840  Biso   1.000  H
  H95      1.0000 0.76980  0.60360  0.82160  Biso   1.000  H
  H96      1.0000 0.23020  0.60360  0.67840  Biso   1.000  H
  N41      1.0000 0.77831  0.69750  0.20702  Biso   1.000  N
  N42      1.0000 0.22169  0.69750  0.29298  Biso   1.000  N
  N43      1.0000 0.27831  0.19750  0.20702  Biso   1.000  N
  N44      1.0000 0.72169  0.19750  0.29298  Biso   1.000  N
  N45      1.0000 0.22169  0.30250  0.79298  Biso   1.000  N
  N46      1.0000 0.77831  0.30250  0.70702  Biso   1.000  N
  N47      1.0000 0.72169  0.80250  0.79298  Biso   1.000  N
  N48      1.0000 0.27831  0.80250  0.70702  Biso   1.000  N
  H97      1.0000 0.62550  0.46570  0.14860  Biso   1.000  H
  H98      1.0000 0.37450  0.46570  0.35140  Biso   1.000  H
  H99      1.0000 0.12550  0.96570  0.14860  Biso   1.000  H
  H100     1.0000 0.87450  0.96570  0.35140  Biso   1.000  H
  H101     1.0000 0.37450  0.53430  0.85140  Biso   1.000  H
  H102     1.0000 0.62550  0.53430  0.64860  Biso   1.000  H
  H103     1.0000 0.87450  0.03430  0.85140  Biso   1.000  H
  H104     1.0000 0.12550  0.03430  0.64860  Biso   1.000  H
  C153     1.0000 0.71615  0.43900  0.18982  Biso   1.000  C
  C154     1.0000 0.28385  0.43900  0.31018  Biso   1.000  C
  C155     1.0000 0.21615  0.93900  0.18982  Biso   1.000  C
  C156     1.0000 0.78385  0.93900  0.31018  Biso   1.000  C
  C157     1.0000 0.28385  0.56100  0.81018  Biso   1.000  C
  C158     1.0000 0.71615  0.56100  0.68982  Biso   1.000  C
  C159     1.0000 0.78385  0.06100  0.81018  Biso   1.000  C
  C160     1.0000 0.21615  0.06100  0.68982  Biso   1.000  C
  H105     1.0000 0.39720  0.68610  0.25990  Biso   1.000  H
  H106     1.0000 0.60280  0.68610  0.24010  Biso   1.000  H
  H107     1.0000 0.89720  0.18610  0.25990  Biso   1.000  H
  H108     1.0000 0.10280  0.18610  0.24010  Biso   1.000  H
  H109     1.0000 0.60280  0.31390  0.74010  Biso   1.000  H
  H110     1.0000 0.39720  0.31390  0.75990  Biso   1.000  H
  H111     1.0000 0.10280  0.81390  0.74010  Biso   1.000  H
  H112     1.0000 0.89720  0.81390  0.75990  Biso   1.000  H
  C161     1.0000 0.42802  0.79860  0.20370  Biso   1.000  C
  C162     1.0000 0.57198  0.79860  0.29630  Biso   1.000  C
  C163     1.0000 0.92802  0.29860  0.20370  Biso   1.000  C
  C164     1.0000 0.07198  0.29860  0.29630  Biso   1.000  C
  C165     1.0000 0.57198  0.20140  0.79630  Biso   1.000  C
  C166     1.0000 0.42802  0.20140  0.70370  Biso   1.000  C
  C167     1.0000 0.07198  0.70140  0.79630  Biso   1.000  C
  C168     1.0000 0.92802  0.70140  0.70370  Biso   1.000  C
  C169     1.0000 0.77129  0.52960  0.21121  Biso   1.000  C
  C170     1.0000 0.22871  0.52960  0.28879  Biso   1.000  C
  C171     1.0000 0.27129  0.02960  0.21121  Biso   1.000  C
  C172     1.0000 0.72871  0.02960  0.28879  Biso   1.000  C
  C173     1.0000 0.22871  0.47040  0.78879  Biso   1.000  C
  C174     1.0000 0.77129  0.47040  0.71121  Biso   1.000  C
  C175     1.0000 0.72871  0.97040  0.78879  Biso   1.000  C
  C176     1.0000 0.27129  0.97040  0.71121  Biso   1.000  C
  H113     1.0000 0.71450  0.32180  0.19300  Biso   1.000  H
  H114     1.0000 0.28550  0.32180  0.30700  Biso   1.000  H
  H115     1.0000 0.21450  0.82180  0.19300  Biso   1.000  H
  H116     1.0000 0.78550  0.82180  0.30700  Biso   1.000  H
  H117     1.0000 0.28550  0.67820  0.80700  Biso   1.000  H
  H118     1.0000 0.71450  0.67820  0.69300  Biso   1.000  H
  H119     1.0000 0.78550  0.17820  0.80700  Biso   1.000  H
  H120     1.0000 0.21450  0.17820  0.69300  Biso   1.000  H
  H121     1.0000 0.42680  0.90790  0.21560  Biso   1.000  H
  H122     1.0000 0.57320  0.90790  0.28440  Biso   1.000  H
  H123     1.0000 0.92680  0.40790  0.21560  Biso   1.000  H
  H124     1.0000 0.07320  0.40790  0.28440  Biso   1.000  H
  H125     1.0000 0.57320  0.09210  0.78440  Biso   1.000  H
  H126     1.0000 0.42680  0.09210  0.71560  Biso   1.000  H
  H127     1.0000 0.07320  0.59210  0.78440  Biso   1.000  H
  H128     1.0000 0.92680  0.59210  0.71560  Biso   1.000  H
  H129     1.0000 0.80580  0.47070  0.22970  Biso   1.000  H
  H130     1.0000 0.19420  0.47070  0.27030  Biso   1.000  H
  H131     1.0000 0.30580  0.97070  0.22970  Biso   1.000  H
  H132     1.0000 0.69420  0.97070  0.27030  Biso   1.000  H
  H133     1.0000 0.19420  0.52930  0.77030  Biso   1.000  H
  H134     1.0000 0.80580  0.52930  0.72970  Biso   1.000  H
  H135     1.0000 0.69420  0.02930  0.77030  Biso   1.000  H
  H136     1.0000 0.30580  0.02930  0.72970  Biso   1.000  H
  B1       1.0000 0.66251  0.18020  0.06438  Biso   1.000  B
  B2       1.0000 0.33749  0.18020  0.43562  Biso   1.000  B
  B3       1.0000 0.16251  0.68020  0.06438  Biso   1.000  B
  B4       1.0000 0.83749  0.68020  0.43562  Biso   1.000  B
  B5       1.0000 0.33749  0.81980  0.93562  Biso   1.000  B
  B6       1.0000 0.66251  0.81980  0.56438  Biso   1.000  B
  B7       1.0000 0.83749  0.31980  0.93562  Biso   1.000  B
  B8       1.0000 0.16251  0.31980  0.56438  Biso   1.000  B
  F1       1.0000 0.64603  0.02970  0.04078  Biso   1.000  F
  F2       1.0000 0.35397  0.02970  0.45922  Biso   1.000  F
  F3       1.0000 0.14603  0.52970  0.04078  Biso   1.000  F
  F4       1.0000 0.85397  0.52970  0.45922  Biso   1.000  F
  F5       1.0000 0.35397  0.97030  0.95922  Biso   1.000  F
  F6       1.0000 0.64603  0.97030  0.54078  Biso   1.000  F
  F7       1.0000 0.85397  0.47030  0.95922  Biso   1.000  F
  F8       1.0000 0.14603  0.47030  0.54078  Biso   1.000  F
  F9       1.0000 0.66820  0.29870  0.02620  Biso   1.000  F
  F10      1.0000 0.33180  0.29870  0.47380  Biso   1.000  F
  F11      1.0000 0.16820  0.79870  0.02620  Biso   1.000  F
  F12      1.0000 0.83180  0.79870  0.47380  Biso   1.000  F
  F13      1.0000 0.33180  0.70130  0.97380  Biso   1.000  F
  F14      1.0000 0.66820  0.70130  0.52620  Biso   1.000  F
  F15      1.0000 0.83180  0.20130  0.97380  Biso   1.000  F
  F16      1.0000 0.16820  0.20130  0.52620  Biso   1.000  F
  F17      1.0000 0.72340  0.16930  0.09100  Biso   1.000  F
  F18      1.0000 0.27660  0.16930  0.40900  Biso   1.000  F
  F19      1.0000 0.22340  0.66930  0.09100  Biso   1.000  F
  F20      1.0000 0.77660  0.66930  0.40900  Biso   1.000  F
  F21      1.0000 0.27660  0.83070  0.90900  Biso   1.000  F
  F22      1.0000 0.72340  0.83070  0.59100  Biso   1.000  F
  F23      1.0000 0.77660  0.33070  0.90900  Biso   1.000  F
  F24      1.0000 0.22340  0.33070  0.59100  Biso   1.000  F
  F25      1.0000 0.60744  0.23060  0.08768  Biso   1.000  F
  F26      1.0000 0.39256  0.23060  0.41232  Biso   1.000  F
  F27      1.0000 0.10744  0.73060  0.08768  Biso   1.000  F
  F28      1.0000 0.89256  0.73060  0.41232  Biso   1.000  F
  F29      1.0000 0.39256  0.76940  0.91232  Biso   1.000  F
  F30      1.0000 0.60744  0.76940  0.58768  Biso   1.000  F
  F31      1.0000 0.89256  0.26940  0.91232  Biso   1.000  F
  F32      1.0000 0.10744  0.26940  0.58768  Biso   1.000  F
  O17      1.0000 0.67260  0.35710  0.96490  Biso   1.000  O
  O18      1.0000 0.32740  0.35710  0.53510  Biso   1.000  O
  O19      1.0000 0.17260  0.85710  0.96490  Biso   1.000  O
  O20      1.0000 0.82740  0.85710  0.53510  Biso   1.000  O
  O21      1.0000 0.32740  0.64290  0.03510  Biso   1.000  O
  O22      1.0000 0.67260  0.64290  0.46490  Biso   1.000  O
  O23      1.0000 0.82740  0.14290  0.03510  Biso   1.000  O
  O24      1.0000 0.17260  0.14290  0.46490  Biso   1.000  O
  F33      1.0000 0.69590  0.30610  0.05670  Biso   1.000  F
  F34      1.0000 0.30410  0.30610  0.44330  Biso   1.000  F
  F35      1.0000 0.19590  0.80610  0.05670  Biso   1.000  F
  F36      1.0000 0.80410  0.80610  0.44330  Biso   1.000  F
  F37      1.0000 0.30410  0.69390  0.94330  Biso   1.000  F
  F38      1.0000 0.69590  0.69390  0.55670  Biso   1.000  F
  F39      1.0000 0.80410  0.19390  0.94330  Biso   1.000  F
  F40      1.0000 0.19590  0.19390  0.55670  Biso   1.000  F
  F41      1.0000 0.70720  0.09930  0.11120  Biso   1.000  F
  F42      1.0000 0.29280  0.09930  0.38880  Biso   1.000  F
  F43      1.0000 0.20720  0.59930  0.11120  Biso   1.000  F
  F44      1.0000 0.79280  0.59930  0.38880  Biso   1.000  F
  F45      1.0000 0.29280  0.90070  0.88880  Biso   1.000  F
  F46      1.0000 0.70720  0.90070  0.61120  Biso   1.000  F
  F47      1.0000 0.79280  0.40070  0.88880  Biso   1.000  F
  F48      1.0000 0.20720  0.40070  0.61120  Biso   1.000  F
