data_image0
_cell_length_a       28.5714
_cell_length_b       7.0275
_cell_length_c       23.0324
_cell_angle_alpha    90
_cell_angle_beta     99.838
_cell_angle_gamma    90

_symmetry_space_group_name_H-M    "P 1"
_symmetry_int_tables_number       1

loop_
  _symmetry_equiv_pos_as_xyz
  'x, y, z'

loop_
  _atom_site_label
  _atom_site_occupancy
  _atom_site_fract_x
  _atom_site_fract_y
  _atom_site_fract_z
  _atom_site_thermal_displace_type
  _atom_site_B_iso_or_equiv
  _atom_site_type_symbol
  C1       1.0000 0.70778  0.37850  0.08949  Biso   1.000  C
  C2       1.0000 0.29222  0.37850  0.41051  Biso   1.000  C
  C3       1.0000 0.20778  0.87850  0.08949  Biso   1.000  C
  C4       1.0000 0.79222  0.87850  0.41051  Biso   1.000  C
  C5       1.0000 0.29222  0.62150  0.91051  Biso   1.000  C
  C6       1.0000 0.70778  0.62150  0.58949  Biso   1.000  C
  C7       1.0000 0.79222  0.12150  0.91051  Biso   1.000  C
  C8       1.0000 0.20778  0.12150  0.58949  Biso   1.000  C
  H1       1.0000 0.67930  0.44530  0.08350  Biso   1.000  H
  H2       1.0000 0.32070  0.44530  0.41650  Biso   1.000  H
  H3       1.0000 0.17930  0.94530  0.08350  Biso   1.000  H
  H4       1.0000 0.82070  0.94530  0.41650  Biso   1.000  H
  H5       1.0000 0.32070  0.55470  0.91650  Biso   1.000  H
  H6       1.0000 0.67930  0.55470  0.58350  Biso   1.000  H
  H7       1.0000 0.82070  0.05470  0.91650  Biso   1.000  H
  H8       1.0000 0.17930  0.05470  0.58350  Biso   1.000  H
  C9       1.0000 0.74656  0.45830  0.07008  Biso   1.000  C
  C10      1.0000 0.25344  0.45830  0.42992  Biso   1.000  C
  C11      1.0000 0.24656  0.95830  0.07008  Biso   1.000  C
  C12      1.0000 0.75344  0.95830  0.42992  Biso   1.000  C
  C13      1.0000 0.25344  0.54170  0.92992  Biso   1.000  C
  C14      1.0000 0.74656  0.54170  0.57008  Biso   1.000  C
  C15      1.0000 0.75344  0.04170  0.92992  Biso   1.000  C
  C16      1.0000 0.24656  0.04170  0.57008  Biso   1.000  C
  H9       1.0000 0.74380  0.57370  0.05000  Biso   1.000  H
  H10      1.0000 0.25620  0.57370  0.45000  Biso   1.000  H
  H11      1.0000 0.24380  0.07370  0.05000  Biso   1.000  H
  H12      1.0000 0.75620  0.07370  0.45000  Biso   1.000  H
  H13      1.0000 0.25620  0.42630  0.95000  Biso   1.000  H
  H14      1.0000 0.74380  0.42630  0.55000  Biso   1.000  H
  H15      1.0000 0.75620  0.92630  0.95000  Biso   1.000  H
  H16      1.0000 0.24380  0.92630  0.55000  Biso   1.000  H
  C17      1.0000 0.78939  0.36350  0.08103  Biso   1.000  C
  C18      1.0000 0.21061  0.36350  0.41897  Biso   1.000  C
  C19      1.0000 0.28939  0.86350  0.08103  Biso   1.000  C
  C20      1.0000 0.71061  0.86350  0.41897  Biso   1.000  C
  C21      1.0000 0.21061  0.63650  0.91897  Biso   1.000  C
  C22      1.0000 0.78939  0.63650  0.58103  Biso   1.000  C
  C23      1.0000 0.71061  0.13650  0.91897  Biso   1.000  C
  C24      1.0000 0.28939  0.13650  0.58103  Biso   1.000  C
  H17      1.0000 0.81580  0.41190  0.06730  Biso   1.000  H
  H18      1.0000 0.18420  0.41190  0.43270  Biso   1.000  H
  H19      1.0000 0.31580  0.91190  0.06730  Biso   1.000  H
  H20      1.0000 0.68420  0.91190  0.43270  Biso   1.000  H
  H21      1.0000 0.18420  0.58810  0.93270  Biso   1.000  H
  H22      1.0000 0.81580  0.58810  0.56730  Biso   1.000  H
  H23      1.0000 0.68420  0.08810  0.93270  Biso   1.000  H
  H24      1.0000 0.31580  0.08810  0.56730  Biso   1.000  H
  C25      1.0000 0.79269  0.19440  0.11288  Biso   1.000  C
  C26      1.0000 0.20731  0.19440  0.38712  Biso   1.000  C
  C27      1.0000 0.29269  0.69440  0.11288  Biso   1.000  C
  C28      1.0000 0.70731  0.69440  0.38712  Biso   1.000  C
  C29      1.0000 0.20731  0.80560  0.88712  Biso   1.000  C
  C30      1.0000 0.79269  0.80560  0.61288  Biso   1.000  C
  C31      1.0000 0.70731  0.30560  0.88712  Biso   1.000  C
  C32      1.0000 0.29269  0.30560  0.61288  Biso   1.000  C
  H25      1.0000 0.82170  0.13260  0.12270  Biso   1.000  H
  H26      1.0000 0.17830  0.13260  0.37730  Biso   1.000  H
  H27      1.0000 0.32170  0.63260  0.12270  Biso   1.000  H
  H28      1.0000 0.67830  0.63260  0.37730  Biso   1.000  H
  H29      1.0000 0.17830  0.86740  0.87730  Biso   1.000  H
  H30      1.0000 0.82170  0.86740  0.62270  Biso   1.000  H
  H31      1.0000 0.67830  0.36740  0.87730  Biso   1.000  H
  H32      1.0000 0.32170  0.36740  0.62270  Biso   1.000  H
  C33      1.0000 0.75228  0.11890  0.12983  Biso   1.000  C
  C34      1.0000 0.24772  0.11890  0.37017  Biso   1.000  C
  C35      1.0000 0.25228  0.61890  0.12983  Biso   1.000  C
  C36      1.0000 0.74772  0.61890  0.37017  Biso   1.000  C
  C37      1.0000 0.24772  0.88110  0.87017  Biso   1.000  C
  C38      1.0000 0.75228  0.88110  0.62983  Biso   1.000  C
  C39      1.0000 0.74772  0.38110  0.87017  Biso   1.000  C
  C40      1.0000 0.25228  0.38110  0.62983  Biso   1.000  C
  C41      1.0000 0.75198  0.94200  0.16474  Biso   1.000  C
  C42      1.0000 0.24802  0.94200  0.33526  Biso   1.000  C
  C43      1.0000 0.25198  0.44200  0.16474  Biso   1.000  C
  C44      1.0000 0.74802  0.44200  0.33526  Biso   1.000  C
  C45      1.0000 0.24802  0.05800  0.83526  Biso   1.000  C
  C46      1.0000 0.75198  0.05800  0.66474  Biso   1.000  C
  C47      1.0000 0.74802  0.55800  0.83526  Biso   1.000  C
  C48      1.0000 0.25198  0.55800  0.66474  Biso   1.000  C
  C49      1.0000 0.79612  0.83870  0.18915  Biso   1.000  C
  C50      1.0000 0.20388  0.83870  0.31085  Biso   1.000  C
  C51      1.0000 0.29612  0.33870  0.18915  Biso   1.000  C
  C52      1.0000 0.70388  0.33870  0.31085  Biso   1.000  C
  C53      1.0000 0.20388  0.16130  0.81085  Biso   1.000  C
  C54      1.0000 0.79612  0.16130  0.68915  Biso   1.000  C
  C55      1.0000 0.70388  0.66130  0.81085  Biso   1.000  C
  C56      1.0000 0.29612  0.66130  0.68915  Biso   1.000  C
  C57      1.0000 0.82752  0.77550  0.15337  Biso   1.000  C
  C58      1.0000 0.17248  0.77550  0.34663  Biso   1.000  C
  C59      1.0000 0.32752  0.27550  0.15337  Biso   1.000  C
  C60      1.0000 0.67248  0.27550  0.34663  Biso   1.000  C
  C61      1.0000 0.17248  0.22450  0.84663  Biso   1.000  C
  C62      1.0000 0.82752  0.22450  0.65337  Biso   1.000  C
  C63      1.0000 0.67248  0.72450  0.84663  Biso   1.000  C
  C64      1.0000 0.32752  0.72450  0.65337  Biso   1.000  C
  H33      1.0000 0.82110  0.79570  0.11290  Biso   1.000  H
  H34      1.0000 0.17890  0.79570  0.38710  Biso   1.000  H
  H35      1.0000 0.32110  0.29570  0.11290  Biso   1.000  H
  H36      1.0000 0.67890  0.29570  0.38710  Biso   1.000  H
  H37      1.0000 0.17890  0.20430  0.88710  Biso   1.000  H
  H38      1.0000 0.82110  0.20430  0.61290  Biso   1.000  H
  H39      1.0000 0.67890  0.70430  0.88710  Biso   1.000  H
  H40      1.0000 0.32110  0.70430  0.61290  Biso   1.000  H
  C65      1.0000 0.86834  0.68250  0.17900  Biso   1.000  C
  C66      1.0000 0.13166  0.68250  0.32100  Biso   1.000  C
  C67      1.0000 0.36834  0.18250  0.17900  Biso   1.000  C
  C68      1.0000 0.63166  0.18250  0.32100  Biso   1.000  C
  C69      1.0000 0.13166  0.31750  0.82100  Biso   1.000  C
  C70      1.0000 0.86834  0.31750  0.67900  Biso   1.000  C
  C71      1.0000 0.63166  0.81750  0.82100  Biso   1.000  C
  C72      1.0000 0.36834  0.81750  0.67900  Biso   1.000  C
  H41      1.0000 0.89020  0.64110  0.15610  Biso   1.000  H
  H42      1.0000 0.10980  0.64110  0.34390  Biso   1.000  H
  H43      1.0000 0.39020  0.14110  0.15610  Biso   1.000  H
  H44      1.0000 0.60980  0.14110  0.34390  Biso   1.000  H
  H45      1.0000 0.10980  0.35890  0.84390  Biso   1.000  H
  H46      1.0000 0.89020  0.35890  0.65610  Biso   1.000  H
  H47      1.0000 0.60980  0.85890  0.84390  Biso   1.000  H
  H48      1.0000 0.39020  0.85890  0.65610  Biso   1.000  H
  C73      1.0000 0.87633  0.65170  0.23889  Biso   1.000  C
  C74      1.0000 0.12367  0.65170  0.26111  Biso   1.000  C
  C75      1.0000 0.37633  0.15170  0.23889  Biso   1.000  C
  C76      1.0000 0.62367  0.15170  0.26111  Biso   1.000  C
  C77      1.0000 0.12367  0.34830  0.76111  Biso   1.000  C
  C78      1.0000 0.87633  0.34830  0.73889  Biso   1.000  C
  C79      1.0000 0.62367  0.84830  0.76111  Biso   1.000  C
  C80      1.0000 0.37633  0.84830  0.73889  Biso   1.000  C
  H49      1.0000 0.90410  0.58950  0.25570  Biso   1.000  H
  H50      1.0000 0.09590  0.58950  0.24430  Biso   1.000  H
  H51      1.0000 0.40410  0.08950  0.25570  Biso   1.000  H
  H52      1.0000 0.59590  0.08950  0.24430  Biso   1.000  H
  H53      1.0000 0.09590  0.41050  0.74430  Biso   1.000  H
  H54      1.0000 0.90410  0.41050  0.75570  Biso   1.000  H
  H55      1.0000 0.59590  0.91050  0.74430  Biso   1.000  H
  H56      1.0000 0.40410  0.91050  0.75570  Biso   1.000  H
  C81      1.0000 0.80712  0.80040  0.24938  Biso   1.000  C
  C82      1.0000 0.19288  0.80040  0.25062  Biso   1.000  C
  C83      1.0000 0.30712  0.30040  0.24938  Biso   1.000  C
  C84      1.0000 0.69288  0.30040  0.25062  Biso   1.000  C
  C85      1.0000 0.19288  0.19960  0.75062  Biso   1.000  C
  C86      1.0000 0.80712  0.19960  0.74938  Biso   1.000  C
  C87      1.0000 0.69288  0.69960  0.75062  Biso   1.000  C
  C88      1.0000 0.30712  0.69960  0.74938  Biso   1.000  C
  H57      1.0000 0.78620  0.84230  0.27340  Biso   1.000  H
  H58      1.0000 0.21380  0.84230  0.22660  Biso   1.000  H
  H59      1.0000 0.28620  0.34230  0.27340  Biso   1.000  H
  H60      1.0000 0.71380  0.34230  0.22660  Biso   1.000  H
  H61      1.0000 0.21380  0.15770  0.72660  Biso   1.000  H
  H62      1.0000 0.78620  0.15770  0.77340  Biso   1.000  H
  H63      1.0000 0.71380  0.65770  0.72660  Biso   1.000  H
  H64      1.0000 0.28620  0.65770  0.77340  Biso   1.000  H
  C89      1.0000 0.59464  0.25740  0.03550  Biso   1.000  C
  C90      1.0000 0.40536  0.25740  0.46450  Biso   1.000  C
  C91      1.0000 0.09464  0.75740  0.03550  Biso   1.000  C
  C92      1.0000 0.90536  0.75740  0.46450  Biso   1.000  C
  C93      1.0000 0.40536  0.74260  0.96450  Biso   1.000  C
  C94      1.0000 0.59464  0.74260  0.53550  Biso   1.000  C
  C95      1.0000 0.90536  0.24260  0.96450  Biso   1.000  C
  C96      1.0000 0.09464  0.24260  0.53550  Biso   1.000  C
  H65      1.0000 0.62270  0.30330  0.02530  Biso   1.000  H
  H66      1.0000 0.37730  0.30330  0.47470  Biso   1.000  H
  H67      1.0000 0.12270  0.80330  0.02530  Biso   1.000  H
  H68      1.0000 0.87730  0.80330  0.47470  Biso   1.000  H
  H69      1.0000 0.37730  0.69670  0.97470  Biso   1.000  H
  H70      1.0000 0.62270  0.69670  0.52530  Biso   1.000  H
  H71      1.0000 0.87730  0.19670  0.97470  Biso   1.000  H
  H72      1.0000 0.12270  0.19670  0.52530  Biso   1.000  H
  C97      1.0000 0.55165  0.31410  0.00210  Biso   1.000  C
  C98      1.0000 0.44835  0.31410  0.49790  Biso   1.000  C
  C99      1.0000 0.05165  0.81410  0.00210  Biso   1.000  C
  C100     1.0000 0.94835  0.81410  0.49790  Biso   1.000  C
  C101     1.0000 0.44835  0.68590  0.99790  Biso   1.000  C
  C102     1.0000 0.55165  0.68590  0.50210  Biso   1.000  C
  C103     1.0000 0.94835  0.18590  0.99790  Biso   1.000  C
  C104     1.0000 0.05165  0.18590  0.50210  Biso   1.000  C
  H73      1.0000 0.55090  0.39550  0.97010  Biso   1.000  H
  H74      1.0000 0.44910  0.39550  0.52990  Biso   1.000  H
  H75      1.0000 0.05090  0.89550  0.97010  Biso   1.000  H
  H76      1.0000 0.94910  0.89550  0.52990  Biso   1.000  H
  H77      1.0000 0.44910  0.60450  0.02990  Biso   1.000  H
  H78      1.0000 0.55090  0.60450  0.47010  Biso   1.000  H
  H79      1.0000 0.94910  0.10450  0.02990  Biso   1.000  H
  H80      1.0000 0.05090  0.10450  0.47010  Biso   1.000  H
  C105     1.0000 0.51030  0.24670  0.01759  Biso   1.000  C
  C106     1.0000 0.48970  0.24670  0.48241  Biso   1.000  C
  C107     1.0000 0.01030  0.74670  0.01759  Biso   1.000  C
  C108     1.0000 0.98970  0.74670  0.48241  Biso   1.000  C
  C109     1.0000 0.48970  0.75330  0.98241  Biso   1.000  C
  C110     1.0000 0.51030  0.75330  0.51759  Biso   1.000  C
  C111     1.0000 0.98970  0.25330  0.98241  Biso   1.000  C
  C112     1.0000 0.01030  0.25330  0.51759  Biso   1.000  C
  H81      1.0000 0.48100  0.28720  0.99730  Biso   1.000  H
  H82      1.0000 0.51900  0.28720  0.50270  Biso   1.000  H
  H83      1.0000 0.98100  0.78720  0.99730  Biso   1.000  H
  H84      1.0000 0.01900  0.78720  0.50270  Biso   1.000  H
  H85      1.0000 0.51900  0.71280  0.00270  Biso   1.000  H
  H86      1.0000 0.48100  0.71280  0.49730  Biso   1.000  H
  H87      1.0000 0.01900  0.21280  0.00270  Biso   1.000  H
  H88      1.0000 0.98100  0.21280  0.49730  Biso   1.000  H
  C113     1.0000 0.51244  0.11800  0.06375  Biso   1.000  C
  C114     1.0000 0.48756  0.11800  0.43625  Biso   1.000  C
  C115     1.0000 0.01244  0.61800  0.06375  Biso   1.000  C
  C116     1.0000 0.98756  0.61800  0.43625  Biso   1.000  C
  C117     1.0000 0.48756  0.88200  0.93625  Biso   1.000  C
  C118     1.0000 0.51244  0.88200  0.56375  Biso   1.000  C
  C119     1.0000 0.98756  0.38200  0.93625  Biso   1.000  C
  C120     1.0000 0.01244  0.38200  0.56375  Biso   1.000  C
  H89      1.0000 0.48470  0.06980  0.07400  Biso   1.000  H
  H90      1.0000 0.51530  0.06980  0.42600  Biso   1.000  H
  H91      1.0000 0.98470  0.56980  0.07400  Biso   1.000  H
  H92      1.0000 0.01530  0.56980  0.42600  Biso   1.000  H
  H93      1.0000 0.51530  0.93020  0.92600  Biso   1.000  H
  H94      1.0000 0.48470  0.93020  0.57400  Biso   1.000  H
  H95      1.0000 0.01530  0.43020  0.92600  Biso   1.000  H
  H96      1.0000 0.98470  0.43020  0.57400  Biso   1.000  H
  C121     1.0000 0.55645  0.06180  0.09442  Biso   1.000  C
  C122     1.0000 0.44355  0.06180  0.40558  Biso   1.000  C
  C123     1.0000 0.05645  0.56180  0.09442  Biso   1.000  C
  C124     1.0000 0.94355  0.56180  0.40558  Biso   1.000  C
  C125     1.0000 0.44355  0.93820  0.90558  Biso   1.000  C
  C126     1.0000 0.55645  0.93820  0.59442  Biso   1.000  C
  C127     1.0000 0.94355  0.43820  0.90558  Biso   1.000  C
  C128     1.0000 0.05645  0.43820  0.59442  Biso   1.000  C
  C129     1.0000 0.56339  0.90730  0.13828  Biso   1.000  C
  C130     1.0000 0.43661  0.90730  0.36172  Biso   1.000  C
  C131     1.0000 0.06339  0.40730  0.13828  Biso   1.000  C
  C132     1.0000 0.93661  0.40730  0.36172  Biso   1.000  C
  C133     1.0000 0.43661  0.09270  0.86172  Biso   1.000  C
  C134     1.0000 0.56339  0.09270  0.63828  Biso   1.000  C
  C135     1.0000 0.93661  0.59270  0.86172  Biso   1.000  C
  C136     1.0000 0.06339  0.59270  0.63828  Biso   1.000  C
  N1       1.0000 0.70946  0.20850  0.11663  Biso   1.000  N
  N2       1.0000 0.29054  0.20850  0.38337  Biso   1.000  N
  N3       1.0000 0.20946  0.70850  0.11663  Biso   1.000  N
  N4       1.0000 0.79054  0.70850  0.38337  Biso   1.000  N
  N5       1.0000 0.29054  0.79150  0.88337  Biso   1.000  N
  N6       1.0000 0.70946  0.79150  0.61663  Biso   1.000  N
  N7       1.0000 0.79054  0.29150  0.88337  Biso   1.000  N
  N8       1.0000 0.20946  0.29150  0.61663  Biso   1.000  N
  N9       1.0000 0.71019  0.89070  0.17351  Biso   1.000  N
  N10      1.0000 0.28981  0.89070  0.32649  Biso   1.000  N
  N11      1.0000 0.21019  0.39070  0.17351  Biso   1.000  N
  N12      1.0000 0.78981  0.39070  0.32649  Biso   1.000  N
  N13      1.0000 0.28981  0.10930  0.82649  Biso   1.000  N
  N14      1.0000 0.71019  0.10930  0.67351  Biso   1.000  N
  N15      1.0000 0.78981  0.60930  0.82649  Biso   1.000  N
  N16      1.0000 0.21019  0.60930  0.67351  Biso   1.000  N
  N17      1.0000 0.84608  0.70690  0.27440  Biso   1.000  N
  N18      1.0000 0.15392  0.70690  0.22560  Biso   1.000  N
  N19      1.0000 0.34608  0.20690  0.27440  Biso   1.000  N
  N20      1.0000 0.65392  0.20690  0.22560  Biso   1.000  N
  N21      1.0000 0.15392  0.29310  0.72560  Biso   1.000  N
  N22      1.0000 0.84608  0.29310  0.77440  Biso   1.000  N
  N23      1.0000 0.65392  0.79310  0.72560  Biso   1.000  N
  N24      1.0000 0.34608  0.79310  0.77440  Biso   1.000  N
  N25      1.0000 0.59732  0.13970  0.08165  Biso   1.000  N
  N26      1.0000 0.40268  0.13970  0.41835  Biso   1.000  N
  N27      1.0000 0.09732  0.63970  0.08165  Biso   1.000  N
  N28      1.0000 0.90268  0.63970  0.41835  Biso   1.000  N
  N29      1.0000 0.40268  0.86030  0.91835  Biso   1.000  N
  N30      1.0000 0.59732  0.86030  0.58165  Biso   1.000  N
  N31      1.0000 0.90268  0.36030  0.91835  Biso   1.000  N
  N32      1.0000 0.09732  0.36030  0.58165  Biso   1.000  N
  N33      1.0000 0.60780  0.87030  0.15869  Biso   1.000  N
  N34      1.0000 0.39220  0.87030  0.34131  Biso   1.000  N
  N35      1.0000 0.10780  0.37030  0.15869  Biso   1.000  N
  N36      1.0000 0.89220  0.37030  0.34131  Biso   1.000  N
  N37      1.0000 0.39220  0.12970  0.84131  Biso   1.000  N
  N38      1.0000 0.60780  0.12970  0.65869  Biso   1.000  N
  N39      1.0000 0.89220  0.62970  0.84131  Biso   1.000  N
  N40      1.0000 0.10780  0.62970  0.65869  Biso   1.000  N
  O1       1.0000 0.70572  0.73360  0.20562  Biso   1.000  O
  O2       1.0000 0.29428  0.73360  0.29438  Biso   1.000  O
  O3       1.0000 0.20572  0.23360  0.20562  Biso   1.000  O
  O4       1.0000 0.79428  0.23360  0.29438  Biso   1.000  O
  O5       1.0000 0.29428  0.26640  0.79438  Biso   1.000  O
  O6       1.0000 0.70572  0.26640  0.70562  Biso   1.000  O
  O7       1.0000 0.79428  0.76640  0.79438  Biso   1.000  O
  O8       1.0000 0.20572  0.76640  0.70562  Biso   1.000  O
  O9       1.0000 0.61926  0.72910  0.19754  Biso   1.000  O
  O10      1.0000 0.38074  0.72910  0.30246  Biso   1.000  O
  O11      1.0000 0.11926  0.22910  0.19754  Biso   1.000  O
  O12      1.0000 0.88074  0.22910  0.30246  Biso   1.000  O
  O13      1.0000 0.38074  0.27090  0.80246  Biso   1.000  O
  O14      1.0000 0.61926  0.27090  0.69754  Biso   1.000  O
  O15      1.0000 0.88074  0.77090  0.80246  Biso   1.000  O
  O16      1.0000 0.11926  0.77090  0.69754  Biso   1.000  O
  H97      1.0000 0.66090  0.72000  0.20320  Biso   1.000  H
  H98      1.0000 0.33910  0.72000  0.29680  Biso   1.000  H
  H99      1.0000 0.16090  0.22000  0.20320  Biso   1.000  H
  H100     1.0000 0.83910  0.22000  0.29680  Biso   1.000  H
  H101     1.0000 0.33910  0.28000  0.79680  Biso   1.000  H
  H102     1.0000 0.66090  0.28000  0.70320  Biso   1.000  H
  H103     1.0000 0.83910  0.78000  0.79680  Biso   1.000  H
  H104     1.0000 0.16090  0.78000  0.70320  Biso   1.000  H
  Cu1      1.0000 0.65544  0.05204  0.13797  Biso   1.000  Cu
  Cu2      1.0000 0.34456  0.05204  0.36203  Biso   1.000  Cu
  Cu3      1.0000 0.15544  0.55204  0.13797  Biso   1.000  Cu
  Cu4      1.0000 0.84456  0.55204  0.36203  Biso   1.000  Cu
  Cu5      1.0000 0.34456  0.94796  0.86203  Biso   1.000  Cu
  Cu6      1.0000 0.65544  0.94796  0.63797  Biso   1.000  Cu
  Cu7      1.0000 0.84456  0.44796  0.86203  Biso   1.000  Cu
  Cu8      1.0000 0.15544  0.44796  0.63797  Biso   1.000  Cu
  C137     1.0000 0.52234  0.81970  0.15150  Biso   1.000  C
  C138     1.0000 0.47766  0.81970  0.34850  Biso   1.000  C
  C139     1.0000 0.02234  0.31970  0.15150  Biso   1.000  C
  C140     1.0000 0.97766  0.31970  0.34850  Biso   1.000  C
  C141     1.0000 0.47766  0.18030  0.84850  Biso   1.000  C
  C142     1.0000 0.52234  0.18030  0.65150  Biso   1.000  C
  C143     1.0000 0.97766  0.68030  0.84850  Biso   1.000  C
  C144     1.0000 0.02234  0.68030  0.65150  Biso   1.000  C
  C145     1.0000 0.48663  0.92480  0.17060  Biso   1.000  C
  C146     1.0000 0.51337  0.92480  0.32940  Biso   1.000  C
  C147     1.0000 0.98663  0.42480  0.17060  Biso   1.000  C
  C148     1.0000 0.01337  0.42480  0.32940  Biso   1.000  C
  C149     1.0000 0.51337  0.07520  0.82940  Biso   1.000  C
  C150     1.0000 0.48663  0.07520  0.67060  Biso   1.000  C
  C151     1.0000 0.01337  0.57520  0.82940  Biso   1.000  C
  C152     1.0000 0.98663  0.57520  0.67060  Biso   1.000  C
  H105     1.0000 0.48840  0.05700  0.17160  Biso   1.000  H
  H106     1.0000 0.51160  0.05700  0.32840  Biso   1.000  H
  H107     1.0000 0.98840  0.55700  0.17160  Biso   1.000  H
  H108     1.0000 0.01160  0.55700  0.32840  Biso   1.000  H
  H109     1.0000 0.51160  0.94300  0.82840  Biso   1.000  H
  H110     1.0000 0.48840  0.94300  0.67160  Biso   1.000  H
  H111     1.0000 0.01160  0.44300  0.82840  Biso   1.000  H
  H112     1.0000 0.98840  0.44300  0.67160  Biso   1.000  H
  N41      1.0000 0.44830  0.83250  0.18803  Biso   1.000  N
  N42      1.0000 0.55170  0.83250  0.31197  Biso   1.000  N
  N43      1.0000 0.94830  0.33250  0.18803  Biso   1.000  N
  N44      1.0000 0.05170  0.33250  0.31197  Biso   1.000  N
  N45      1.0000 0.55170  0.16750  0.81197  Biso   1.000  N
  N46      1.0000 0.44830  0.16750  0.68803  Biso   1.000  N
  N47      1.0000 0.05170  0.66750  0.81197  Biso   1.000  N
  N48      1.0000 0.94830  0.66750  0.68803  Biso   1.000  N
  C153     1.0000 0.44569  0.63500  0.18640  Biso   1.000  C
  C154     1.0000 0.55431  0.63500  0.31360  Biso   1.000  C
  C155     1.0000 0.94569  0.13500  0.18640  Biso   1.000  C
  C156     1.0000 0.05431  0.13500  0.31360  Biso   1.000  C
  C157     1.0000 0.55431  0.36500  0.81360  Biso   1.000  C
  C158     1.0000 0.44569  0.36500  0.68640  Biso   1.000  C
  C159     1.0000 0.05431  0.86500  0.81360  Biso   1.000  C
  C160     1.0000 0.94569  0.86500  0.68640  Biso   1.000  C
  H113     1.0000 0.42010  0.57320  0.19810  Biso   1.000  H
  H114     1.0000 0.57990  0.57320  0.30190  Biso   1.000  H
  H115     1.0000 0.92010  0.07320  0.19810  Biso   1.000  H
  H116     1.0000 0.07990  0.07320  0.30190  Biso   1.000  H
  H117     1.0000 0.57990  0.42680  0.80190  Biso   1.000  H
  H118     1.0000 0.42010  0.42680  0.69810  Biso   1.000  H
  H119     1.0000 0.07990  0.92680  0.80190  Biso   1.000  H
  H120     1.0000 0.92010  0.92680  0.69810  Biso   1.000  H
  C161     1.0000 0.48140  0.52990  0.16740  Biso   1.000  C
  C162     1.0000 0.51860  0.52990  0.33260  Biso   1.000  C
  C163     1.0000 0.98140  0.02990  0.16740  Biso   1.000  C
  C164     1.0000 0.01860  0.02990  0.33260  Biso   1.000  C
  C165     1.0000 0.51860  0.47010  0.83260  Biso   1.000  C
  C166     1.0000 0.48140  0.47010  0.66740  Biso   1.000  C
  C167     1.0000 0.01860  0.97010  0.83260  Biso   1.000  C
  C168     1.0000 0.98140  0.97010  0.66740  Biso   1.000  C
  H121     1.0000 0.47970  0.39780  0.16630  Biso   1.000  H
  H122     1.0000 0.52030  0.39780  0.33370  Biso   1.000  H
  H123     1.0000 0.97970  0.89780  0.16630  Biso   1.000  H
  H124     1.0000 0.02030  0.89780  0.33370  Biso   1.000  H
  H125     1.0000 0.52030  0.60220  0.83370  Biso   1.000  H
  H126     1.0000 0.47970  0.60220  0.66630  Biso   1.000  H
  H127     1.0000 0.02030  0.10220  0.83370  Biso   1.000  H
  H128     1.0000 0.97970  0.10220  0.66630  Biso   1.000  H
  C169     1.0000 0.51973  0.62230  0.14990  Biso   1.000  C
  C170     1.0000 0.48027  0.62230  0.35010  Biso   1.000  C
  C171     1.0000 0.01973  0.12230  0.14990  Biso   1.000  C
  C172     1.0000 0.98027  0.12230  0.35010  Biso   1.000  C
  C173     1.0000 0.48027  0.37770  0.85010  Biso   1.000  C
  C174     1.0000 0.51973  0.37770  0.64990  Biso   1.000  C
  C175     1.0000 0.98027  0.87770  0.85010  Biso   1.000  C
  C176     1.0000 0.01973  0.87770  0.64990  Biso   1.000  C
  H129     1.0000 0.54360  0.55190  0.13720  Biso   1.000  H
  H130     1.0000 0.45640  0.55190  0.36280  Biso   1.000  H
  H131     1.0000 0.04360  0.05190  0.13720  Biso   1.000  H
  H132     1.0000 0.95640  0.05190  0.36280  Biso   1.000  H
  H133     1.0000 0.45640  0.44810  0.86280  Biso   1.000  H
  H134     1.0000 0.54360  0.44810  0.63720  Biso   1.000  H
  H135     1.0000 0.95640  0.94810  0.86280  Biso   1.000  H
  H136     1.0000 0.04360  0.94810  0.63720  Biso   1.000  H
  O17      1.0000 0.60688  0.87910  0.95582  Biso   1.000  O
  O18      1.0000 0.39312  0.87910  0.54418  Biso   1.000  O
  O19      1.0000 0.10688  0.37910  0.95582  Biso   1.000  O
  O20      1.0000 0.89312  0.37910  0.54418  Biso   1.000  O
  O21      1.0000 0.39312  0.12090  0.04418  Biso   1.000  O
  O22      1.0000 0.60688  0.12090  0.45582  Biso   1.000  O
  O23      1.0000 0.89312  0.62090  0.04418  Biso   1.000  O
  O24      1.0000 0.10688  0.62090  0.45582  Biso   1.000  O
  O25      1.0000 0.67680  0.85760  0.02557  Biso   1.000  O
  O26      1.0000 0.32320  0.85760  0.47443  Biso   1.000  O
  O27      1.0000 0.17680  0.35760  0.02557  Biso   1.000  O
  O28      1.0000 0.82320  0.35760  0.47443  Biso   1.000  O
  O29      1.0000 0.32320  0.14240  0.97443  Biso   1.000  O
  O30      1.0000 0.67680  0.14240  0.52557  Biso   1.000  O
  O31      1.0000 0.82320  0.64240  0.97443  Biso   1.000  O
  O32      1.0000 0.17680  0.64240  0.52557  Biso   1.000  O
  O33      1.0000 0.64849  0.58790  0.96996  Biso   1.000  O
  O34      1.0000 0.35151  0.58790  0.53004  Biso   1.000  O
  O35      1.0000 0.14849  0.08790  0.96996  Biso   1.000  O
  O36      1.0000 0.85151  0.08790  0.53004  Biso   1.000  O
  O37      1.0000 0.35151  0.41210  0.03004  Biso   1.000  O
  O38      1.0000 0.64849  0.41210  0.46996  Biso   1.000  O
  O39      1.0000 0.85151  0.91210  0.03004  Biso   1.000  O
  O40      1.0000 0.14849  0.91210  0.46996  Biso   1.000  O
  O41      1.0000 0.60797  0.70150  0.04304  Biso   1.000  O
  O42      1.0000 0.39203  0.70150  0.45696  Biso   1.000  O
  O43      1.0000 0.10797  0.20150  0.04304  Biso   1.000  O
  O44      1.0000 0.89203  0.20150  0.45696  Biso   1.000  O
  O45      1.0000 0.39203  0.29850  0.95696  Biso   1.000  O
  O46      1.0000 0.60797  0.29850  0.54304  Biso   1.000  O
  O47      1.0000 0.89203  0.79850  0.95696  Biso   1.000  O
  O48      1.0000 0.10797  0.79850  0.54304  Biso   1.000  O
  Cl1      1.0000 0.63481  0.75695  0.99822  Biso   1.000  Cl
  Cl2      1.0000 0.36519  0.75695  0.50178  Biso   1.000  Cl
  Cl3      1.0000 0.13481  0.25695  0.99822  Biso   1.000  Cl
  Cl4      1.0000 0.86519  0.25695  0.50178  Biso   1.000  Cl
  Cl5      1.0000 0.36519  0.24305  0.00178  Biso   1.000  Cl
  Cl6      1.0000 0.63481  0.24305  0.49822  Biso   1.000  Cl
  Cl7      1.0000 0.86519  0.74305  0.00178  Biso   1.000  Cl
  Cl8      1.0000 0.13481  0.74305  0.49822  Biso   1.000  Cl
  C177     1.0000 0.52507  0.76490  0.15680  Biso   1.000  C
  C178     1.0000 0.47493  0.76490  0.34320  Biso   1.000  C
  C179     1.0000 0.02507  0.26490  0.15680  Biso   1.000  C
  C180     1.0000 0.97493  0.26490  0.34320  Biso   1.000  C
  C181     1.0000 0.47493  0.23510  0.84320  Biso   1.000  C
  C182     1.0000 0.52507  0.23510  0.65680  Biso   1.000  C
  C183     1.0000 0.97493  0.73510  0.84320  Biso   1.000  C
  C184     1.0000 0.02507  0.73510  0.65680  Biso   1.000  C
  C185     1.0000 0.52896  0.56970  0.14910  Biso   1.000  C
  C186     1.0000 0.47104  0.56970  0.35090  Biso   1.000  C
  C187     1.0000 0.02896  0.06970  0.14910  Biso   1.000  C
  C188     1.0000 0.97104  0.06970  0.35090  Biso   1.000  C
  C189     1.0000 0.47104  0.43030  0.85090  Biso   1.000  C
  C190     1.0000 0.52896  0.43030  0.64910  Biso   1.000  C
  C191     1.0000 0.97104  0.93030  0.85090  Biso   1.000  C
  C192     1.0000 0.02896  0.93030  0.64910  Biso   1.000  C
  H137     1.0000 0.55500  0.52020  0.13480  Biso   1.000  H
  H138     1.0000 0.44500  0.52020  0.36520  Biso   1.000  H
  H139     1.0000 0.05500  0.02020  0.13480  Biso   1.000  H
  H140     1.0000 0.94500  0.02020  0.36520  Biso   1.000  H
  H141     1.0000 0.44500  0.47980  0.86520  Biso   1.000  H
  H142     1.0000 0.55500  0.47980  0.63480  Biso   1.000  H
  H143     1.0000 0.94500  0.97980  0.86520  Biso   1.000  H
  H144     1.0000 0.05500  0.97980  0.63480  Biso   1.000  H
  N49      1.0000 0.49393  0.44840  0.16260  Biso   1.000  N
  N50      1.0000 0.50607  0.44840  0.33740  Biso   1.000  N
  N51      1.0000 0.99393  0.94840  0.16260  Biso   1.000  N
  N52      1.0000 0.00607  0.94840  0.33740  Biso   1.000  N
  N53      1.0000 0.50607  0.55160  0.83740  Biso   1.000  N
  N54      1.0000 0.49393  0.55160  0.66260  Biso   1.000  N
  N55      1.0000 0.00607  0.05160  0.83740  Biso   1.000  N
  N56      1.0000 0.99393  0.05160  0.66260  Biso   1.000  N
  C193     1.0000 0.45501  0.52240  0.18390  Biso   1.000  C
  C194     1.0000 0.54499  0.52240  0.31610  Biso   1.000  C
  C195     1.0000 0.95501  0.02240  0.18390  Biso   1.000  C
  C196     1.0000 0.04499  0.02240  0.31610  Biso   1.000  C
  C197     1.0000 0.54499  0.47760  0.81610  Biso   1.000  C
  C198     1.0000 0.45501  0.47760  0.68390  Biso   1.000  C
  C199     1.0000 0.04499  0.97760  0.81610  Biso   1.000  C
  C200     1.0000 0.95501  0.97760  0.68390  Biso   1.000  C
  H145     1.0000 0.43160  0.44130  0.19290  Biso   1.000  H
  H146     1.0000 0.56840  0.44130  0.30710  Biso   1.000  H
  H147     1.0000 0.93160  0.94130  0.19290  Biso   1.000  H
  H148     1.0000 0.06840  0.94130  0.30710  Biso   1.000  H
  H149     1.0000 0.56840  0.55870  0.80710  Biso   1.000  H
  H150     1.0000 0.43160  0.55870  0.69290  Biso   1.000  H
  H151     1.0000 0.06840  0.05870  0.80710  Biso   1.000  H
  H152     1.0000 0.93160  0.05870  0.69290  Biso   1.000  H
  C201     1.0000 0.45112  0.71750  0.19160  Biso   1.000  C
  C202     1.0000 0.54888  0.71750  0.30840  Biso   1.000  C
  C203     1.0000 0.95112  0.21750  0.19160  Biso   1.000  C
  C204     1.0000 0.04888  0.21750  0.30840  Biso   1.000  C
  C205     1.0000 0.54888  0.28250  0.80840  Biso   1.000  C
  C206     1.0000 0.45112  0.28250  0.69160  Biso   1.000  C
  C207     1.0000 0.04888  0.78250  0.80840  Biso   1.000  C
  C208     1.0000 0.95112  0.78250  0.69160  Biso   1.000  C
  H153     1.0000 0.42510  0.76700  0.20580  Biso   1.000  H
  H154     1.0000 0.57490  0.76700  0.29420  Biso   1.000  H
  H155     1.0000 0.92510  0.26700  0.20580  Biso   1.000  H
  H156     1.0000 0.07490  0.26700  0.29420  Biso   1.000  H
  H157     1.0000 0.57490  0.23300  0.79420  Biso   1.000  H
  H158     1.0000 0.42510  0.23300  0.70580  Biso   1.000  H
  H159     1.0000 0.07490  0.73300  0.79420  Biso   1.000  H
  H160     1.0000 0.92510  0.73300  0.70580  Biso   1.000  H
  C209     1.0000 0.48615  0.83880  0.17800  Biso   1.000  C
  C210     1.0000 0.51385  0.83880  0.32200  Biso   1.000  C
  C211     1.0000 0.98615  0.33880  0.17800  Biso   1.000  C
  C212     1.0000 0.01385  0.33880  0.32200  Biso   1.000  C
  C213     1.0000 0.51385  0.16120  0.82200  Biso   1.000  C
  C214     1.0000 0.48615  0.16120  0.67800  Biso   1.000  C
  C215     1.0000 0.01385  0.66120  0.82200  Biso   1.000  C
  C216     1.0000 0.98615  0.66120  0.67800  Biso   1.000  C
  H161     1.0000 0.48360  0.96940  0.18320  Biso   1.000  H
  H162     1.0000 0.51640  0.96940  0.31680  Biso   1.000  H
  H163     1.0000 0.98360  0.46940  0.18320  Biso   1.000  H
  H164     1.0000 0.01640  0.46940  0.31680  Biso   1.000  H
  H165     1.0000 0.51640  0.03060  0.81680  Biso   1.000  H
  H166     1.0000 0.48360  0.03060  0.68320  Biso   1.000  H
  H167     1.0000 0.01640  0.53060  0.81680  Biso   1.000  H
  H168     1.0000 0.98360  0.53060  0.68320  Biso   1.000  H
