data_image0
_cell_length_a       8.3715
_cell_length_b       12.6078
_cell_length_c       11.9933
_cell_angle_alpha    90
_cell_angle_beta     97.256
_cell_angle_gamma    90

_symmetry_space_group_name_H-M    "P 1"
_symmetry_int_tables_number       1

loop_
  _symmetry_equiv_pos_as_xyz
  'x, y, z'

loop_
  _atom_site_label
  _atom_site_occupancy
  _atom_site_fract_x
  _atom_site_fract_y
  _atom_site_fract_z
  _atom_site_thermal_displace_type
  _atom_site_B_iso_or_equiv
  _atom_site_type_symbol
  C1       1.0000 0.28450  0.46331  0.89090  Biso   1.000  C
  C2       1.0000 0.21550  0.96331  0.60910  Biso   1.000  C
  C3       1.0000 0.71550  0.53669  0.10910  Biso   1.000  C
  C4       1.0000 0.78450  0.03669  0.39090  Biso   1.000  C
  H1       1.0000 0.30850  0.44600  0.81950  Biso   1.000  H
  H2       1.0000 0.19150  0.94600  0.68050  Biso   1.000  H
  H3       1.0000 0.69150  0.55400  0.18050  Biso   1.000  H
  H4       1.0000 0.80850  0.05400  0.31950  Biso   1.000  H
  C5       1.0000 0.31190  0.56639  0.92979  Biso   1.000  C
  C6       1.0000 0.18810  0.06639  0.57021  Biso   1.000  C
  C7       1.0000 0.68810  0.43361  0.07021  Biso   1.000  C
  C8       1.0000 0.81190  0.93361  0.42979  Biso   1.000  C
  H5       1.0000 0.35900  0.61630  0.88710  Biso   1.000  H
  H6       1.0000 0.14100  0.11630  0.61290  Biso   1.000  H
  H7       1.0000 0.64100  0.38370  0.11290  Biso   1.000  H
  H8       1.0000 0.85900  0.88370  0.38710  Biso   1.000  H
  C9       1.0000 0.26760  0.59296  0.03360  Biso   1.000  C
  C10      1.0000 0.23240  0.09296  0.46640  Biso   1.000  C
  C11      1.0000 0.73240  0.40704  0.96640  Biso   1.000  C
  C12      1.0000 0.76760  0.90704  0.53360  Biso   1.000  C
  H9       1.0000 0.28050  0.66210  0.06010  Biso   1.000  H
  H10      1.0000 0.21950  0.16210  0.43990  Biso   1.000  H
  H11      1.0000 0.71950  0.33790  0.93990  Biso   1.000  H
  H12      1.0000 0.78050  0.83790  0.56010  Biso   1.000  H
  C13      1.0000 0.20350  0.51559  0.09828  Biso   1.000  C
  C14      1.0000 0.29650  0.01559  0.40172  Biso   1.000  C
  C15      1.0000 0.79650  0.48441  0.90172  Biso   1.000  C
  C16      1.0000 0.70350  0.98441  0.59828  Biso   1.000  C
  H13      1.0000 0.17200  0.53240  0.16780  Biso   1.000  H
  H14      1.0000 0.32800  0.03240  0.33220  Biso   1.000  H
  H15      1.0000 0.82800  0.46760  0.83220  Biso   1.000  H
  H16      1.0000 0.67200  0.96760  0.66780  Biso   1.000  H
  C17      1.0000 0.18780  0.41321  0.05674  Biso   1.000  C
  C18      1.0000 0.31220  0.91321  0.44326  Biso   1.000  C
  C19      1.0000 0.81220  0.58679  0.94326  Biso   1.000  C
  C20      1.0000 0.68780  0.08679  0.55674  Biso   1.000  C
  C21      1.0000 0.12670  0.32230  0.11804  Biso   1.000  C
  C22      1.0000 0.37330  0.82230  0.38196  Biso   1.000  C
  C23      1.0000 0.87330  0.67770  0.88196  Biso   1.000  C
  C24      1.0000 0.62670  0.17770  0.61804  Biso   1.000  C
  C25      1.0000 0.08880  0.33122  0.23508  Biso   1.000  C
  C26      1.0000 0.41120  0.83122  0.26492  Biso   1.000  C
  C27      1.0000 0.91120  0.66878  0.76492  Biso   1.000  C
  C28      1.0000 0.58880  0.16878  0.73508  Biso   1.000  C
  C29      1.0000 0.19480  0.37888  0.31930  Biso   1.000  C
  C30      1.0000 0.30520  0.87888  0.18070  Biso   1.000  C
  C31      1.0000 0.80520  0.62112  0.68070  Biso   1.000  C
  C32      1.0000 0.69480  0.12112  0.81930  Biso   1.000  C
  H17      1.0000 0.29340  0.40520  0.30360  Biso   1.000  H
  H18      1.0000 0.20660  0.90520  0.19640  Biso   1.000  H
  H19      1.0000 0.70660  0.59480  0.69640  Biso   1.000  H
  H20      1.0000 0.79340  0.09480  0.80360  Biso   1.000  H
  C33      1.0000 0.15130  0.38644  0.42662  Biso   1.000  C
  C34      1.0000 0.34870  0.88644  0.07338  Biso   1.000  C
  C35      1.0000 0.84870  0.61356  0.57338  Biso   1.000  C
  C36      1.0000 0.65130  0.11356  0.92662  Biso   1.000  C
  H21      1.0000 0.22010  0.41810  0.48410  Biso   1.000  H
  H22      1.0000 0.27990  0.91810  0.01590  Biso   1.000  H
  H23      1.0000 0.77990  0.58190  0.51590  Biso   1.000  H
  H24      1.0000 0.72010  0.08190  0.98410  Biso   1.000  H
  C37      1.0000 0.00380  0.34614  0.44727  Biso   1.000  C
  C38      1.0000 0.49620  0.84614  0.05273  Biso   1.000  C
  C39      1.0000 0.99620  0.65386  0.55273  Biso   1.000  C
  C40      1.0000 0.50380  0.15386  0.94727  Biso   1.000  C
  H25      1.0000 0.97420  0.35250  0.51920  Biso   1.000  H
  H26      1.0000 0.52580  0.85250  0.98080  Biso   1.000  H
  H27      1.0000 0.02580  0.64750  0.48080  Biso   1.000  H
  H28      1.0000 0.47420  0.14750  0.01920  Biso   1.000  H
  C41      1.0000 0.94380  0.29076  0.26347  Biso   1.000  C
  C42      1.0000 0.55620  0.79076  0.23653  Biso   1.000  C
  C43      1.0000 0.05620  0.70924  0.73653  Biso   1.000  C
  C44      1.0000 0.44380  0.20924  0.76347  Biso   1.000  C
  H29      1.0000 0.87370  0.25740  0.20800  Biso   1.000  H
  H30      1.0000 0.62630  0.75740  0.29200  Biso   1.000  H
  H31      1.0000 0.12630  0.74260  0.79200  Biso   1.000  H
  H32      1.0000 0.37370  0.24260  0.70800  Biso   1.000  H
  N1       1.0000 0.22492  0.38822  0.95271  Biso   1.000  N
  N2       1.0000 0.27508  0.88822  0.54729  Biso   1.000  N
  N3       1.0000 0.77508  0.61178  0.04729  Biso   1.000  N
  N4       1.0000 0.72492  0.11178  0.45271  Biso   1.000  N
  N5       1.0000 0.11085  0.23677  0.05919  Biso   1.000  N
  N6       1.0000 0.38915  0.73677  0.44081  Biso   1.000  N
  N7       1.0000 0.88915  0.76323  0.94081  Biso   1.000  N
  N8       1.0000 0.61085  0.26323  0.55919  Biso   1.000  N
  N9       1.0000 0.90177  0.29815  0.36709  Biso   1.000  N
  N10      1.0000 0.59823  0.79815  0.13291  Biso   1.000  N
  N11      1.0000 0.09823  0.70185  0.63291  Biso   1.000  N
  N12      1.0000 0.40177  0.20185  0.86709  Biso   1.000  N
  O1       1.0000 0.06018  0.14882  0.11256  Biso   1.000  O
  O2       1.0000 0.43982  0.64882  0.38744  Biso   1.000  O
  O3       1.0000 0.93982  0.85118  0.88744  Biso   1.000  O
  O4       1.0000 0.56018  0.35118  0.61256  Biso   1.000  O
  H33      1.0000 0.05800  0.10900  0.06400  Biso   1.000  H
  H34      1.0000 0.44200  0.60900  0.43600  Biso   1.000  H
  H35      1.0000 0.94200  0.89100  0.93600  Biso   1.000  H
  H36      1.0000 0.55800  0.39100  0.56400  Biso   1.000  H
  Cl1      1.0000 0.10195  0.06402  0.88014  Biso   1.000  Cl
  Cl2      1.0000 0.39805  0.56402  0.61986  Biso   1.000  Cl
  Cl3      1.0000 0.89805  0.93598  0.11986  Biso   1.000  Cl
  Cl4      1.0000 0.60195  0.43598  0.38014  Biso   1.000  Cl
  Cl5      1.0000 0.01995  0.29647  0.73532  Biso   1.000  Cl
  Cl6      1.0000 0.48005  0.79647  0.76468  Biso   1.000  Cl
  Cl7      1.0000 0.98005  0.70353  0.26468  Biso   1.000  Cl
  Cl8      1.0000 0.51995  0.20353  0.23532  Biso   1.000  Cl
  Cu1      1.0000 0.16722  0.23972  0.89915  Biso   1.000  Cu
  Cu2      1.0000 0.33278  0.73972  0.60085  Biso   1.000  Cu
  Cu3      1.0000 0.83278  0.76028  0.10085  Biso   1.000  Cu
  Cu4      1.0000 0.66722  0.26028  0.39915  Biso   1.000  Cu
