data_image0
_cell_length_a       8.8229
_cell_length_b       37.128
_cell_length_c       9.8621
_cell_angle_alpha    90
_cell_angle_beta     91.496
_cell_angle_gamma    90

_symmetry_space_group_name_H-M    "P 1"
_symmetry_int_tables_number       1

loop_
  _symmetry_equiv_pos_as_xyz
  'x, y, z'

loop_
  _atom_site_label
  _atom_site_occupancy
  _atom_site_fract_x
  _atom_site_fract_y
  _atom_site_fract_z
  _atom_site_thermal_displace_type
  _atom_site_B_iso_or_equiv
  _atom_site_type_symbol
  Cu1      1.0000 0.00000  0.00000  0.50000  Biso   1.000  Cu
  Cu2      1.0000 0.50000  0.50000  0.00000  Biso   1.000  Cu
  C1       1.0000 0.99110  0.17950  0.83550  Biso   1.000  C
  C2       1.0000 0.50890  0.67950  0.66450  Biso   1.000  C
  C3       1.0000 0.00890  0.82050  0.16450  Biso   1.000  C
  C4       1.0000 0.49110  0.32050  0.33550  Biso   1.000  C
  C5       1.0000 0.14260  0.17107  0.86280  Biso   1.000  C
  C6       1.0000 0.35740  0.67107  0.63720  Biso   1.000  C
  C7       1.0000 0.85740  0.82893  0.13720  Biso   1.000  C
  C8       1.0000 0.64260  0.32893  0.36280  Biso   1.000  C
  H1       1.0000 0.19820  0.15760  0.79890  Biso   1.000  H
  H2       1.0000 0.30180  0.65760  0.70110  Biso   1.000  H
  H3       1.0000 0.80180  0.84240  0.20110  Biso   1.000  H
  H4       1.0000 0.69820  0.34240  0.29890  Biso   1.000  H
  C9       1.0000 0.21220  0.18222  0.98240  Biso   1.000  C
  C10      1.0000 0.28780  0.68222  0.51760  Biso   1.000  C
  C11      1.0000 0.78780  0.81778  0.01760  Biso   1.000  C
  C12      1.0000 0.71220  0.31778  0.48240  Biso   1.000  C
  H5       1.0000 0.31630  0.17690  0.99920  Biso   1.000  H
  H6       1.0000 0.18370  0.67690  0.50080  Biso   1.000  H
  H7       1.0000 0.68370  0.82310  0.00080  Biso   1.000  H
  H8       1.0000 0.81630  0.32310  0.49920  Biso   1.000  H
  C13      1.0000 0.13270  0.20104  0.07790  Biso   1.000  C
  C14      1.0000 0.36730  0.70104  0.42210  Biso   1.000  C
  C15      1.0000 0.86730  0.79896  0.92210  Biso   1.000  C
  C16      1.0000 0.63270  0.29896  0.57790  Biso   1.000  C
  H9       1.0000 0.18250  0.20840  0.16000  Biso   1.000  H
  H10      1.0000 0.31750  0.70840  0.34000  Biso   1.000  H
  H11      1.0000 0.81750  0.79160  0.84000  Biso   1.000  H
  H12      1.0000 0.68250  0.29160  0.66000  Biso   1.000  H
  C17      1.0000 0.98020  0.20939  0.05540  Biso   1.000  C
  C18      1.0000 0.51980  0.70939  0.44460  Biso   1.000  C
  C19      1.0000 0.01980  0.79061  0.94460  Biso   1.000  C
  C20      1.0000 0.48020  0.29061  0.55540  Biso   1.000  C
  C21      1.0000 0.91380  0.19878  0.93280  Biso   1.000  C
  C22      1.0000 0.58620  0.69878  0.56720  Biso   1.000  C
  C23      1.0000 0.08620  0.80122  0.06720  Biso   1.000  C
  C24      1.0000 0.41380  0.30122  0.43280  Biso   1.000  C
  H13      1.0000 0.81080  0.20500  0.91450  Biso   1.000  H
  H14      1.0000 0.68920  0.70500  0.58550  Biso   1.000  H
  H15      1.0000 0.18920  0.79500  0.08550  Biso   1.000  H
  H16      1.0000 0.31080  0.29500  0.41450  Biso   1.000  H
  C25      1.0000 0.88500  0.22918  0.16040  Biso   1.000  C
  C26      1.0000 0.61500  0.72918  0.33960  Biso   1.000  C
  C27      1.0000 0.11500  0.77082  0.83960  Biso   1.000  C
  C28      1.0000 0.38500  0.27082  0.66040  Biso   1.000  C
  C29      1.0000 0.97720  0.23834  0.29160  Biso   1.000  C
  C30      1.0000 0.52280  0.73834  0.20840  Biso   1.000  C
  C31      1.0000 0.02280  0.76166  0.70840  Biso   1.000  C
  C32      1.0000 0.47720  0.26166  0.79160  Biso   1.000  C
  H17      1.0000 0.01350  0.21600  0.33440  Biso   1.000  H
  H18      1.0000 0.48650  0.71600  0.16560  Biso   1.000  H
  H19      1.0000 0.98650  0.78400  0.66560  Biso   1.000  H
  H20      1.0000 0.51350  0.28400  0.83440  Biso   1.000  H
  H21      1.0000 0.91240  0.25130  0.35430  Biso   1.000  H
  H22      1.0000 0.58760  0.75130  0.14570  Biso   1.000  H
  H23      1.0000 0.08760  0.74870  0.64570  Biso   1.000  H
  H24      1.0000 0.41240  0.24870  0.85430  Biso   1.000  H
  H25      1.0000 0.06400  0.25350  0.26900  Biso   1.000  H
  H26      1.0000 0.43600  0.75350  0.23100  Biso   1.000  H
  H27      1.0000 0.93600  0.74650  0.73100  Biso   1.000  H
  H28      1.0000 0.56400  0.24650  0.76900  Biso   1.000  H
  C33      1.0000 0.83030  0.26543  0.09820  Biso   1.000  C
  C34      1.0000 0.66970  0.76543  0.40180  Biso   1.000  C
  C35      1.0000 0.16970  0.73457  0.90180  Biso   1.000  C
  C36      1.0000 0.33030  0.23457  0.59820  Biso   1.000  C
  H29      1.0000 0.77060  0.26080  0.01480  Biso   1.000  H
  H30      1.0000 0.72940  0.76080  0.48520  Biso   1.000  H
  H31      1.0000 0.22940  0.73920  0.98520  Biso   1.000  H
  H32      1.0000 0.27060  0.23920  0.51480  Biso   1.000  H
  H33      1.0000 0.91830  0.28030  0.07710  Biso   1.000  H
  H34      1.0000 0.58170  0.78030  0.42290  Biso   1.000  H
  H35      1.0000 0.08170  0.71970  0.92290  Biso   1.000  H
  H36      1.0000 0.41830  0.21970  0.57710  Biso   1.000  H
  H37      1.0000 0.76740  0.27810  0.16330  Biso   1.000  H
  H38      1.0000 0.73260  0.77810  0.33670  Biso   1.000  H
  H39      1.0000 0.23260  0.72190  0.83670  Biso   1.000  H
  H40      1.0000 0.26740  0.22190  0.66330  Biso   1.000  H
  C37      1.0000 0.74720  0.20610  0.20030  Biso   1.000  C
  C38      1.0000 0.75280  0.70610  0.29970  Biso   1.000  C
  C39      1.0000 0.25280  0.79390  0.79970  Biso   1.000  C
  C40      1.0000 0.24720  0.29390  0.70030  Biso   1.000  C
  C41      1.0000 0.74240  0.16936  0.18190  Biso   1.000  C
  C42      1.0000 0.75760  0.66936  0.31810  Biso   1.000  C
  C43      1.0000 0.25760  0.83064  0.81810  Biso   1.000  C
  C44      1.0000 0.24240  0.33064  0.68190  Biso   1.000  C
  H41      1.0000 0.82630  0.15790  0.14160  Biso   1.000  H
  H42      1.0000 0.67370  0.65790  0.35840  Biso   1.000  H
  H43      1.0000 0.17370  0.84210  0.85840  Biso   1.000  H
  H44      1.0000 0.32630  0.34210  0.64160  Biso   1.000  H
  C45      1.0000 0.62070  0.14833  0.21960  Biso   1.000  C
  C46      1.0000 0.87930  0.64833  0.28040  Biso   1.000  C
  C47      1.0000 0.37930  0.85167  0.78040  Biso   1.000  C
  C48      1.0000 0.12070  0.35167  0.71960  Biso   1.000  C
  H45      1.0000 0.62320  0.12300  0.20660  Biso   1.000  H
  H46      1.0000 0.87680  0.62300  0.29340  Biso   1.000  H
  H47      1.0000 0.37680  0.87700  0.79340  Biso   1.000  H
  H48      1.0000 0.12320  0.37700  0.70660  Biso   1.000  H
  C49      1.0000 0.49740  0.16407  0.27530  Biso   1.000  C
  C50      1.0000 0.00260  0.66407  0.22470  Biso   1.000  C
  C51      1.0000 0.50260  0.83593  0.72470  Biso   1.000  C
  C52      1.0000 0.99740  0.33593  0.77530  Biso   1.000  C
  C53      1.0000 0.49800  0.20092  0.29390  Biso   1.000  C
  C54      1.0000 0.00200  0.70092  0.20610  Biso   1.000  C
  C55      1.0000 0.50200  0.79908  0.70610  Biso   1.000  C
  C56      1.0000 0.99800  0.29908  0.79390  Biso   1.000  C
  H49      1.0000 0.41250  0.21250  0.33120  Biso   1.000  H
  H50      1.0000 0.08750  0.71250  0.16880  Biso   1.000  H
  H51      1.0000 0.58750  0.78750  0.66880  Biso   1.000  H
  H52      1.0000 0.91250  0.28750  0.83120  Biso   1.000  H
  C57      1.0000 0.62210  0.22104  0.25860  Biso   1.000  C
  C58      1.0000 0.87790  0.72104  0.24140  Biso   1.000  C
  C59      1.0000 0.37790  0.77896  0.74140  Biso   1.000  C
  C60      1.0000 0.12210  0.27896  0.75860  Biso   1.000  C
  H53      1.0000 0.62120  0.24620  0.27530  Biso   1.000  H
  H54      1.0000 0.87880  0.74620  0.22470  Biso   1.000  H
  H55      1.0000 0.37880  0.75380  0.72470  Biso   1.000  H
  H56      1.0000 0.12120  0.25380  0.77530  Biso   1.000  H
  O1       1.0000 0.36780  0.14597  0.31240  Biso   1.000  O
  O2       1.0000 0.13220  0.64597  0.18760  Biso   1.000  O
  O3       1.0000 0.63220  0.85403  0.68760  Biso   1.000  O
  O4       1.0000 0.86780  0.35403  0.81240  Biso   1.000  O
  C61      1.0000 0.90900  0.16966  0.70080  Biso   1.000  C
  C62      1.0000 0.59100  0.66966  0.79920  Biso   1.000  C
  C63      1.0000 0.09100  0.83034  0.29920  Biso   1.000  C
  C64      1.0000 0.40900  0.33034  0.20080  Biso   1.000  C
  C65      1.0000 0.00540  0.14415  0.61420  Biso   1.000  C
  C66      1.0000 0.49460  0.64415  0.88580  Biso   1.000  C
  C67      1.0000 0.99460  0.85585  0.38580  Biso   1.000  C
  C68      1.0000 0.50540  0.35585  0.11420  Biso   1.000  C
  H57      1.0000 0.95050  0.13870  0.52890  Biso   1.000  H
  H58      1.0000 0.54950  0.63870  0.97110  Biso   1.000  H
  H59      1.0000 0.04950  0.86130  0.47110  Biso   1.000  H
  H60      1.0000 0.45050  0.36130  0.02890  Biso   1.000  H
  H61      1.0000 0.02480  0.12170  0.66420  Biso   1.000  H
  H62      1.0000 0.47520  0.62170  0.83580  Biso   1.000  H
  H63      1.0000 0.97520  0.87830  0.33580  Biso   1.000  H
  H64      1.0000 0.52480  0.37830  0.16420  Biso   1.000  H
  H65      1.0000 0.10200  0.15580  0.59440  Biso   1.000  H
  H66      1.0000 0.39800  0.65580  0.90560  Biso   1.000  H
  H67      1.0000 0.89800  0.84420  0.40560  Biso   1.000  H
  H68      1.0000 0.60200  0.34420  0.09440  Biso   1.000  H
  C69      1.0000 0.88190  0.20490  0.62050  Biso   1.000  C
  C70      1.0000 0.61810  0.70490  0.87950  Biso   1.000  C
  C71      1.0000 0.11810  0.79510  0.37950  Biso   1.000  C
  C72      1.0000 0.38190  0.29510  0.12050  Biso   1.000  C
  H69      1.0000 0.82020  0.22140  0.67380  Biso   1.000  H
  H70      1.0000 0.67980  0.72140  0.82620  Biso   1.000  H
  H71      1.0000 0.17980  0.77860  0.32620  Biso   1.000  H
  H72      1.0000 0.32020  0.27860  0.17380  Biso   1.000  H
  H73      1.0000 0.82870  0.19950  0.53450  Biso   1.000  H
  H74      1.0000 0.67130  0.69950  0.96550  Biso   1.000  H
  H75      1.0000 0.17130  0.80050  0.46550  Biso   1.000  H
  H76      1.0000 0.32870  0.30050  0.03450  Biso   1.000  H
  H77      1.0000 0.97950  0.21630  0.60220  Biso   1.000  H
  H78      1.0000 0.52050  0.71630  0.89780  Biso   1.000  H
  H79      1.0000 0.02050  0.78370  0.39780  Biso   1.000  H
  H80      1.0000 0.47950  0.28370  0.10220  Biso   1.000  H
  C73      1.0000 0.75820  0.15066  0.72680  Biso   1.000  C
  C74      1.0000 0.74180  0.65066  0.77320  Biso   1.000  C
  C75      1.0000 0.24180  0.84934  0.27320  Biso   1.000  C
  C76      1.0000 0.25820  0.34934  0.22680  Biso   1.000  C
  C77      1.0000 0.63280  0.15519  0.63970  Biso   1.000  C
  C78      1.0000 0.86720  0.65519  0.86030  Biso   1.000  C
  C79      1.0000 0.36720  0.84481  0.36030  Biso   1.000  C
  C80      1.0000 0.13280  0.34481  0.13970  Biso   1.000  C
  H81      1.0000 0.63900  0.17160  0.56620  Biso   1.000  H
  H82      1.0000 0.86100  0.67160  0.93380  Biso   1.000  H
  H83      1.0000 0.36100  0.82840  0.43380  Biso   1.000  H
  H84      1.0000 0.13900  0.32840  0.06620  Biso   1.000  H
  C81      1.0000 0.50060  0.13658  0.65730  Biso   1.000  C
  C82      1.0000 0.99940  0.63658  0.84270  Biso   1.000  C
  C83      1.0000 0.49940  0.86342  0.34270  Biso   1.000  C
  C84      1.0000 0.00060  0.36342  0.15730  Biso   1.000  C
  H85      1.0000 0.41700  0.14020  0.59610  Biso   1.000  H
  H86      1.0000 0.08300  0.64020  0.90390  Biso   1.000  H
  H87      1.0000 0.58300  0.85980  0.40390  Biso   1.000  H
  H88      1.0000 0.91700  0.35980  0.09610  Biso   1.000  H
  C85      1.0000 0.48790  0.11257  0.76310  Biso   1.000  C
  C86      1.0000 0.01210  0.61257  0.73690  Biso   1.000  C
  C87      1.0000 0.51210  0.88743  0.23690  Biso   1.000  C
  C88      1.0000 0.98790  0.38743  0.26310  Biso   1.000  C
  C89      1.0000 0.61000  0.10714  0.85170  Biso   1.000  C
  C90      1.0000 0.89000  0.60714  0.64830  Biso   1.000  C
  C91      1.0000 0.39000  0.89286  0.14830  Biso   1.000  C
  C92      1.0000 0.11000  0.39286  0.35170  Biso   1.000  C
  H89      1.0000 0.60300  0.09060  0.92460  Biso   1.000  H
  H90      1.0000 0.89700  0.59060  0.57540  Biso   1.000  H
  H91      1.0000 0.39700  0.90940  0.07540  Biso   1.000  H
  H92      1.0000 0.10300  0.40940  0.42460  Biso   1.000  H
  C93      1.0000 0.74220  0.12621  0.83240  Biso   1.000  C
  C94      1.0000 0.75780  0.62621  0.66760  Biso   1.000  C
  C95      1.0000 0.25780  0.87379  0.16760  Biso   1.000  C
  C96      1.0000 0.24220  0.37379  0.33240  Biso   1.000  C
  H93      1.0000 0.82550  0.12250  0.89370  Biso   1.000  H
  H94      1.0000 0.67450  0.62250  0.60630  Biso   1.000  H
  H95      1.0000 0.17450  0.87750  0.10630  Biso   1.000  H
  H96      1.0000 0.32550  0.37750  0.39370  Biso   1.000  H
  O5       1.0000 0.35010  0.09521  0.76910  Biso   1.000  O
  O6       1.0000 0.14990  0.59521  0.73090  Biso   1.000  O
  O7       1.0000 0.64990  0.90479  0.23090  Biso   1.000  O
  O8       1.0000 0.85010  0.40479  0.26910  Biso   1.000  O
  C97      1.0000 0.36870  0.10756  0.29850  Biso   1.000  C
  C98      1.0000 0.13130  0.60756  0.20150  Biso   1.000  C
  C99      1.0000 0.63130  0.89244  0.70150  Biso   1.000  C
  C100     1.0000 0.86870  0.39244  0.79850  Biso   1.000  C
  H97      1.0000 0.43900  0.09680  0.36710  Biso   1.000  H
  H98      1.0000 0.06100  0.59680  0.13290  Biso   1.000  H
  H99      1.0000 0.56100  0.90320  0.63290  Biso   1.000  H
  H100     1.0000 0.93900  0.40320  0.86710  Biso   1.000  H
  H101     1.0000 0.40340  0.10080  0.20730  Biso   1.000  H
  H102     1.0000 0.09660  0.60080  0.29270  Biso   1.000  H
  H103     1.0000 0.59660  0.89920  0.79270  Biso   1.000  H
  H104     1.0000 0.90340  0.39920  0.70730  Biso   1.000  H
  C101     1.0000 0.18470  0.06298  0.38980  Biso   1.000  C
  C102     1.0000 0.31530  0.56298  0.11020  Biso   1.000  C
  C103     1.0000 0.81530  0.93702  0.61020  Biso   1.000  C
  C104     1.0000 0.68470  0.43702  0.88980  Biso   1.000  C
  H105     1.0000 0.26900  0.05140  0.43320  Biso   1.000  H
  H106     1.0000 0.23100  0.55140  0.06680  Biso   1.000  H
  H107     1.0000 0.73100  0.94860  0.56680  Biso   1.000  H
  H108     1.0000 0.76900  0.44860  0.93320  Biso   1.000  H
  C105     1.0000 0.21210  0.09386  0.31800  Biso   1.000  C
  C106     1.0000 0.28790  0.59386  0.18200  Biso   1.000  C
  C107     1.0000 0.78790  0.90614  0.68200  Biso   1.000  C
  C108     1.0000 0.71210  0.40614  0.81800  Biso   1.000  C
  C109     1.0000 0.08940  0.11022  0.25320  Biso   1.000  C
  C110     1.0000 0.41060  0.61022  0.24680  Biso   1.000  C
  C111     1.0000 0.91060  0.88978  0.74680  Biso   1.000  C
  C112     1.0000 0.58940  0.38978  0.75320  Biso   1.000  C
  H109     1.0000 0.10130  0.13210  0.20480  Biso   1.000  H
  H110     1.0000 0.39870  0.63210  0.29520  Biso   1.000  H
  H111     1.0000 0.89870  0.86790  0.79520  Biso   1.000  H
  H112     1.0000 0.60130  0.36790  0.70480  Biso   1.000  H
  C113     1.0000 0.95140  0.09420  0.26050  Biso   1.000  C
  C114     1.0000 0.54860  0.59420  0.23950  Biso   1.000  C
  C115     1.0000 0.04860  0.90580  0.73950  Biso   1.000  C
  C116     1.0000 0.45140  0.40580  0.76050  Biso   1.000  C
  H113     1.0000 0.86630  0.10440  0.21370  Biso   1.000  H
  H114     1.0000 0.63370  0.60440  0.28630  Biso   1.000  H
  H115     1.0000 0.13370  0.89560  0.78630  Biso   1.000  H
  H116     1.0000 0.36630  0.39560  0.71370  Biso   1.000  H
  C117     1.0000 0.93450  0.06340  0.33510  Biso   1.000  C
  C118     1.0000 0.56550  0.56340  0.16490  Biso   1.000  C
  C119     1.0000 0.06550  0.93660  0.66490  Biso   1.000  C
  C120     1.0000 0.43450  0.43660  0.83510  Biso   1.000  C
  H117     1.0000 0.83690  0.05270  0.33800  Biso   1.000  H
  H118     1.0000 0.66310  0.55270  0.16200  Biso   1.000  H
  H119     1.0000 0.16310  0.94730  0.66200  Biso   1.000  H
  H120     1.0000 0.33690  0.44730  0.83800  Biso   1.000  H
  N1       1.0000 0.04810  0.04790  0.40320  Biso   1.000  N
  N2       1.0000 0.45190  0.54790  0.09680  Biso   1.000  N
  N3       1.0000 0.95190  0.95210  0.59680  Biso   1.000  N
  N4       1.0000 0.54810  0.45210  0.90320  Biso   1.000  N
  C121     1.0000 0.32770  0.07133  0.87910  Biso   1.000  C
  C122     1.0000 0.17230  0.57133  0.62090  Biso   1.000  C
  C123     1.0000 0.67230  0.92867  0.12090  Biso   1.000  C
  C124     1.0000 0.82770  0.42867  0.37910  Biso   1.000  C
  H121     1.0000 0.32630  0.08470  0.96590  Biso   1.000  H
  H122     1.0000 0.17370  0.58470  0.53410  Biso   1.000  H
  H123     1.0000 0.67370  0.91530  0.03410  Biso   1.000  H
  H124     1.0000 0.82630  0.41530  0.46590  Biso   1.000  H
  H125     1.0000 0.40960  0.05310  0.88460  Biso   1.000  H
  H126     1.0000 0.09040  0.55310  0.61540  Biso   1.000  H
  H127     1.0000 0.59040  0.94690  0.11540  Biso   1.000  H
  H128     1.0000 0.90960  0.44690  0.38460  Biso   1.000  H
  C125     1.0000 0.14910  0.03925  0.72260  Biso   1.000  C
  C126     1.0000 0.35090  0.53925  0.77740  Biso   1.000  C
  C127     1.0000 0.85090  0.96075  0.27740  Biso   1.000  C
  C128     1.0000 0.64910  0.46075  0.22260  Biso   1.000  C
  H129     1.0000 0.22650  0.04120  0.65780  Biso   1.000  H
  H130     1.0000 0.27350  0.54120  0.84220  Biso   1.000  H
  H131     1.0000 0.77350  0.95880  0.34220  Biso   1.000  H
  H132     1.0000 0.72650  0.45880  0.15780  Biso   1.000  H
  C129     1.0000 0.17600  0.05354  0.84990  Biso   1.000  C
  C130     1.0000 0.32400  0.55354  0.65010  Biso   1.000  C
  C131     1.0000 0.82400  0.94646  0.15010  Biso   1.000  C
  C132     1.0000 0.67600  0.44646  0.34990  Biso   1.000  C
  C133     1.0000 0.06280  0.05077  0.94260  Biso   1.000  C
  C134     1.0000 0.43720  0.55077  0.55740  Biso   1.000  C
  C135     1.0000 0.93720  0.94923  0.05740  Biso   1.000  C
  C136     1.0000 0.56280  0.44923  0.44260  Biso   1.000  C
  H133     1.0000 0.07760  0.06020  0.03150  Biso   1.000  H
  H134     1.0000 0.42240  0.56020  0.46850  Biso   1.000  H
  H135     1.0000 0.92240  0.93980  0.96850  Biso   1.000  H
  H136     1.0000 0.57760  0.43980  0.53150  Biso   1.000  H
  C137     1.0000 0.92640  0.03408  0.90600  Biso   1.000  C
  C138     1.0000 0.57360  0.53408  0.59400  Biso   1.000  C
  C139     1.0000 0.07360  0.96592  0.09400  Biso   1.000  C
  C140     1.0000 0.42640  0.46592  0.40600  Biso   1.000  C
  H137     1.0000 0.84720  0.03220  0.96910  Biso   1.000  H
  H138     1.0000 0.65280  0.53220  0.53090  Biso   1.000  H
  H139     1.0000 0.15280  0.96780  0.03090  Biso   1.000  H
  H140     1.0000 0.34720  0.46780  0.46910  Biso   1.000  H
  C141     1.0000 0.90810  0.02041  0.77750  Biso   1.000  C
  C142     1.0000 0.59190  0.52041  0.72250  Biso   1.000  C
  C143     1.0000 0.09190  0.97959  0.22250  Biso   1.000  C
  C144     1.0000 0.40810  0.47959  0.27750  Biso   1.000  C
  H141     1.0000 0.81530  0.00900  0.75240  Biso   1.000  H
  H142     1.0000 0.68470  0.50900  0.74760  Biso   1.000  H
  H143     1.0000 0.18470  0.99100  0.24760  Biso   1.000  H
  H144     1.0000 0.31530  0.49100  0.25240  Biso   1.000  H
  N5       1.0000 0.01930  0.02278  0.68520  Biso   1.000  N
  N6       1.0000 0.48070  0.52278  0.81480  Biso   1.000  N
  N7       1.0000 0.98070  0.97722  0.31480  Biso   1.000  N
  N8       1.0000 0.51930  0.47722  0.18520  Biso   1.000  N
  O9       1.0000 0.72450  0.01460  0.49840  Biso   1.000  O
  O10      1.0000 0.77550  0.51460  0.00160  Biso   1.000  O
  O11      1.0000 0.27550  0.98540  0.50160  Biso   1.000  O
  O12      1.0000 0.22450  0.48540  0.99840  Biso   1.000  O
  H145     1.0000 0.67710  0.01090  0.43000  Biso   1.000  H
  H146     1.0000 0.82290  0.51090  0.07000  Biso   1.000  H
  H147     1.0000 0.32290  0.98910  0.57000  Biso   1.000  H
  H148     1.0000 0.17710  0.48910  0.93000  Biso   1.000  H
  C145     1.0000 0.65990  0.05080  0.55440  Biso   1.000  C
  C146     1.0000 0.84010  0.55080  0.94560  Biso   1.000  C
  C147     1.0000 0.34010  0.94920  0.44560  Biso   1.000  C
  C148     1.0000 0.15990  0.44920  0.05440  Biso   1.000  C
  H149     1.0000 0.73920  0.06320  0.60790  Biso   1.000  H
  H150     1.0000 0.76080  0.56320  0.89210  Biso   1.000  H
  H151     1.0000 0.26080  0.93680  0.39210  Biso   1.000  H
  H152     1.0000 0.23920  0.43680  0.10790  Biso   1.000  H
  H153     1.0000 0.57370  0.04560  0.61200  Biso   1.000  H
  H154     1.0000 0.92630  0.54560  0.88800  Biso   1.000  H
  H155     1.0000 0.42630  0.95440  0.38800  Biso   1.000  H
  H156     1.0000 0.07370  0.45440  0.11200  Biso   1.000  H
  H157     1.0000 0.62660  0.06610  0.47850  Biso   1.000  H
  H158     1.0000 0.87340  0.56610  0.02150  Biso   1.000  H
  H159     1.0000 0.37340  0.93390  0.52150  Biso   1.000  H
  H160     1.0000 0.12660  0.43390  0.97850  Biso   1.000  H
  N9       1.0000 0.51020  0.02630  0.19550  Biso   1.000  N
  N10      1.0000 0.98980  0.52630  0.30450  Biso   1.000  N
  N11      1.0000 0.48980  0.97370  0.80450  Biso   1.000  N
  N12      1.0000 0.01020  0.47370  0.69550  Biso   1.000  N
  O13      1.0000 0.52070  0.00438  0.29410  Biso   1.000  O
  O14      1.0000 0.97930  0.50438  0.20590  Biso   1.000  O
  O15      1.0000 0.47930  0.99562  0.70590  Biso   1.000  O
  O16      1.0000 0.02070  0.49562  0.79410  Biso   1.000  O
  O17      1.0000 0.38720  0.02727  0.13690  Biso   1.000  O
  O18      1.0000 0.11280  0.52727  0.36310  Biso   1.000  O
  O19      1.0000 0.61280  0.97273  0.86310  Biso   1.000  O
  O20      1.0000 0.88720  0.47273  0.63690  Biso   1.000  O
  O21      1.0000 0.61440  0.04710  0.16940  Biso   1.000  O
  O22      1.0000 0.88560  0.54710  0.33060  Biso   1.000  O
  O23      1.0000 0.38560  0.95290  0.83060  Biso   1.000  O
  O24      1.0000 0.11440  0.45290  0.66940  Biso   1.000  O
