data_image0
_cell_length_a       17.8599
_cell_length_b       17.8599
_cell_length_c       21.0991
_cell_angle_alpha    90
_cell_angle_beta     90
_cell_angle_gamma    90

_symmetry_space_group_name_H-M    "P 1"
_symmetry_int_tables_number       1

loop_
  _symmetry_equiv_pos_as_xyz
  'x, y, z'

loop_
  _atom_site_label
  _atom_site_occupancy
  _atom_site_fract_x
  _atom_site_fract_y
  _atom_site_fract_z
  _atom_site_thermal_displace_type
  _atom_site_B_iso_or_equiv
  _atom_site_type_symbol
  Cu1      1.0000 0.82690  0.19240  0.52974  Biso   1.000  Cu
  Cu2      1.0000 0.67310  0.30761  0.02974  Biso   1.000  Cu
  Cu3      1.0000 0.80760  0.32690  0.77974  Biso   1.000  Cu
  Cu4      1.0000 0.69239  0.17310  0.27974  Biso   1.000  Cu
  Cu5      1.0000 0.82690  0.80760  0.02974  Biso   1.000  Cu
  Cu6      1.0000 0.67310  0.69239  0.52974  Biso   1.000  Cu
  Cu7      1.0000 0.80760  0.67310  0.27974  Biso   1.000  Cu
  Cu8      1.0000 0.69239  0.82690  0.77974  Biso   1.000  Cu
  Cu9      1.0000 0.32690  0.69239  0.02974  Biso   1.000  Cu
  Cu10     1.0000 0.17310  0.80760  0.52974  Biso   1.000  Cu
  Cu11     1.0000 0.30761  0.82690  0.27974  Biso   1.000  Cu
  Cu12     1.0000 0.19240  0.67310  0.77974  Biso   1.000  Cu
  Cu13     1.0000 0.32690  0.30761  0.52974  Biso   1.000  Cu
  Cu14     1.0000 0.17310  0.19240  0.02974  Biso   1.000  Cu
  Cu15     1.0000 0.30761  0.17310  0.77974  Biso   1.000  Cu
  Cu16     1.0000 0.19240  0.32690  0.27974  Biso   1.000  Cu
  C1       1.0000 0.82841  0.35948  0.46921  Biso   1.000  C
  C2       1.0000 0.67159  0.14052  0.96921  Biso   1.000  C
  C3       1.0000 0.64052  0.32841  0.71921  Biso   1.000  C
  C4       1.0000 0.85948  0.17159  0.21921  Biso   1.000  C
  C5       1.0000 0.82841  0.64052  0.96921  Biso   1.000  C
  C6       1.0000 0.67159  0.85948  0.46921  Biso   1.000  C
  C7       1.0000 0.64052  0.67159  0.21921  Biso   1.000  C
  C8       1.0000 0.85948  0.82841  0.71921  Biso   1.000  C
  C9       1.0000 0.32841  0.85948  0.96921  Biso   1.000  C
  C10      1.0000 0.17159  0.64052  0.46921  Biso   1.000  C
  C11      1.0000 0.14052  0.82841  0.21921  Biso   1.000  C
  C12      1.0000 0.35948  0.67159  0.71921  Biso   1.000  C
  C13      1.0000 0.32841  0.14052  0.46921  Biso   1.000  C
  C14      1.0000 0.17159  0.35948  0.96921  Biso   1.000  C
  C15      1.0000 0.14052  0.17159  0.71921  Biso   1.000  C
  C16      1.0000 0.35948  0.32841  0.21921  Biso   1.000  C
  H1       1.0000 0.80620  0.39990  0.44410  Biso   1.000  H
  H2       1.0000 0.69380  0.10010  0.94410  Biso   1.000  H
  H3       1.0000 0.60010  0.30620  0.69410  Biso   1.000  H
  H4       1.0000 0.89990  0.19380  0.19410  Biso   1.000  H
  H5       1.0000 0.80620  0.60010  0.94410  Biso   1.000  H
  H6       1.0000 0.69380  0.89990  0.44410  Biso   1.000  H
  H7       1.0000 0.60010  0.69380  0.19410  Biso   1.000  H
  H8       1.0000 0.89990  0.80620  0.69410  Biso   1.000  H
  H9       1.0000 0.30620  0.89990  0.94410  Biso   1.000  H
  H10      1.0000 0.19380  0.60010  0.44410  Biso   1.000  H
  H11      1.0000 0.10010  0.80620  0.19410  Biso   1.000  H
  H12      1.0000 0.39990  0.69380  0.69410  Biso   1.000  H
  H13      1.0000 0.30620  0.10010  0.44410  Biso   1.000  H
  H14      1.0000 0.19380  0.39990  0.94410  Biso   1.000  H
  H15      1.0000 0.10010  0.19380  0.69410  Biso   1.000  H
  H16      1.0000 0.39990  0.30620  0.19410  Biso   1.000  H
  H17      1.0000 0.86590  0.33310  0.44370  Biso   1.000  H
  H18      1.0000 0.63410  0.16690  0.94370  Biso   1.000  H
  H19      1.0000 0.66690  0.36590  0.69370  Biso   1.000  H
  H20      1.0000 0.83310  0.13410  0.19370  Biso   1.000  H
  H21      1.0000 0.86590  0.66690  0.94370  Biso   1.000  H
  H22      1.0000 0.63410  0.83310  0.44370  Biso   1.000  H
  H23      1.0000 0.66690  0.63410  0.19370  Biso   1.000  H
  H24      1.0000 0.83310  0.86590  0.69370  Biso   1.000  H
  H25      1.0000 0.36590  0.83310  0.94370  Biso   1.000  H
  H26      1.0000 0.13410  0.66690  0.44370  Biso   1.000  H
  H27      1.0000 0.16690  0.86590  0.19370  Biso   1.000  H
  H28      1.0000 0.33310  0.63410  0.69370  Biso   1.000  H
  H29      1.0000 0.36590  0.16690  0.44370  Biso   1.000  H
  H30      1.0000 0.13410  0.33310  0.94370  Biso   1.000  H
  H31      1.0000 0.16690  0.13410  0.69370  Biso   1.000  H
  H32      1.0000 0.33310  0.36590  0.19370  Biso   1.000  H
  H33      1.0000 0.85240  0.38060  0.50700  Biso   1.000  H
  H34      1.0000 0.64760  0.11940  0.00700  Biso   1.000  H
  H35      1.0000 0.61940  0.35240  0.75700  Biso   1.000  H
  H36      1.0000 0.88060  0.14760  0.25700  Biso   1.000  H
  H37      1.0000 0.85240  0.61940  0.00700  Biso   1.000  H
  H38      1.0000 0.64760  0.88060  0.50700  Biso   1.000  H
  H39      1.0000 0.61940  0.64760  0.25700  Biso   1.000  H
  H40      1.0000 0.88060  0.85240  0.75700  Biso   1.000  H
  H41      1.0000 0.35240  0.88060  0.00700  Biso   1.000  H
  H42      1.0000 0.14760  0.61940  0.50700  Biso   1.000  H
  H43      1.0000 0.11940  0.85240  0.25700  Biso   1.000  H
  H44      1.0000 0.38060  0.64760  0.75700  Biso   1.000  H
  H45      1.0000 0.35240  0.11940  0.50700  Biso   1.000  H
  H46      1.0000 0.14760  0.38060  0.00700  Biso   1.000  H
  H47      1.0000 0.11940  0.14760  0.75700  Biso   1.000  H
  H48      1.0000 0.38060  0.35240  0.25700  Biso   1.000  H
  S1       1.0000 0.75612  0.29472  0.49293  Biso   1.000  S
  S2       1.0000 0.74388  0.20528  0.99293  Biso   1.000  S
  S3       1.0000 0.70528  0.25612  0.74293  Biso   1.000  S
  S4       1.0000 0.79472  0.24388  0.24293  Biso   1.000  S
  S5       1.0000 0.75612  0.70528  0.99293  Biso   1.000  S
  S6       1.0000 0.74388  0.79472  0.49293  Biso   1.000  S
  S7       1.0000 0.70528  0.74388  0.24293  Biso   1.000  S
  S8       1.0000 0.79472  0.75612  0.74293  Biso   1.000  S
  S9       1.0000 0.25612  0.79472  0.99293  Biso   1.000  S
  S10      1.0000 0.24388  0.70528  0.49293  Biso   1.000  S
  S11      1.0000 0.20528  0.75612  0.24293  Biso   1.000  S
  S12      1.0000 0.29472  0.74388  0.74293  Biso   1.000  S
  S13      1.0000 0.25612  0.20528  0.49293  Biso   1.000  S
  S14      1.0000 0.24388  0.29472  0.99293  Biso   1.000  S
  S15      1.0000 0.20528  0.24388  0.74293  Biso   1.000  S
  S16      1.0000 0.29472  0.25612  0.24293  Biso   1.000  S
  C17      1.0000 0.73113  0.25494  0.41708  Biso   1.000  C
  C18      1.0000 0.76887  0.24506  0.91708  Biso   1.000  C
  C19      1.0000 0.74506  0.23113  0.66708  Biso   1.000  C
  C20      1.0000 0.75494  0.26887  0.16708  Biso   1.000  C
  C21      1.0000 0.73113  0.74506  0.91708  Biso   1.000  C
  C22      1.0000 0.76887  0.75494  0.41708  Biso   1.000  C
  C23      1.0000 0.74506  0.76887  0.16708  Biso   1.000  C
  C24      1.0000 0.75494  0.73113  0.66708  Biso   1.000  C
  C25      1.0000 0.23113  0.75494  0.91708  Biso   1.000  C
  C26      1.0000 0.26887  0.74506  0.41708  Biso   1.000  C
  C27      1.0000 0.24506  0.73113  0.16708  Biso   1.000  C
  C28      1.0000 0.25494  0.76887  0.66708  Biso   1.000  C
  C29      1.0000 0.23113  0.24506  0.41708  Biso   1.000  C
  C30      1.0000 0.26887  0.25494  0.91708  Biso   1.000  C
  C31      1.0000 0.24506  0.26887  0.66708  Biso   1.000  C
  C32      1.0000 0.25494  0.23113  0.16708  Biso   1.000  C
  H49      1.0000 0.67590  0.25480  0.41310  Biso   1.000  H
  H50      1.0000 0.82410  0.24520  0.91310  Biso   1.000  H
  H51      1.0000 0.74520  0.17590  0.66310  Biso   1.000  H
  H52      1.0000 0.75480  0.32410  0.16310  Biso   1.000  H
  H53      1.0000 0.67590  0.74520  0.91310  Biso   1.000  H
  H54      1.0000 0.82410  0.75480  0.41310  Biso   1.000  H
  H55      1.0000 0.74520  0.82410  0.16310  Biso   1.000  H
  H56      1.0000 0.75480  0.67590  0.66310  Biso   1.000  H
  H57      1.0000 0.17590  0.75480  0.91310  Biso   1.000  H
  H58      1.0000 0.32410  0.74520  0.41310  Biso   1.000  H
  H59      1.0000 0.24520  0.67590  0.16310  Biso   1.000  H
  H60      1.0000 0.25480  0.82410  0.66310  Biso   1.000  H
  H61      1.0000 0.17590  0.24520  0.41310  Biso   1.000  H
  H62      1.0000 0.32410  0.25480  0.91310  Biso   1.000  H
  H63      1.0000 0.24520  0.32410  0.66310  Biso   1.000  H
  H64      1.0000 0.25480  0.17590  0.16310  Biso   1.000  H
  H65      1.0000 0.75140  0.28730  0.38310  Biso   1.000  H
  H66      1.0000 0.74860  0.21270  0.88310  Biso   1.000  H
  H67      1.0000 0.71270  0.25140  0.63310  Biso   1.000  H
  H68      1.0000 0.78730  0.24860  0.13310  Biso   1.000  H
  H69      1.0000 0.75140  0.71270  0.88310  Biso   1.000  H
  H70      1.0000 0.74860  0.78730  0.38310  Biso   1.000  H
  H71      1.0000 0.71270  0.74860  0.13310  Biso   1.000  H
  H72      1.0000 0.78730  0.75140  0.63310  Biso   1.000  H
  H73      1.0000 0.25140  0.78730  0.88310  Biso   1.000  H
  H74      1.0000 0.24860  0.71270  0.38310  Biso   1.000  H
  H75      1.0000 0.21270  0.75140  0.13310  Biso   1.000  H
  H76      1.0000 0.28730  0.74860  0.63310  Biso   1.000  H
  H77      1.0000 0.25140  0.21270  0.38310  Biso   1.000  H
  H78      1.0000 0.24860  0.28730  0.88310  Biso   1.000  H
  H79      1.0000 0.21270  0.24860  0.63310  Biso   1.000  H
  H80      1.0000 0.28730  0.25140  0.13310  Biso   1.000  H
  C33      1.0000 0.75967  0.17602  0.40742  Biso   1.000  C
  C34      1.0000 0.74033  0.32398  0.90742  Biso   1.000  C
  C35      1.0000 0.82398  0.25967  0.65742  Biso   1.000  C
  C36      1.0000 0.67602  0.24033  0.15742  Biso   1.000  C
  C37      1.0000 0.75967  0.82398  0.90742  Biso   1.000  C
  C38      1.0000 0.74033  0.67602  0.40742  Biso   1.000  C
  C39      1.0000 0.82398  0.74033  0.15742  Biso   1.000  C
  C40      1.0000 0.67602  0.75967  0.65742  Biso   1.000  C
  C41      1.0000 0.25967  0.67602  0.90742  Biso   1.000  C
  C42      1.0000 0.24033  0.82398  0.40742  Biso   1.000  C
  C43      1.0000 0.32398  0.75967  0.15742  Biso   1.000  C
  C44      1.0000 0.17602  0.74033  0.65742  Biso   1.000  C
  C45      1.0000 0.25967  0.32398  0.40742  Biso   1.000  C
  C46      1.0000 0.24033  0.17602  0.90742  Biso   1.000  C
  C47      1.0000 0.32398  0.24033  0.65742  Biso   1.000  C
  C48      1.0000 0.17602  0.25967  0.15742  Biso   1.000  C
  O1       1.0000 0.74142  0.14219  0.35661  Biso   1.000  O
  O2       1.0000 0.75858  0.35781  0.85661  Biso   1.000  O
  O3       1.0000 0.85781  0.24142  0.60661  Biso   1.000  O
  O4       1.0000 0.64219  0.25858  0.10661  Biso   1.000  O
  O5       1.0000 0.74142  0.85781  0.85661  Biso   1.000  O
  O6       1.0000 0.75858  0.64219  0.35661  Biso   1.000  O
  O7       1.0000 0.85781  0.75858  0.10661  Biso   1.000  O
  O8       1.0000 0.64219  0.74142  0.60661  Biso   1.000  O
  O9       1.0000 0.24142  0.64219  0.85661  Biso   1.000  O
  O10      1.0000 0.25858  0.85781  0.35661  Biso   1.000  O
  O11      1.0000 0.35781  0.74142  0.10661  Biso   1.000  O
  O12      1.0000 0.14219  0.75858  0.60661  Biso   1.000  O
  O13      1.0000 0.24142  0.35781  0.35661  Biso   1.000  O
  O14      1.0000 0.25858  0.14219  0.85661  Biso   1.000  O
  O15      1.0000 0.35781  0.25858  0.60661  Biso   1.000  O
  O16      1.0000 0.14219  0.24142  0.10661  Biso   1.000  O
  N1       1.0000 0.79991  0.14559  0.45142  Biso   1.000  N
  N2       1.0000 0.70009  0.35441  0.95142  Biso   1.000  N
  N3       1.0000 0.85441  0.29991  0.70142  Biso   1.000  N
  N4       1.0000 0.64559  0.20009  0.20142  Biso   1.000  N
  N5       1.0000 0.79991  0.85441  0.95142  Biso   1.000  N
  N6       1.0000 0.70009  0.64559  0.45142  Biso   1.000  N
  N7       1.0000 0.85441  0.70009  0.20142  Biso   1.000  N
  N8       1.0000 0.64559  0.79991  0.70142  Biso   1.000  N
  N9       1.0000 0.29991  0.64559  0.95142  Biso   1.000  N
  N10      1.0000 0.20009  0.85441  0.45142  Biso   1.000  N
  N11      1.0000 0.35441  0.79991  0.20142  Biso   1.000  N
  N12      1.0000 0.14559  0.70009  0.70142  Biso   1.000  N
  N13      1.0000 0.29991  0.35441  0.45142  Biso   1.000  N
  N14      1.0000 0.20009  0.14559  0.95142  Biso   1.000  N
  N15      1.0000 0.35441  0.20009  0.70142  Biso   1.000  N
  N16      1.0000 0.14559  0.29991  0.20142  Biso   1.000  N
  C49      1.0000 0.82263  0.06761  0.44342  Biso   1.000  C
  C50      1.0000 0.67737  0.43239  0.94342  Biso   1.000  C
  C51      1.0000 0.93239  0.32263  0.69342  Biso   1.000  C
  C52      1.0000 0.56761  0.17737  0.19342  Biso   1.000  C
  C53      1.0000 0.82263  0.93239  0.94342  Biso   1.000  C
  C54      1.0000 0.67737  0.56761  0.44342  Biso   1.000  C
  C55      1.0000 0.93239  0.67737  0.19342  Biso   1.000  C
  C56      1.0000 0.56761  0.82263  0.69342  Biso   1.000  C
  C57      1.0000 0.32263  0.56761  0.94342  Biso   1.000  C
  C58      1.0000 0.17737  0.93239  0.44342  Biso   1.000  C
  C59      1.0000 0.43239  0.82263  0.19342  Biso   1.000  C
  C60      1.0000 0.06761  0.67737  0.69342  Biso   1.000  C
  C61      1.0000 0.32263  0.43239  0.44342  Biso   1.000  C
  C62      1.0000 0.17737  0.06761  0.94342  Biso   1.000  C
  C63      1.0000 0.43239  0.17737  0.69342  Biso   1.000  C
  C64      1.0000 0.06761  0.32263  0.19342  Biso   1.000  C
  H81      1.0000 0.86120  0.06390  0.40990  Biso   1.000  H
  H82      1.0000 0.63880  0.43610  0.90990  Biso   1.000  H
  H83      1.0000 0.93610  0.36120  0.65990  Biso   1.000  H
  H84      1.0000 0.56390  0.13880  0.15990  Biso   1.000  H
  H85      1.0000 0.86120  0.93610  0.90990  Biso   1.000  H
  H86      1.0000 0.63880  0.56390  0.40990  Biso   1.000  H
  H87      1.0000 0.93610  0.63880  0.15990  Biso   1.000  H
  H88      1.0000 0.56390  0.86120  0.65990  Biso   1.000  H
  H89      1.0000 0.36120  0.56390  0.90990  Biso   1.000  H
  H90      1.0000 0.13880  0.93610  0.40990  Biso   1.000  H
  H91      1.0000 0.43610  0.86120  0.15990  Biso   1.000  H
  H92      1.0000 0.06390  0.63880  0.65990  Biso   1.000  H
  H93      1.0000 0.36120  0.43610  0.40990  Biso   1.000  H
  H94      1.0000 0.13880  0.06390  0.90990  Biso   1.000  H
  H95      1.0000 0.43610  0.13880  0.65990  Biso   1.000  H
  H96      1.0000 0.06390  0.36120  0.15990  Biso   1.000  H
  H97      1.0000 0.77900  0.03700  0.43050  Biso   1.000  H
  H98      1.0000 0.72100  0.46300  0.93050  Biso   1.000  H
  H99      1.0000 0.96300  0.27900  0.68050  Biso   1.000  H
  H100     1.0000 0.53700  0.22100  0.18050  Biso   1.000  H
  H101     1.0000 0.77900  0.96300  0.93050  Biso   1.000  H
  H102     1.0000 0.72100  0.53700  0.43050  Biso   1.000  H
  H103     1.0000 0.96300  0.72100  0.18050  Biso   1.000  H
  H104     1.0000 0.53700  0.77900  0.68050  Biso   1.000  H
  H105     1.0000 0.27900  0.53700  0.93050  Biso   1.000  H
  H106     1.0000 0.22100  0.96300  0.43050  Biso   1.000  H
  H107     1.0000 0.46300  0.77900  0.18050  Biso   1.000  H
  H108     1.0000 0.03700  0.72100  0.68050  Biso   1.000  H
  H109     1.0000 0.27900  0.46300  0.43050  Biso   1.000  H
  H110     1.0000 0.22100  0.03700  0.93050  Biso   1.000  H
  H111     1.0000 0.46300  0.22100  0.68050  Biso   1.000  H
  H112     1.0000 0.03700  0.27900  0.18050  Biso   1.000  H
  C65      1.0000 0.85363  0.03911  0.50517  Biso   1.000  C
  C66      1.0000 0.64637  0.46089  0.00517  Biso   1.000  C
  C67      1.0000 0.96089  0.35363  0.75517  Biso   1.000  C
  C68      1.0000 0.53911  0.14637  0.25517  Biso   1.000  C
  C69      1.0000 0.85363  0.96089  0.00517  Biso   1.000  C
  C70      1.0000 0.64637  0.53911  0.50517  Biso   1.000  C
  C71      1.0000 0.96089  0.64637  0.25517  Biso   1.000  C
  C72      1.0000 0.53911  0.85363  0.75517  Biso   1.000  C
  C73      1.0000 0.35363  0.53911  0.00517  Biso   1.000  C
  C74      1.0000 0.14637  0.96089  0.50517  Biso   1.000  C
  C75      1.0000 0.46089  0.85363  0.25517  Biso   1.000  C
  C76      1.0000 0.03911  0.64637  0.75517  Biso   1.000  C
  C77      1.0000 0.35363  0.46089  0.50517  Biso   1.000  C
  C78      1.0000 0.14637  0.03911  0.00517  Biso   1.000  C
  C79      1.0000 0.46089  0.14637  0.75517  Biso   1.000  C
  C80      1.0000 0.03911  0.35363  0.25517  Biso   1.000  C
  N17      1.0000 0.85551  0.08744  0.55338  Biso   1.000  N
  N18      1.0000 0.64449  0.41256  0.05338  Biso   1.000  N
  N19      1.0000 0.91256  0.35551  0.80338  Biso   1.000  N
  N20      1.0000 0.58744  0.14449  0.30338  Biso   1.000  N
  N21      1.0000 0.85551  0.91256  0.05338  Biso   1.000  N
  N22      1.0000 0.64449  0.58744  0.55338  Biso   1.000  N
  N23      1.0000 0.91256  0.64449  0.30338  Biso   1.000  N
  N24      1.0000 0.58744  0.85551  0.80338  Biso   1.000  N
  N25      1.0000 0.35551  0.58744  0.05338  Biso   1.000  N
  N26      1.0000 0.14449  0.91256  0.55338  Biso   1.000  N
  N27      1.0000 0.41256  0.85551  0.30338  Biso   1.000  N
  N28      1.0000 0.08744  0.64449  0.80338  Biso   1.000  N
  N29      1.0000 0.35551  0.41256  0.55338  Biso   1.000  N
  N30      1.0000 0.14449  0.08744  0.05338  Biso   1.000  N
  N31      1.0000 0.41256  0.14449  0.80338  Biso   1.000  N
  N32      1.0000 0.08744  0.35551  0.30338  Biso   1.000  N
  C81      1.0000 0.88019  0.06460  0.61092  Biso   1.000  C
  C82      1.0000 0.61981  0.43540  0.11092  Biso   1.000  C
  C83      1.0000 0.93540  0.38019  0.86092  Biso   1.000  C
  C84      1.0000 0.56460  0.11981  0.36092  Biso   1.000  C
  C85      1.0000 0.88019  0.93540  0.11092  Biso   1.000  C
  C86      1.0000 0.61981  0.56460  0.61092  Biso   1.000  C
  C87      1.0000 0.93540  0.61981  0.36092  Biso   1.000  C
  C88      1.0000 0.56460  0.88019  0.86092  Biso   1.000  C
  C89      1.0000 0.38019  0.56460  0.11092  Biso   1.000  C
  C90      1.0000 0.11981  0.93540  0.61092  Biso   1.000  C
  C91      1.0000 0.43540  0.88019  0.36092  Biso   1.000  C
  C92      1.0000 0.06460  0.61981  0.86092  Biso   1.000  C
  C93      1.0000 0.38019  0.43540  0.61092  Biso   1.000  C
  C94      1.0000 0.11981  0.06460  0.11092  Biso   1.000  C
  C95      1.0000 0.43540  0.11981  0.86092  Biso   1.000  C
  C96      1.0000 0.06460  0.38019  0.36092  Biso   1.000  C
  H113     1.0000 0.88090  0.09920  0.64510  Biso   1.000  H
  H114     1.0000 0.61910  0.40080  0.14510  Biso   1.000  H
  H115     1.0000 0.90080  0.38090  0.89510  Biso   1.000  H
  H116     1.0000 0.59920  0.11910  0.39510  Biso   1.000  H
  H117     1.0000 0.88090  0.90080  0.14510  Biso   1.000  H
  H118     1.0000 0.61910  0.59920  0.64510  Biso   1.000  H
  H119     1.0000 0.90080  0.61910  0.39510  Biso   1.000  H
  H120     1.0000 0.59920  0.88090  0.89510  Biso   1.000  H
  H121     1.0000 0.38090  0.59920  0.14510  Biso   1.000  H
  H122     1.0000 0.11910  0.90080  0.64510  Biso   1.000  H
  H123     1.0000 0.40080  0.88090  0.39510  Biso   1.000  H
  H124     1.0000 0.09920  0.61910  0.89510  Biso   1.000  H
  H125     1.0000 0.38090  0.40080  0.64510  Biso   1.000  H
  H126     1.0000 0.11910  0.09920  0.14510  Biso   1.000  H
  H127     1.0000 0.40080  0.11910  0.89510  Biso   1.000  H
  H128     1.0000 0.09920  0.38090  0.39510  Biso   1.000  H
  C97      1.0000 0.90424  0.99262  0.62104  Biso   1.000  C
  C98      1.0000 0.59576  0.50738  0.12104  Biso   1.000  C
  C99      1.0000 0.00738  0.40424  0.87104  Biso   1.000  C
  C100     1.0000 0.49262  0.09576  0.37104  Biso   1.000  C
  C101     1.0000 0.90424  0.00738  0.12104  Biso   1.000  C
  C102     1.0000 0.59576  0.49262  0.62104  Biso   1.000  C
  C103     1.0000 0.00738  0.59576  0.37104  Biso   1.000  C
  C104     1.0000 0.49262  0.90424  0.87104  Biso   1.000  C
  C105     1.0000 0.40424  0.49262  0.12104  Biso   1.000  C
  C106     1.0000 0.09576  0.00738  0.62104  Biso   1.000  C
  C107     1.0000 0.50738  0.90424  0.37104  Biso   1.000  C
  C108     1.0000 0.99262  0.59576  0.87104  Biso   1.000  C
  C109     1.0000 0.40424  0.50738  0.62104  Biso   1.000  C
  C110     1.0000 0.09576  0.99262  0.12104  Biso   1.000  C
  C111     1.0000 0.50738  0.09576  0.87104  Biso   1.000  C
  C112     1.0000 0.99262  0.40424  0.37104  Biso   1.000  C
  H129     1.0000 0.92070  0.97740  0.66190  Biso   1.000  H
  H130     1.0000 0.57930  0.52260  0.16190  Biso   1.000  H
  H131     1.0000 0.02260  0.42070  0.91190  Biso   1.000  H
  H132     1.0000 0.47740  0.07930  0.41190  Biso   1.000  H
  H133     1.0000 0.92070  0.02260  0.16190  Biso   1.000  H
  H134     1.0000 0.57930  0.47740  0.66190  Biso   1.000  H
  H135     1.0000 0.02260  0.57930  0.41190  Biso   1.000  H
  H136     1.0000 0.47740  0.92070  0.91190  Biso   1.000  H
  H137     1.0000 0.42070  0.47740  0.16190  Biso   1.000  H
  H138     1.0000 0.07930  0.02260  0.66190  Biso   1.000  H
  H139     1.0000 0.52260  0.92070  0.41190  Biso   1.000  H
  H140     1.0000 0.97740  0.57930  0.91190  Biso   1.000  H
  H141     1.0000 0.42070  0.52260  0.66190  Biso   1.000  H
  H142     1.0000 0.07930  0.97740  0.16190  Biso   1.000  H
  H143     1.0000 0.52260  0.07930  0.91190  Biso   1.000  H
  H144     1.0000 0.97740  0.42070  0.41190  Biso   1.000  H
  C113     1.0000 0.90416  0.94213  0.57082  Biso   1.000  C
  C114     1.0000 0.59584  0.55787  0.07082  Biso   1.000  C
  C115     1.0000 0.05787  0.40416  0.82082  Biso   1.000  C
  C116     1.0000 0.44213  0.09584  0.32082  Biso   1.000  C
  C117     1.0000 0.90416  0.05787  0.07082  Biso   1.000  C
  C118     1.0000 0.59584  0.44213  0.57082  Biso   1.000  C
  C119     1.0000 0.05787  0.59584  0.32082  Biso   1.000  C
  C120     1.0000 0.44213  0.90416  0.82082  Biso   1.000  C
  C121     1.0000 0.40416  0.44213  0.07082  Biso   1.000  C
  C122     1.0000 0.09584  0.05787  0.57082  Biso   1.000  C
  C123     1.0000 0.55787  0.90416  0.32082  Biso   1.000  C
  C124     1.0000 0.94213  0.59584  0.82082  Biso   1.000  C
  C125     1.0000 0.40416  0.55787  0.57082  Biso   1.000  C
  C126     1.0000 0.09584  0.94213  0.07082  Biso   1.000  C
  C127     1.0000 0.55787  0.09584  0.82082  Biso   1.000  C
  C128     1.0000 0.94213  0.40416  0.32082  Biso   1.000  C
  H145     1.0000 0.92190  0.89240  0.57640  Biso   1.000  H
  H146     1.0000 0.57810  0.60760  0.07640  Biso   1.000  H
  H147     1.0000 0.10760  0.42190  0.82640  Biso   1.000  H
  H148     1.0000 0.39240  0.07810  0.32640  Biso   1.000  H
  H149     1.0000 0.92190  0.10760  0.07640  Biso   1.000  H
  H150     1.0000 0.57810  0.39240  0.57640  Biso   1.000  H
  H151     1.0000 0.10760  0.57810  0.32640  Biso   1.000  H
  H152     1.0000 0.39240  0.92190  0.82640  Biso   1.000  H
  H153     1.0000 0.42190  0.39240  0.07640  Biso   1.000  H
  H154     1.0000 0.07810  0.10760  0.57640  Biso   1.000  H
  H155     1.0000 0.60760  0.92190  0.32640  Biso   1.000  H
  H156     1.0000 0.89240  0.57810  0.82640  Biso   1.000  H
  H157     1.0000 0.42190  0.60760  0.57640  Biso   1.000  H
  H158     1.0000 0.07810  0.89240  0.07640  Biso   1.000  H
  H159     1.0000 0.60760  0.07810  0.82640  Biso   1.000  H
  H160     1.0000 0.89240  0.42190  0.32640  Biso   1.000  H
  C129     1.0000 0.87760  0.96579  0.51237  Biso   1.000  C
  C130     1.0000 0.62240  0.53421  0.01237  Biso   1.000  C
  C131     1.0000 0.03421  0.37760  0.76237  Biso   1.000  C
  C132     1.0000 0.46579  0.12240  0.26237  Biso   1.000  C
  C133     1.0000 0.87760  0.03421  0.01237  Biso   1.000  C
  C134     1.0000 0.62240  0.46579  0.51237  Biso   1.000  C
  C135     1.0000 0.03421  0.62240  0.26237  Biso   1.000  C
  C136     1.0000 0.46579  0.87760  0.76237  Biso   1.000  C
  C137     1.0000 0.37760  0.46579  0.01237  Biso   1.000  C
  C138     1.0000 0.12240  0.03421  0.51237  Biso   1.000  C
  C139     1.0000 0.53421  0.87760  0.26237  Biso   1.000  C
  C140     1.0000 0.96579  0.62240  0.76237  Biso   1.000  C
  C141     1.0000 0.37760  0.53421  0.51237  Biso   1.000  C
  C142     1.0000 0.12240  0.96579  0.01237  Biso   1.000  C
  C143     1.0000 0.53421  0.12240  0.76237  Biso   1.000  C
  C144     1.0000 0.96579  0.37760  0.26237  Biso   1.000  C
  H161     1.0000 0.87590  0.93200  0.47760  Biso   1.000  H
  H162     1.0000 0.62410  0.56800  0.97760  Biso   1.000  H
  H163     1.0000 0.06800  0.37590  0.72760  Biso   1.000  H
  H164     1.0000 0.43200  0.12410  0.22760  Biso   1.000  H
  H165     1.0000 0.87590  0.06800  0.97760  Biso   1.000  H
  H166     1.0000 0.62410  0.43200  0.47760  Biso   1.000  H
  H167     1.0000 0.06800  0.62410  0.22760  Biso   1.000  H
  H168     1.0000 0.43200  0.87590  0.72760  Biso   1.000  H
  H169     1.0000 0.37590  0.43200  0.97760  Biso   1.000  H
  H170     1.0000 0.12410  0.06800  0.47760  Biso   1.000  H
  H171     1.0000 0.56800  0.87590  0.22760  Biso   1.000  H
  H172     1.0000 0.93200  0.62410  0.72760  Biso   1.000  H
  H173     1.0000 0.37590  0.56800  0.47760  Biso   1.000  H
  H174     1.0000 0.12410  0.93200  0.97760  Biso   1.000  H
  H175     1.0000 0.56800  0.12410  0.72760  Biso   1.000  H
  H176     1.0000 0.93200  0.37590  0.22760  Biso   1.000  H
  O17      1.0000 0.94614  0.22019  0.50239  Biso   1.000  O
  O18      1.0000 0.55386  0.27981  0.00239  Biso   1.000  O
  O19      1.0000 0.77981  0.44614  0.75239  Biso   1.000  O
  O20      1.0000 0.72019  0.05386  0.25239  Biso   1.000  O
  O21      1.0000 0.94614  0.77981  0.00239  Biso   1.000  O
  O22      1.0000 0.55386  0.72019  0.50239  Biso   1.000  O
  O23      1.0000 0.77981  0.55386  0.25239  Biso   1.000  O
  O24      1.0000 0.72019  0.94614  0.75239  Biso   1.000  O
  O25      1.0000 0.44614  0.72019  0.00239  Biso   1.000  O
  O26      1.0000 0.05386  0.77981  0.50239  Biso   1.000  O
  O27      1.0000 0.27981  0.94614  0.25239  Biso   1.000  O
  O28      1.0000 0.22019  0.55386  0.75239  Biso   1.000  O
  O29      1.0000 0.44614  0.27981  0.50239  Biso   1.000  O
  O30      1.0000 0.05386  0.22019  0.00239  Biso   1.000  O
  O31      1.0000 0.27981  0.05386  0.75239  Biso   1.000  O
  O32      1.0000 0.22019  0.44614  0.25239  Biso   1.000  O
  H177     1.0000 0.96100  0.25500  0.51650  Biso   1.000  H
  H178     1.0000 0.53900  0.24500  0.01650  Biso   1.000  H
  H179     1.0000 0.74500  0.46100  0.76650  Biso   1.000  H
  H180     1.0000 0.75500  0.03900  0.26650  Biso   1.000  H
  H181     1.0000 0.96100  0.74500  0.01650  Biso   1.000  H
  H182     1.0000 0.53900  0.75500  0.51650  Biso   1.000  H
  H183     1.0000 0.74500  0.53900  0.26650  Biso   1.000  H
  H184     1.0000 0.75500  0.96100  0.76650  Biso   1.000  H
  H185     1.0000 0.46100  0.75500  0.01650  Biso   1.000  H
  H186     1.0000 0.03900  0.74500  0.51650  Biso   1.000  H
  H187     1.0000 0.24500  0.96100  0.26650  Biso   1.000  H
  H188     1.0000 0.25500  0.53900  0.76650  Biso   1.000  H
  H189     1.0000 0.46100  0.24500  0.51650  Biso   1.000  H
  H190     1.0000 0.03900  0.25500  0.01650  Biso   1.000  H
  H191     1.0000 0.24500  0.03900  0.76650  Biso   1.000  H
  H192     1.0000 0.25500  0.46100  0.26650  Biso   1.000  H
  C145     1.0000 0.98437  0.20042  0.44668  Biso   1.000  C
  C146     1.0000 0.51563  0.29958  0.94668  Biso   1.000  C
  C147     1.0000 0.79958  0.48437  0.69668  Biso   1.000  C
  C148     1.0000 0.70042  0.01563  0.19668  Biso   1.000  C
  C149     1.0000 0.98437  0.79958  0.94668  Biso   1.000  C
  C150     1.0000 0.51563  0.70042  0.44668  Biso   1.000  C
  C151     1.0000 0.79958  0.51563  0.19668  Biso   1.000  C
  C152     1.0000 0.70042  0.98437  0.69668  Biso   1.000  C
  C153     1.0000 0.48437  0.70042  0.94668  Biso   1.000  C
  C154     1.0000 0.01563  0.79958  0.44668  Biso   1.000  C
  C155     1.0000 0.29958  0.98437  0.19668  Biso   1.000  C
  C156     1.0000 0.20042  0.51563  0.69668  Biso   1.000  C
  C157     1.0000 0.48437  0.29958  0.44668  Biso   1.000  C
  C158     1.0000 0.01563  0.20042  0.94668  Biso   1.000  C
  C159     1.0000 0.29958  0.01563  0.69668  Biso   1.000  C
  C160     1.0000 0.20042  0.48437  0.19668  Biso   1.000  C
  H193     1.0000 0.96870  0.23350  0.41210  Biso   1.000  H
  H194     1.0000 0.53130  0.26650  0.91210  Biso   1.000  H
  H195     1.0000 0.76650  0.46870  0.66210  Biso   1.000  H
  H196     1.0000 0.73350  0.03130  0.16210  Biso   1.000  H
  H197     1.0000 0.96870  0.76650  0.91210  Biso   1.000  H
  H198     1.0000 0.53130  0.73350  0.41210  Biso   1.000  H
  H199     1.0000 0.76650  0.53130  0.16210  Biso   1.000  H
  H200     1.0000 0.73350  0.96870  0.66210  Biso   1.000  H
  H201     1.0000 0.46870  0.73350  0.91210  Biso   1.000  H
  H202     1.0000 0.03130  0.76650  0.41210  Biso   1.000  H
  H203     1.0000 0.26650  0.96870  0.16210  Biso   1.000  H
  H204     1.0000 0.23350  0.53130  0.66210  Biso   1.000  H
  H205     1.0000 0.46870  0.26650  0.41210  Biso   1.000  H
  H206     1.0000 0.03130  0.23350  0.91210  Biso   1.000  H
  H207     1.0000 0.26650  0.03130  0.66210  Biso   1.000  H
  H208     1.0000 0.23350  0.46870  0.16210  Biso   1.000  H
  H209     1.0000 0.97270  0.14840  0.43560  Biso   1.000  H
  H210     1.0000 0.52730  0.35160  0.93560  Biso   1.000  H
  H211     1.0000 0.85160  0.47270  0.68560  Biso   1.000  H
  H212     1.0000 0.64840  0.02730  0.18560  Biso   1.000  H
  H213     1.0000 0.97270  0.85160  0.93560  Biso   1.000  H
  H214     1.0000 0.52730  0.64840  0.43560  Biso   1.000  H
  H215     1.0000 0.85160  0.52730  0.18560  Biso   1.000  H
  H216     1.0000 0.64840  0.97270  0.68560  Biso   1.000  H
  H217     1.0000 0.47270  0.64840  0.93560  Biso   1.000  H
  H218     1.0000 0.02730  0.85160  0.43560  Biso   1.000  H
  H219     1.0000 0.35160  0.97270  0.18560  Biso   1.000  H
  H220     1.0000 0.14840  0.52730  0.68560  Biso   1.000  H
  H221     1.0000 0.47270  0.35160  0.43560  Biso   1.000  H
  H222     1.0000 0.02730  0.14840  0.93560  Biso   1.000  H
  H223     1.0000 0.35160  0.02730  0.68560  Biso   1.000  H
  H224     1.0000 0.14840  0.47270  0.18560  Biso   1.000  H
  H225     1.0000 0.03840  0.20550  0.45350  Biso   1.000  H
  H226     1.0000 0.46160  0.29450  0.95350  Biso   1.000  H
  H227     1.0000 0.79450  0.53840  0.70350  Biso   1.000  H
  H228     1.0000 0.70550  0.96160  0.20350  Biso   1.000  H
  H229     1.0000 0.03840  0.79450  0.95350  Biso   1.000  H
  H230     1.0000 0.46160  0.70550  0.45350  Biso   1.000  H
  H231     1.0000 0.79450  0.46160  0.20350  Biso   1.000  H
  H232     1.0000 0.70550  0.03840  0.70350  Biso   1.000  H
  H233     1.0000 0.53840  0.70550  0.95350  Biso   1.000  H
  H234     1.0000 0.96160  0.79450  0.45350  Biso   1.000  H
  H235     1.0000 0.29450  0.03840  0.20350  Biso   1.000  H
  H236     1.0000 0.20550  0.46160  0.70350  Biso   1.000  H
  H237     1.0000 0.53840  0.29450  0.45350  Biso   1.000  H
  H238     1.0000 0.96160  0.20550  0.95350  Biso   1.000  H
  H239     1.0000 0.29450  0.96160  0.70350  Biso   1.000  H
  H240     1.0000 0.20550  0.53840  0.20350  Biso   1.000  H
  S17      1.0000 0.08374  0.35424  0.55607  Biso   1.000  S
  S18      1.0000 0.41626  0.14576  0.05607  Biso   1.000  S
  S19      1.0000 0.64576  0.58374  0.80607  Biso   1.000  S
  S20      1.0000 0.85424  0.91626  0.30607  Biso   1.000  S
  S21      1.0000 0.08374  0.64576  0.05607  Biso   1.000  S
  S22      1.0000 0.41626  0.85424  0.55607  Biso   1.000  S
  S23      1.0000 0.64576  0.41626  0.30607  Biso   1.000  S
  S24      1.0000 0.85424  0.08374  0.80607  Biso   1.000  S
  S25      1.0000 0.58374  0.85424  0.05607  Biso   1.000  S
  S26      1.0000 0.91626  0.64576  0.55607  Biso   1.000  S
  S27      1.0000 0.14576  0.08374  0.30607  Biso   1.000  S
  S28      1.0000 0.35424  0.41626  0.80607  Biso   1.000  S
  S29      1.0000 0.58374  0.14576  0.55607  Biso   1.000  S
  S30      1.0000 0.91626  0.35424  0.05607  Biso   1.000  S
  S31      1.0000 0.14576  0.91626  0.80607  Biso   1.000  S
  S32      1.0000 0.35424  0.58374  0.30607  Biso   1.000  S
  O33      1.0000 0.13078  0.31361  0.51272  Biso   1.000  O
  O34      1.0000 0.36922  0.18639  0.01272  Biso   1.000  O
  O35      1.0000 0.68639  0.63078  0.76272  Biso   1.000  O
  O36      1.0000 0.81361  0.86922  0.26272  Biso   1.000  O
  O37      1.0000 0.13078  0.68639  0.01272  Biso   1.000  O
  O38      1.0000 0.36922  0.81361  0.51272  Biso   1.000  O
  O39      1.0000 0.68639  0.36922  0.26272  Biso   1.000  O
  O40      1.0000 0.81361  0.13078  0.76272  Biso   1.000  O
  O41      1.0000 0.63078  0.81361  0.01272  Biso   1.000  O
  O42      1.0000 0.86922  0.68639  0.51272  Biso   1.000  O
  O43      1.0000 0.18639  0.13078  0.26272  Biso   1.000  O
  O44      1.0000 0.31361  0.36922  0.76272  Biso   1.000  O
  O45      1.0000 0.63078  0.18639  0.51272  Biso   1.000  O
  O46      1.0000 0.86922  0.31361  0.01272  Biso   1.000  O
  O47      1.0000 0.18639  0.86922  0.76272  Biso   1.000  O
  O48      1.0000 0.31361  0.63078  0.26272  Biso   1.000  O
  O49      1.0000 0.00542  0.35663  0.53849  Biso   1.000  O
  O50      1.0000 0.49458  0.14337  0.03849  Biso   1.000  O
  O51      1.0000 0.64337  0.50542  0.78849  Biso   1.000  O
  O52      1.0000 0.85663  0.99458  0.28849  Biso   1.000  O
  O53      1.0000 0.00542  0.64337  0.03849  Biso   1.000  O
  O54      1.0000 0.49458  0.85663  0.53849  Biso   1.000  O
  O55      1.0000 0.64337  0.49458  0.28849  Biso   1.000  O
  O56      1.0000 0.85663  0.00542  0.78849  Biso   1.000  O
  O57      1.0000 0.50542  0.85663  0.03849  Biso   1.000  O
  O58      1.0000 0.99458  0.64337  0.53849  Biso   1.000  O
  O59      1.0000 0.14337  0.00542  0.28849  Biso   1.000  O
  O60      1.0000 0.35663  0.49458  0.78849  Biso   1.000  O
  O61      1.0000 0.50542  0.14337  0.53849  Biso   1.000  O
  O62      1.0000 0.99458  0.35663  0.03849  Biso   1.000  O
  O63      1.0000 0.14337  0.99458  0.78849  Biso   1.000  O
  O64      1.0000 0.35663  0.50542  0.28849  Biso   1.000  O
  O65      1.0000 0.09751  0.34044  0.62217  Biso   1.000  O
  O66      1.0000 0.40249  0.15956  0.12217  Biso   1.000  O
  O67      1.0000 0.65956  0.59751  0.87217  Biso   1.000  O
  O68      1.0000 0.84044  0.90249  0.37217  Biso   1.000  O
  O69      1.0000 0.09751  0.65956  0.12217  Biso   1.000  O
  O70      1.0000 0.40249  0.84044  0.62217  Biso   1.000  O
  O71      1.0000 0.65956  0.40249  0.37217  Biso   1.000  O
  O72      1.0000 0.84044  0.09751  0.87217  Biso   1.000  O
  O73      1.0000 0.59751  0.84044  0.12217  Biso   1.000  O
  O74      1.0000 0.90249  0.65956  0.62217  Biso   1.000  O
  O75      1.0000 0.15956  0.09751  0.37217  Biso   1.000  O
  O76      1.0000 0.34044  0.40249  0.87217  Biso   1.000  O
  O77      1.0000 0.59751  0.15956  0.62217  Biso   1.000  O
  O78      1.0000 0.90249  0.34044  0.12217  Biso   1.000  O
  O79      1.0000 0.15956  0.90249  0.87217  Biso   1.000  O
  O80      1.0000 0.34044  0.59751  0.37217  Biso   1.000  O
  C161     1.0000 0.11364  0.45121  0.54484  Biso   1.000  C
  C162     1.0000 0.38636  0.04879  0.04484  Biso   1.000  C
  C163     1.0000 0.54879  0.61364  0.79484  Biso   1.000  C
  C164     1.0000 0.95121  0.88636  0.29484  Biso   1.000  C
  C165     1.0000 0.11364  0.54879  0.04484  Biso   1.000  C
  C166     1.0000 0.38636  0.95121  0.54484  Biso   1.000  C
  C167     1.0000 0.54879  0.38636  0.29484  Biso   1.000  C
  C168     1.0000 0.95121  0.11364  0.79484  Biso   1.000  C
  C169     1.0000 0.61364  0.95121  0.04484  Biso   1.000  C
  C170     1.0000 0.88636  0.54879  0.54484  Biso   1.000  C
  C171     1.0000 0.04879  0.11364  0.29484  Biso   1.000  C
  C172     1.0000 0.45121  0.38636  0.79484  Biso   1.000  C
  C173     1.0000 0.61364  0.04879  0.54484  Biso   1.000  C
  C174     1.0000 0.88636  0.45121  0.04484  Biso   1.000  C
  C175     1.0000 0.04879  0.88636  0.79484  Biso   1.000  C
  C176     1.0000 0.45121  0.61364  0.29484  Biso   1.000  C
  F1       1.0000 0.07906  0.49736  0.58389  Biso   1.000  F
  F2       1.0000 0.42094  0.00264  0.08389  Biso   1.000  F
  F3       1.0000 0.50264  0.57906  0.83389  Biso   1.000  F
  F4       1.0000 0.99736  0.92094  0.33389  Biso   1.000  F
  F5       1.0000 0.07906  0.50264  0.08389  Biso   1.000  F
  F6       1.0000 0.42094  0.99736  0.58389  Biso   1.000  F
  F7       1.0000 0.50264  0.42094  0.33389  Biso   1.000  F
  F8       1.0000 0.99736  0.07906  0.83389  Biso   1.000  F
  F9       1.0000 0.57906  0.99736  0.08389  Biso   1.000  F
  F10      1.0000 0.92094  0.50264  0.58389  Biso   1.000  F
  F11      1.0000 0.00264  0.07906  0.33389  Biso   1.000  F
  F12      1.0000 0.49736  0.42094  0.83389  Biso   1.000  F
  F13      1.0000 0.57906  0.00264  0.58389  Biso   1.000  F
  F14      1.0000 0.92094  0.49736  0.08389  Biso   1.000  F
  F15      1.0000 0.00264  0.92094  0.83389  Biso   1.000  F
  F16      1.0000 0.49736  0.57906  0.33389  Biso   1.000  F
  F17      1.0000 0.18709  0.45815  0.55498  Biso   1.000  F
  F18      1.0000 0.31291  0.04185  0.05498  Biso   1.000  F
  F19      1.0000 0.54185  0.68709  0.80498  Biso   1.000  F
  F20      1.0000 0.95815  0.81291  0.30498  Biso   1.000  F
  F21      1.0000 0.18709  0.54185  0.05498  Biso   1.000  F
  F22      1.0000 0.31291  0.95815  0.55498  Biso   1.000  F
  F23      1.0000 0.54185  0.31291  0.30498  Biso   1.000  F
  F24      1.0000 0.95815  0.18709  0.80498  Biso   1.000  F
  F25      1.0000 0.68709  0.95815  0.05498  Biso   1.000  F
  F26      1.0000 0.81291  0.54185  0.55498  Biso   1.000  F
  F27      1.0000 0.04185  0.18709  0.30498  Biso   1.000  F
  F28      1.0000 0.45815  0.31291  0.80498  Biso   1.000  F
  F29      1.0000 0.68709  0.04185  0.55498  Biso   1.000  F
  F30      1.0000 0.81291  0.45815  0.05498  Biso   1.000  F
  F31      1.0000 0.04185  0.81291  0.80498  Biso   1.000  F
  F32      1.0000 0.45815  0.68709  0.30498  Biso   1.000  F
  F33      1.0000 0.09988  0.47404  0.48599  Biso   1.000  F
  F34      1.0000 0.40012  0.02596  0.98599  Biso   1.000  F
  F35      1.0000 0.52596  0.59988  0.73599  Biso   1.000  F
  F36      1.0000 0.97404  0.90012  0.23599  Biso   1.000  F
  F37      1.0000 0.09988  0.52596  0.98599  Biso   1.000  F
  F38      1.0000 0.40012  0.97404  0.48599  Biso   1.000  F
  F39      1.0000 0.52596  0.40012  0.23599  Biso   1.000  F
  F40      1.0000 0.97404  0.09988  0.73599  Biso   1.000  F
  F41      1.0000 0.59988  0.97404  0.98599  Biso   1.000  F
  F42      1.0000 0.90012  0.52596  0.48599  Biso   1.000  F
  F43      1.0000 0.02596  0.09988  0.23599  Biso   1.000  F
  F44      1.0000 0.47404  0.40012  0.73599  Biso   1.000  F
  F45      1.0000 0.59988  0.02596  0.48599  Biso   1.000  F
  F46      1.0000 0.90012  0.47404  0.98599  Biso   1.000  F
  F47      1.0000 0.02596  0.90012  0.73599  Biso   1.000  F
  F48      1.0000 0.47404  0.59988  0.23599  Biso   1.000  F
