data_image0
_cell_length_a       13.8752
_cell_length_b       13.8752
_cell_length_c       15.32
_cell_angle_alpha    90
_cell_angle_beta     90
_cell_angle_gamma    120

_symmetry_space_group_name_H-M    "P 1"
_symmetry_int_tables_number       1

loop_
  _symmetry_equiv_pos_as_xyz
  'x, y, z'

loop_
  _atom_site_label
  _atom_site_occupancy
  _atom_site_fract_x
  _atom_site_fract_y
  _atom_site_fract_z
  _atom_site_thermal_displace_type
  _atom_site_B_iso_or_equiv
  _atom_site_type_symbol
  Cu1      1.0000 0.30518  0.55460  0.89634  Biso   1.000  Cu
  Cu2      1.0000 0.44540  0.75058  0.22967  Biso   1.000  Cu
  Cu3      1.0000 0.24942  0.69482  0.56301  Biso   1.000  Cu
  Cu4      1.0000 0.69482  0.44540  0.39634  Biso   1.000  Cu
  Cu5      1.0000 0.55460  0.24942  0.72967  Biso   1.000  Cu
  Cu6      1.0000 0.75058  0.30518  0.06301  Biso   1.000  Cu
  N1       1.0000 0.25130  0.39190  0.91800  Biso   1.000  N
  N2       1.0000 0.60810  0.85940  0.25133  Biso   1.000  N
  N3       1.0000 0.14060  0.74870  0.58467  Biso   1.000  N
  N4       1.0000 0.74870  0.60810  0.41800  Biso   1.000  N
  N5       1.0000 0.39190  0.14060  0.75133  Biso   1.000  N
  N6       1.0000 0.85940  0.25130  0.08467  Biso   1.000  N
  C1       1.0000 0.32070  0.36610  0.95820  Biso   1.000  C
  C2       1.0000 0.63390  0.95460  0.29153  Biso   1.000  C
  C3       1.0000 0.04540  0.67930  0.62487  Biso   1.000  C
  C4       1.0000 0.67930  0.63390  0.45820  Biso   1.000  C
  C5       1.0000 0.36610  0.04540  0.79153  Biso   1.000  C
  C6       1.0000 0.95460  0.32070  0.12487  Biso   1.000  C
  H1       1.0000 0.39050  0.42500  0.97770  Biso   1.000  H
  H2       1.0000 0.57500  0.96550  0.31103  Biso   1.000  H
  H3       1.0000 0.03450  0.60950  0.64437  Biso   1.000  H
  H4       1.0000 0.60950  0.57500  0.47770  Biso   1.000  H
  H5       1.0000 0.42500  0.03450  0.81103  Biso   1.000  H
  H6       1.0000 0.96550  0.39050  0.14437  Biso   1.000  H
  C7       1.0000 0.29630  0.25850  0.97290  Biso   1.000  C
  C8       1.0000 0.74150  0.03780  0.30623  Biso   1.000  C
  C9       1.0000 0.96220  0.70370  0.63957  Biso   1.000  C
  C10      1.0000 0.70370  0.74150  0.47290  Biso   1.000  C
  C11      1.0000 0.25850  0.96220  0.80623  Biso   1.000  C
  C12      1.0000 0.03780  0.29630  0.13957  Biso   1.000  C
  H7       1.0000 0.34760  0.24320  0.00200  Biso   1.000  H
  H8       1.0000 0.75680  0.10440  0.33533  Biso   1.000  H
  H9       1.0000 0.89560  0.65240  0.66867  Biso   1.000  H
  H10      1.0000 0.65240  0.75680  0.50200  Biso   1.000  H
  H11      1.0000 0.24320  0.89560  0.83533  Biso   1.000  H
  H12      1.0000 0.10440  0.34760  0.16867  Biso   1.000  H
  C13      1.0000 0.19440  0.17270  0.94390  Biso   1.000  C
  C14      1.0000 0.82730  0.02170  0.27723  Biso   1.000  C
  C15      1.0000 0.97830  0.80560  0.61057  Biso   1.000  C
  C16      1.0000 0.80560  0.82730  0.44390  Biso   1.000  C
  C17      1.0000 0.17270  0.97830  0.77723  Biso   1.000  C
  C18      1.0000 0.02170  0.19440  0.11057  Biso   1.000  C
  H13      1.0000 0.17390  0.09720  0.95380  Biso   1.000  H
  H14      1.0000 0.90280  0.07670  0.28713  Biso   1.000  H
  H15      1.0000 0.92330  0.82610  0.62047  Biso   1.000  H
  H16      1.0000 0.82610  0.90280  0.45380  Biso   1.000  H
  H17      1.0000 0.09720  0.92330  0.78713  Biso   1.000  H
  H18      1.0000 0.07670  0.17390  0.12047  Biso   1.000  H
  C19      1.0000 0.12260  0.19940  0.90010  Biso   1.000  C
  C20      1.0000 0.80060  0.92320  0.23343  Biso   1.000  C
  C21      1.0000 0.07680  0.87740  0.56677  Biso   1.000  C
  C22      1.0000 0.87740  0.80060  0.40010  Biso   1.000  C
  C23      1.0000 0.19940  0.07680  0.73343  Biso   1.000  C
  C24      1.0000 0.92320  0.12260  0.06677  Biso   1.000  C
  H19      1.0000 0.05390  0.14230  0.87750  Biso   1.000  H
  H20      1.0000 0.85770  0.91160  0.21083  Biso   1.000  H
  H21      1.0000 0.08840  0.94610  0.54417  Biso   1.000  H
  H22      1.0000 0.94610  0.85770  0.37750  Biso   1.000  H
  H23      1.0000 0.14230  0.08840  0.71083  Biso   1.000  H
  H24      1.0000 0.91160  0.05390  0.04417  Biso   1.000  H
  C25      1.0000 0.15250  0.30930  0.89010  Biso   1.000  C
  C26      1.0000 0.69070  0.84320  0.22343  Biso   1.000  C
  C27      1.0000 0.15680  0.84750  0.55677  Biso   1.000  C
  C28      1.0000 0.84750  0.69070  0.39010  Biso   1.000  C
  C29      1.0000 0.30930  0.15680  0.72343  Biso   1.000  C
  C30      1.0000 0.84320  0.15250  0.05677  Biso   1.000  C
  C31      1.0000 0.07610  0.34040  0.84470  Biso   1.000  C
  C32      1.0000 0.65960  0.73570  0.17803  Biso   1.000  C
  C33      1.0000 0.26430  0.92390  0.51137  Biso   1.000  C
  C34      1.0000 0.92390  0.65960  0.34470  Biso   1.000  C
  C35      1.0000 0.34040  0.26430  0.67803  Biso   1.000  C
  C36      1.0000 0.73570  0.07610  0.01137  Biso   1.000  C
  H25      1.0000 0.05170  0.37780  0.88700  Biso   1.000  H
  H26      1.0000 0.62220  0.67390  0.22033  Biso   1.000  H
  H27      1.0000 0.32610  0.94830  0.55367  Biso   1.000  H
  H28      1.0000 0.94830  0.62220  0.38700  Biso   1.000  H
  H29      1.0000 0.37780  0.32610  0.72033  Biso   1.000  H
  H30      1.0000 0.67390  0.05170  0.05367  Biso   1.000  H
  H31      1.0000 0.00910  0.27170  0.82480  Biso   1.000  H
  H32      1.0000 0.72830  0.73740  0.15813  Biso   1.000  H
  H33      1.0000 0.26260  0.99090  0.49147  Biso   1.000  H
  H34      1.0000 0.99090  0.72830  0.32480  Biso   1.000  H
  H35      1.0000 0.27170  0.26260  0.65813  Biso   1.000  H
  H36      1.0000 0.73740  0.00910  0.99147  Biso   1.000  H
  C37      1.0000 0.12960  0.41730  0.76600  Biso   1.000  C
  C38      1.0000 0.58270  0.71230  0.09933  Biso   1.000  C
  C39      1.0000 0.28770  0.87040  0.43267  Biso   1.000  C
  C40      1.0000 0.87040  0.58270  0.26600  Biso   1.000  C
  C41      1.0000 0.41730  0.28770  0.59933  Biso   1.000  C
  C42      1.0000 0.71230  0.12960  0.93267  Biso   1.000  C
  H37      1.0000 0.16290  0.38480  0.72720  Biso   1.000  H
  H38      1.0000 0.61520  0.77810  0.06053  Biso   1.000  H
  H39      1.0000 0.22190  0.83710  0.39387  Biso   1.000  H
  H40      1.0000 0.83710  0.61520  0.22720  Biso   1.000  H
  H41      1.0000 0.38480  0.22190  0.56053  Biso   1.000  H
  H42      1.0000 0.77810  0.16290  0.89387  Biso   1.000  H
  H43      1.0000 0.07120  0.42250  0.73260  Biso   1.000  H
  H44      1.0000 0.57750  0.64870  0.06593  Biso   1.000  H
  H45      1.0000 0.35130  0.92880  0.39927  Biso   1.000  H
  H46      1.0000 0.92880  0.57750  0.23260  Biso   1.000  H
  H47      1.0000 0.42250  0.35130  0.56593  Biso   1.000  H
  H48      1.0000 0.64870  0.07120  0.89927  Biso   1.000  H
  N7       1.0000 0.21490  0.52820  0.79210  Biso   1.000  N
  N8       1.0000 0.47180  0.68670  0.12543  Biso   1.000  N
  N9       1.0000 0.31330  0.78510  0.45877  Biso   1.000  N
  N10      1.0000 0.78510  0.47180  0.29210  Biso   1.000  N
  N11      1.0000 0.52820  0.31330  0.62543  Biso   1.000  N
  N12      1.0000 0.68670  0.21490  0.95877  Biso   1.000  N
  C43      1.0000 0.24090  0.60790  0.73730  Biso   1.000  C
  C44      1.0000 0.39210  0.63300  0.07063  Biso   1.000  C
  C45      1.0000 0.36700  0.75910  0.40397  Biso   1.000  C
  C46      1.0000 0.75910  0.39210  0.23730  Biso   1.000  C
  C47      1.0000 0.60790  0.36700  0.57063  Biso   1.000  C
  C48      1.0000 0.63300  0.24090  0.90397  Biso   1.000  C
  O1       1.0000 0.19570  0.59460  0.66247  Biso   1.000  O
  O2       1.0000 0.40540  0.60110  0.99580  Biso   1.000  O
  O3       1.0000 0.39890  0.80430  0.32914  Biso   1.000  O
  O4       1.0000 0.80430  0.40540  0.16247  Biso   1.000  O
  O5       1.0000 0.59460  0.39890  0.49580  Biso   1.000  O
  O6       1.0000 0.60110  0.19570  0.82914  Biso   1.000  O
  C49      1.0000 0.33010  0.72350  0.76130  Biso   1.000  C
  C50      1.0000 0.27650  0.60660  0.09463  Biso   1.000  C
  C51      1.0000 0.39340  0.66990  0.42797  Biso   1.000  C
  C52      1.0000 0.66990  0.27650  0.26130  Biso   1.000  C
  C53      1.0000 0.72350  0.39340  0.59463  Biso   1.000  C
  C54      1.0000 0.60660  0.33010  0.92797  Biso   1.000  C
  H49      1.0000 0.31040  0.77800  0.73800  Biso   1.000  H
  H50      1.0000 0.22200  0.53240  0.07133  Biso   1.000  H
  H51      1.0000 0.46760  0.68960  0.40467  Biso   1.000  H
  H52      1.0000 0.68960  0.22200  0.23800  Biso   1.000  H
  H53      1.0000 0.77800  0.46760  0.57133  Biso   1.000  H
  H54      1.0000 0.53240  0.31040  0.90467  Biso   1.000  H
  H55      1.0000 0.40140  0.73920  0.73460  Biso   1.000  H
  H56      1.0000 0.26080  0.66220  0.06793  Biso   1.000  H
  H57      1.0000 0.33780  0.59860  0.40127  Biso   1.000  H
  H58      1.0000 0.59860  0.26080  0.23460  Biso   1.000  H
  H59      1.0000 0.73920  0.33780  0.56793  Biso   1.000  H
  H60      1.0000 0.66220  0.40140  0.90127  Biso   1.000  H
  S1       1.0000 0.34628  0.73883  0.87865  Biso   1.000  S
  S2       1.0000 0.26117  0.60745  0.21198  Biso   1.000  S
  S3       1.0000 0.39255  0.65372  0.54532  Biso   1.000  S
  S4       1.0000 0.65372  0.26117  0.37865  Biso   1.000  S
  S5       1.0000 0.73883  0.39255  0.71198  Biso   1.000  S
  S6       1.0000 0.60745  0.34628  0.04532  Biso   1.000  S
  C55      1.0000 0.49530  0.82290  0.89000  Biso   1.000  C
  C56      1.0000 0.17710  0.67240  0.22333  Biso   1.000  C
  C57      1.0000 0.32760  0.50470  0.55667  Biso   1.000  C
  C58      1.0000 0.50470  0.17710  0.39000  Biso   1.000  C
  C59      1.0000 0.82290  0.32760  0.72333  Biso   1.000  C
  C60      1.0000 0.67240  0.49530  0.05667  Biso   1.000  C
  H61      1.0000 0.52330  0.88580  0.84950  Biso   1.000  H
  H62      1.0000 0.11420  0.63750  0.18283  Biso   1.000  H
  H63      1.0000 0.36250  0.47670  0.51617  Biso   1.000  H
  H64      1.0000 0.47670  0.11420  0.34950  Biso   1.000  H
  H65      1.0000 0.88580  0.36250  0.68283  Biso   1.000  H
  H66      1.0000 0.63750  0.52330  0.01617  Biso   1.000  H
  H67      1.0000 0.52990  0.77790  0.87670  Biso   1.000  H
  H68      1.0000 0.22210  0.75200  0.21003  Biso   1.000  H
  H69      1.0000 0.24800  0.47010  0.54337  Biso   1.000  H
  H70      1.0000 0.47010  0.22210  0.37670  Biso   1.000  H
  H71      1.0000 0.77790  0.24800  0.71003  Biso   1.000  H
  H72      1.0000 0.75200  0.52990  0.04337  Biso   1.000  H
  H73      1.0000 0.51360  0.85070  0.95000  Biso   1.000  H
  H74      1.0000 0.14930  0.66290  0.28333  Biso   1.000  H
  H75      1.0000 0.33710  0.48640  0.61667  Biso   1.000  H
  H76      1.0000 0.48640  0.14930  0.45000  Biso   1.000  H
  H77      1.0000 0.85070  0.33710  0.78333  Biso   1.000  H
  H78      1.0000 0.66290  0.51360  0.11667  Biso   1.000  H
  S7       1.0000 0.55214  0.57412  0.81473  Biso   1.000  S
  S8       1.0000 0.42588  0.97802  0.14806  Biso   1.000  S
  S9       1.0000 0.02198  0.44786  0.48140  Biso   1.000  S
  S10      1.0000 0.44786  0.42588  0.31473  Biso   1.000  S
  S11      1.0000 0.57412  0.02198  0.64806  Biso   1.000  S
  S12      1.0000 0.97802  0.55214  0.98140  Biso   1.000  S
  O7       1.0000 0.45160  0.57900  0.80390  Biso   1.000  O
  O8       1.0000 0.42100  0.87260  0.13723  Biso   1.000  O
  O9       1.0000 0.12740  0.54840  0.47057  Biso   1.000  O
  O10      1.0000 0.54840  0.42100  0.30390  Biso   1.000  O
  O11      1.0000 0.57900  0.12740  0.63723  Biso   1.000  O
  O12      1.0000 0.87260  0.45160  0.97057  Biso   1.000  O
  O13      1.0000 0.53740  0.46460  0.81560  Biso   1.000  O
  O14      1.0000 0.53540  0.07280  0.14893  Biso   1.000  O
  O15      1.0000 0.92720  0.46260  0.48227  Biso   1.000  O
  O16      1.0000 0.46260  0.53540  0.31560  Biso   1.000  O
  O17      1.0000 0.46460  0.92720  0.64893  Biso   1.000  O
  O18      1.0000 0.07280  0.53740  0.98227  Biso   1.000  O
  O19      1.0000 0.62690  0.65160  0.87880  Biso   1.000  O
  O20      1.0000 0.34840  0.97530  0.21213  Biso   1.000  O
  O21      1.0000 0.02470  0.37310  0.54547  Biso   1.000  O
  O22      1.0000 0.37310  0.34840  0.37880  Biso   1.000  O
  O23      1.0000 0.65160  0.02470  0.71213  Biso   1.000  O
  O24      1.0000 0.97530  0.62690  0.04547  Biso   1.000  O
  C61      1.0000 0.62240  0.63040  0.71170  Biso   1.000  C
  C62      1.0000 0.36960  0.99200  0.04503  Biso   1.000  C
  C63      1.0000 0.00800  0.37760  0.37837  Biso   1.000  C
  C64      1.0000 0.37760  0.36960  0.21170  Biso   1.000  C
  C65      1.0000 0.63040  0.00800  0.54503  Biso   1.000  C
  C66      1.0000 0.99200  0.62240  0.87837  Biso   1.000  C
  F1       1.0000 0.72060  0.63820  0.70920  Biso   1.000  F
  F2       1.0000 0.36180  0.08240  0.04253  Biso   1.000  F
  F3       1.0000 0.91760  0.27940  0.37587  Biso   1.000  F
  F4       1.0000 0.27940  0.36180  0.20920  Biso   1.000  F
  F5       1.0000 0.63820  0.91760  0.54253  Biso   1.000  F
  F6       1.0000 0.08240  0.72060  0.87587  Biso   1.000  F
  F7       1.0000 0.63630  0.73090  0.69610  Biso   1.000  F
  F8       1.0000 0.26910  0.90540  0.02943  Biso   1.000  F
  F9       1.0000 0.09460  0.36370  0.36277  Biso   1.000  F
  F10      1.0000 0.36370  0.26910  0.19610  Biso   1.000  F
  F11      1.0000 0.73090  0.09460  0.52943  Biso   1.000  F
  F12      1.0000 0.90540  0.63630  0.86277  Biso   1.000  F
  F13      1.0000 0.56260  0.56690  0.64550  Biso   1.000  F
  F14      1.0000 0.43310  0.99570  0.97883  Biso   1.000  F
  F15      1.0000 0.00430  0.43740  0.31217  Biso   1.000  F
  F16      1.0000 0.43740  0.43310  0.14550  Biso   1.000  F
  F17      1.0000 0.56690  0.00430  0.47883  Biso   1.000  F
  F18      1.0000 0.99570  0.56260  0.81217  Biso   1.000  F
