data_image0
_cell_length_a       9.321
_cell_length_b       14.5689
_cell_length_c       14.994
_cell_angle_alpha    74.502
_cell_angle_beta     78.968
_cell_angle_gamma    72.149

_symmetry_space_group_name_H-M    "P 1"
_symmetry_int_tables_number       1

loop_
  _symmetry_equiv_pos_as_xyz
  'x, y, z'

loop_
  _atom_site_label
  _atom_site_occupancy
  _atom_site_fract_x
  _atom_site_fract_y
  _atom_site_fract_z
  _atom_site_thermal_displace_type
  _atom_site_B_iso_or_equiv
  _atom_site_type_symbol
  Cu1      1.0000 0.00000  0.00000  0.00000  Biso   1.000  Cu
  C1       1.0000 0.63820  0.72570  0.44610  Biso   1.000  C
  C2       1.0000 0.36180  0.27430  0.55390  Biso   1.000  C
  C3       1.0000 0.64400  0.74230  0.35050  Biso   1.000  C
  C4       1.0000 0.35600  0.25770  0.64950  Biso   1.000  C
  H1       1.0000 0.58350  0.71590  0.32510  Biso   1.000  H
  H2       1.0000 0.41650  0.28410  0.67490  Biso   1.000  H
  C5       1.0000 0.73620  0.79650  0.29140  Biso   1.000  C
  C6       1.0000 0.26380  0.20350  0.70860  Biso   1.000  C
  H3       1.0000 0.74220  0.80530  0.22580  Biso   1.000  H
  H4       1.0000 0.25780  0.19470  0.77420  Biso   1.000  H
  C7       1.0000 0.82030  0.83810  0.32830  Biso   1.000  C
  C8       1.0000 0.17970  0.16190  0.67170  Biso   1.000  C
  H5       1.0000 0.88020  0.87800  0.28740  Biso   1.000  H
  H6       1.0000 0.11980  0.12200  0.71260  Biso   1.000  H
  C9       1.0000 0.81860  0.82280  0.42240  Biso   1.000  C
  C10      1.0000 0.18140  0.17720  0.57760  Biso   1.000  C
  C11      1.0000 0.72810  0.76540  0.48160  Biso   1.000  C
  C12      1.0000 0.27190  0.23460  0.51840  Biso   1.000  C
  H7       1.0000 0.72770  0.75310  0.54710  Biso   1.000  H
  H8       1.0000 0.27230  0.24690  0.45290  Biso   1.000  H
  C13      1.0000 0.52980  0.67290  0.51650  Biso   1.000  C
  C14      1.0000 0.47020  0.32710  0.48350  Biso   1.000  C
  C15      1.0000 0.44000  0.63300  0.46640  Biso   1.000  C
  C16      1.0000 0.56000  0.36700  0.53360  Biso   1.000  C
  H9       1.0000 0.37180  0.59970  0.51250  Biso   1.000  H
  H10      1.0000 0.62820  0.40030  0.48750  Biso   1.000  H
  H11      1.0000 0.38030  0.68810  0.42310  Biso   1.000  H
  H12      1.0000 0.61970  0.31190  0.57690  Biso   1.000  H
  H13      1.0000 0.51090  0.58590  0.43160  Biso   1.000  H
  H14      1.0000 0.48910  0.41410  0.56840  Biso   1.000  H
  C17      1.0000 0.41820  0.74940  0.56890  Biso   1.000  C
  C18      1.0000 0.58180  0.25060  0.43110  Biso   1.000  C
  H15      1.0000 0.34730  0.71780  0.61450  Biso   1.000  H
  H16      1.0000 0.65270  0.28220  0.38550  Biso   1.000  H
  H17      1.0000 0.47510  0.77440  0.60130  Biso   1.000  H
  H18      1.0000 0.52490  0.22560  0.39870  Biso   1.000  H
  H19      1.0000 0.36130  0.80440  0.52430  Biso   1.000  H
  H20      1.0000 0.63870  0.19560  0.47570  Biso   1.000  H
  C19      1.0000 0.62040  0.58440  0.58400  Biso   1.000  C
  C20      1.0000 0.37960  0.41560  0.41600  Biso   1.000  C
  C21      1.0000 0.55900  0.55320  0.67510  Biso   1.000  C
  C22      1.0000 0.44100  0.44680  0.32490  Biso   1.000  C
  H21      1.0000 0.46110  0.58950  0.69700  Biso   1.000  H
  H22      1.0000 0.53890  0.41050  0.30300  Biso   1.000  H
  C23      1.0000 0.63590  0.47150  0.73390  Biso   1.000  C
  C24      1.0000 0.36410  0.52850  0.26610  Biso   1.000  C
  H23      1.0000 0.59180  0.45150  0.79600  Biso   1.000  H
  H24      1.0000 0.40820  0.54850  0.20400  Biso   1.000  H
  C25      1.0000 0.78050  0.41730  0.70210  Biso   1.000  C
  C26      1.0000 0.21950  0.58270  0.29790  Biso   1.000  C
  C27      1.0000 0.84230  0.44620  0.61390  Biso   1.000  C
  C28      1.0000 0.15770  0.55380  0.38610  Biso   1.000  C
  H25      1.0000 0.94040  0.40960  0.59260  Biso   1.000  H
  H26      1.0000 0.05960  0.59040  0.40740  Biso   1.000  H
  C29      1.0000 0.76410  0.52890  0.55390  Biso   1.000  C
  C30      1.0000 0.23590  0.47110  0.44610  Biso   1.000  C
  H27      1.0000 0.80870  0.54790  0.49170  Biso   1.000  H
  H28      1.0000 0.19130  0.45210  0.50830  Biso   1.000  H
  O1       1.0000 0.86570  0.33870  0.76450  Biso   1.000  O
  O2       1.0000 0.13430  0.66130  0.23550  Biso   1.000  O
  C31      1.0000 0.91510  0.86250  0.46640  Biso   1.000  C
  C32      1.0000 0.08490  0.13750  0.53360  Biso   1.000  C
  C33      1.0000 0.05570  0.77610  0.49100  Biso   1.000  C
  C34      1.0000 0.94430  0.22390  0.50900  Biso   1.000  C
  H29      1.0000 0.11340  0.75720  0.43380  Biso   1.000  H
  H30      1.0000 0.88660  0.24280  0.56620  Biso   1.000  H
  H31      1.0000 0.11980  0.79650  0.52250  Biso   1.000  H
  H32      1.0000 0.88020  0.20350  0.47750  Biso   1.000  H
  H33      1.0000 0.02360  0.71960  0.53240  Biso   1.000  H
  H34      1.0000 0.97640  0.28040  0.46760  Biso   1.000  H
  C35      1.0000 0.96710  0.94920  0.40060  Biso   1.000  C
  C36      1.0000 0.03290  0.05080  0.59940  Biso   1.000  C
  H35      1.0000 0.02690  0.92840  0.34460  Biso   1.000  H
  H36      1.0000 0.97310  0.07160  0.65540  Biso   1.000  H
  H37      1.0000 0.87810  0.00400  0.38280  Biso   1.000  H
  H38      1.0000 0.12190  0.99600  0.61720  Biso   1.000  H
  H39      1.0000 0.02950  0.97100  0.43200  Biso   1.000  H
  H40      1.0000 0.97050  0.02900  0.56800  Biso   1.000  H
  C37      1.0000 0.82200  0.89440  0.55360  Biso   1.000  C
  C38      1.0000 0.17800  0.10560  0.44640  Biso   1.000  C
  C39      1.0000 0.69170  0.97180  0.54380  Biso   1.000  C
  C40      1.0000 0.30830  0.02820  0.45620  Biso   1.000  C
  H41      1.0000 0.66820  0.00750  0.48300  Biso   1.000  H
  H42      1.0000 0.33180  0.99250  0.51700  Biso   1.000  H
  C41      1.0000 0.59480  0.99870  0.62020  Biso   1.000  C
  C42      1.0000 0.40520  0.00130  0.37980  Biso   1.000  C
  H43      1.0000 0.50660  0.05280  0.61180  Biso   1.000  H
  H44      1.0000 0.49340  0.94720  0.38820  Biso   1.000  H
  C43      1.0000 0.62560  0.94800  0.70620  Biso   1.000  C
  C44      1.0000 0.37440  0.05200  0.29380  Biso   1.000  C
  C45      1.0000 0.75890  0.87210  0.72000  Biso   1.000  C
  C46      1.0000 0.24110  0.12790  0.28000  Biso   1.000  C
  H45      1.0000 0.78350  0.83820  0.78100  Biso   1.000  H
  H46      1.0000 0.21650  0.16180  0.21900  Biso   1.000  H
  C47      1.0000 0.85510  0.84750  0.64140  Biso   1.000  C
  C48      1.0000 0.14490  0.15250  0.35860  Biso   1.000  C
  H47      1.0000 0.94680  0.79630  0.64960  Biso   1.000  H
  H48      1.0000 0.05320  0.20370  0.35040  Biso   1.000  H
  O3       1.0000 0.52640  0.97170  0.78570  Biso   1.000  O
  O4       1.0000 0.47360  0.02830  0.21430  Biso   1.000  O
  C49      1.0000 0.82050  0.25580  0.79740  Biso   1.000  C
  C50      1.0000 0.17950  0.74420  0.20260  Biso   1.000  C
  C51      1.0000 0.90450  0.18510  0.86550  Biso   1.000  C
  C52      1.0000 0.09550  0.81490  0.13450  Biso   1.000  C
  H49      1.0000 0.98410  0.19950  0.88580  Biso   1.000  H
  H50      1.0000 0.01590  0.80050  0.11420  Biso   1.000  H
  C53      1.0000 0.76240  0.08240  0.86890  Biso   1.000  C
  C54      1.0000 0.23760  0.91760  0.13110  Biso   1.000  C
  H51      1.0000 0.73800  0.02090  0.89210  Biso   1.000  H
  H52      1.0000 0.26200  0.97910  0.10790  Biso   1.000  H
  C55      1.0000 0.68030  0.15460  0.80060  Biso   1.000  C
  C56      1.0000 0.31970  0.84540  0.19940  Biso   1.000  C
  H53      1.0000 0.60040  0.14120  0.77970  Biso   1.000  H
  H54      1.0000 0.39960  0.85880  0.22030  Biso   1.000  H
  N1       1.0000 0.71130  0.24080  0.76450  Biso   1.000  N
  N2       1.0000 0.28870  0.75920  0.23550  Biso   1.000  N
  N3       1.0000 0.87440  0.09830  0.90210  Biso   1.000  N
  N4       1.0000 0.12560  0.90170  0.09790  Biso   1.000  N
  C57      1.0000 0.39830  0.94260  0.80420  Biso   1.000  C
  C58      1.0000 0.60170  0.05740  0.19580  Biso   1.000  C
  C59      1.0000 0.29450  0.97410  0.87810  Biso   1.000  C
  C60      1.0000 0.70550  0.02590  0.12190  Biso   1.000  C
  H55      1.0000 0.31800  0.01140  0.91380  Biso   1.000  H
  H56      1.0000 0.68200  0.98860  0.08620  Biso   1.000  H
  C61      1.0000 0.13520  0.89510  0.84890  Biso   1.000  C
  C62      1.0000 0.86480  0.10490  0.15110  Biso   1.000  C
  H57      1.0000 0.04110  0.87890  0.86040  Biso   1.000  H
  H58      1.0000 0.95890  0.12110  0.13960  Biso   1.000  H
  C63      1.0000 0.24410  0.86140  0.78250  Biso   1.000  C
  C64      1.0000 0.75590  0.13860  0.21750  Biso   1.000  C
  H59      1.0000 0.22500  0.81780  0.75180  Biso   1.000  H
  H60      1.0000 0.77500  0.18220  0.24820  Biso   1.000  H
  N5       1.0000 0.37650  0.88470  0.75660  Biso   1.000  N
  N6       1.0000 0.62350  0.11530  0.24340  Biso   1.000  N
  N7       1.0000 0.16070  0.95080  0.89810  Biso   1.000  N
  N8       1.0000 0.83930  0.04920  0.10190  Biso   1.000  N
  Cl1      1.0000 0.76510  0.80910  0.01120  Biso   1.000  Cl
  Cl2      1.0000 0.23490  0.19090  0.98880  Biso   1.000  Cl
  O5       1.0000 0.60840  0.85650  0.02100  Biso   1.000  O
  O6       1.0000 0.39160  0.14350  0.97900  Biso   1.000  O
  O7       1.0000 0.86210  0.87500  0.99630  Biso   1.000  O
  O8       1.0000 0.13790  0.12500  0.00370  Biso   1.000  O
  O9       1.0000 0.81280  0.76960  0.93170  Biso   1.000  O
  O10      1.0000 0.18720  0.23040  0.06830  Biso   1.000  O
  O11      1.0000 0.78040  0.73980  0.09270  Biso   1.000  O
  O12      1.0000 0.21960  0.26020  0.90730  Biso   1.000  O
  Cl3      1.0000 0.58400  0.75330  0.03370  Biso   1.000  Cl
  Cl4      1.0000 0.41600  0.24670  0.96630  Biso   1.000  Cl
  O13      1.0000 0.61440  0.69060  0.12060  Biso   1.000  O
  O14      1.0000 0.38560  0.30940  0.87940  Biso   1.000  O
  O15      1.0000 0.43330  0.76720  0.01630  Biso   1.000  O
  O16      1.0000 0.56670  0.23280  0.98370  Biso   1.000  O
  O17      1.0000 0.68920  0.71440  0.96180  Biso   1.000  O
  O18      1.0000 0.31080  0.28560  0.03820  Biso   1.000  O
  O19      1.0000 0.14620  0.64150  0.76510  Biso   1.000  O
  O20      1.0000 0.85380  0.35850  0.23490  Biso   1.000  O
  C65      1.0000 0.10130  0.56990  0.78480  Biso   1.000  C
  C66      1.0000 0.89870  0.43010  0.21520  Biso   1.000  C
  C67      1.0000 0.97100  0.55360  0.84070  Biso   1.000  C
  C68      1.0000 0.02900  0.44640  0.15930  Biso   1.000  C
  H61      1.0000 0.97660  0.55510  0.90480  Biso   1.000  H
  H62      1.0000 0.02340  0.44490  0.09520  Biso   1.000  H
  H63      1.0000 0.96160  0.48880  0.83930  Biso   1.000  H
  H64      1.0000 0.03840  0.51120  0.16070  Biso   1.000  H
  H65      1.0000 0.88220  0.60530  0.81740  Biso   1.000  H
  H66      1.0000 0.11780  0.39470  0.18260  Biso   1.000  H
  C69      1.0000 0.16310  0.48790  0.72830  Biso   1.000  C
  C70      1.0000 0.83690  0.51210  0.27170  Biso   1.000  C
  H67      1.0000 0.25990  0.49440  0.69150  Biso   1.000  H
  H68      1.0000 0.74010  0.50560  0.30850  Biso   1.000  H
  H69      1.0000 0.08980  0.49480  0.68640  Biso   1.000  H
  H70      1.0000 0.91020  0.50520  0.31360  Biso   1.000  H
  H71      1.0000 0.17860  0.42280  0.77120  Biso   1.000  H
  H72      1.0000 0.82140  0.57720  0.22880  Biso   1.000  H
  O21      1.0000 0.38220  0.63450  0.02220  Biso   1.000  O
  O22      1.0000 0.61780  0.36550  0.97780  Biso   1.000  O
  C71      1.0000 0.50300  0.62980  0.98540  Biso   1.000  C
  C72      1.0000 0.49700  0.37020  0.01460  Biso   1.000  C
  C73      1.0000 0.53500  0.66800  0.89300  Biso   1.000  C
  C74      1.0000 0.46500  0.33200  0.10700  Biso   1.000  C
  H73      1.0000 0.55010  0.73310  0.88430  Biso   1.000  H
  H74      1.0000 0.44990  0.26690  0.11570  Biso   1.000  H
  H75      1.0000 0.44970  0.67330  0.86030  Biso   1.000  H
  H76      1.0000 0.55030  0.32670  0.13970  Biso   1.000  H
  H77      1.0000 0.62690  0.62360  0.86790  Biso   1.000  H
  H78      1.0000 0.37310  0.37640  0.13210  Biso   1.000  H
  C75      1.0000 0.64400  0.56900  0.02600  Biso   1.000  C
  C76      1.0000 0.35600  0.43100  0.97400  Biso   1.000  C
  H79      1.0000 0.73210  0.58390  0.98420  Biso   1.000  H
  H80      1.0000 0.26790  0.41610  0.01580  Biso   1.000  H
  H81      1.0000 0.65050  0.49850  0.03540  Biso   1.000  H
  H82      1.0000 0.34950  0.50150  0.96460  Biso   1.000  H
  H83      1.0000 0.64270  0.58350  0.08660  Biso   1.000  H
  H84      1.0000 0.35730  0.41650  0.91340  Biso   1.000  H
  O23      1.0000 0.10120  0.70130  0.95010  Biso   1.000  O
  O24      1.0000 0.89880  0.29870  0.04990  Biso   1.000  O
  H85      1.0000 0.18990  0.69220  0.96670  Biso   1.000  H
  H86      1.0000 0.81010  0.30780  0.03330  Biso   1.000  H
  H87      1.0000 0.09380  0.64600  0.94210  Biso   1.000  H
  H88      1.0000 0.90620  0.35400  0.05790  Biso   1.000  H
