data_image0
_cell_length_a       7.179
_cell_length_b       19.629
_cell_length_c       9.921
_cell_angle_alpha    90
_cell_angle_beta     108.21
_cell_angle_gamma    90

_symmetry_space_group_name_H-M    "P 1"
_symmetry_int_tables_number       1

loop_
  _symmetry_equiv_pos_as_xyz
  'x, y, z'

loop_
  _atom_site_label
  _atom_site_occupancy
  _atom_site_fract_x
  _atom_site_fract_y
  _atom_site_fract_z
  _atom_site_thermal_displace_type
  _atom_site_B_iso_or_equiv
  _atom_site_type_symbol
  Cu1      1.0000 0.94065  0.23647  0.41171  Biso   1.000  Cu
  Cu2      1.0000 0.55935  0.73647  0.58829  Biso   1.000  Cu
  Cu3      1.0000 0.05935  0.76353  0.58829  Biso   1.000  Cu
  Cu4      1.0000 0.44065  0.26353  0.41171  Biso   1.000  Cu
  O1       1.0000 0.89600  0.32572  0.46390  Biso   1.000  O
  O2       1.0000 0.60400  0.82572  0.53610  Biso   1.000  O
  O3       1.0000 0.10400  0.67428  0.53610  Biso   1.000  O
  O4       1.0000 0.39600  0.17428  0.46390  Biso   1.000  O
  C1       1.0000 0.94120  0.35042  0.59350  Biso   1.000  C
  C2       1.0000 0.55880  0.85042  0.40650  Biso   1.000  C
  C3       1.0000 0.05880  0.64958  0.40650  Biso   1.000  C
  C4       1.0000 0.44120  0.14958  0.59350  Biso   1.000  C
  N1       1.0000 0.94360  0.20168  0.59970  Biso   1.000  N
  N2       1.0000 0.55640  0.70168  0.40030  Biso   1.000  N
  N3       1.0000 0.05640  0.79832  0.40030  Biso   1.000  N
  N4       1.0000 0.44360  0.29832  0.59970  Biso   1.000  N
  C5       1.0000 0.94400  0.12658  0.60240  Biso   1.000  C
  C6       1.0000 0.55600  0.62658  0.39760  Biso   1.000  C
  C7       1.0000 0.05600  0.87342  0.39760  Biso   1.000  C
  C8       1.0000 0.44400  0.37342  0.60240  Biso   1.000  C
  C9       1.0000 0.97430  0.23567  0.71710  Biso   1.000  C
  C10      1.0000 0.52570  0.73567  0.28290  Biso   1.000  C
  C11      1.0000 0.02570  0.76433  0.28290  Biso   1.000  C
  C12      1.0000 0.47430  0.26433  0.71710  Biso   1.000  C
  C13      1.0000 0.94870  0.42249  0.60670  Biso   1.000  C
  C14      1.0000 0.55130  0.92249  0.39330  Biso   1.000  C
  C15      1.0000 0.05130  0.57751  0.39330  Biso   1.000  C
  C16      1.0000 0.44870  0.07751  0.60670  Biso   1.000  C
  N5       1.0000 0.94870  0.32372  0.19920  Biso   1.000  N
  N6       1.0000 0.55130  0.82372  0.80080  Biso   1.000  N
  N7       1.0000 0.05130  0.67628  0.80080  Biso   1.000  N
  N8       1.0000 0.44870  0.17628  0.19920  Biso   1.000  N
  C17      1.0000 0.91170  0.11700  0.21360  Biso   1.000  C
  C18      1.0000 0.58830  0.61700  0.78640  Biso   1.000  C
  C19      1.0000 0.08830  0.88300  0.78640  Biso   1.000  C
  C20      1.0000 0.41170  0.38300  0.21360  Biso   1.000  C
  C21      1.0000 0.97600  0.31065  0.71750  Biso   1.000  C
  C22      1.0000 0.52400  0.81065  0.28250  Biso   1.000  C
  C23      1.0000 0.02400  0.68935  0.28250  Biso   1.000  C
  C24      1.0000 0.47600  0.18935  0.71750  Biso   1.000  C
  C25      1.0000 0.01380  0.34620  0.84790  Biso   1.000  C
  C26      1.0000 0.48620  0.84620  0.15210  Biso   1.000  C
  C27      1.0000 0.98620  0.65380  0.15210  Biso   1.000  C
  C28      1.0000 0.51380  0.15380  0.84790  Biso   1.000  C
  C29      1.0000 0.01500  0.19860  0.85660  Biso   1.000  C
  C30      1.0000 0.48500  0.69860  0.14340  Biso   1.000  C
  C31      1.0000 0.98500  0.80140  0.14340  Biso   1.000  C
  C32      1.0000 0.51500  0.30140  0.85660  Biso   1.000  C
  C33      1.0000 0.98830  0.45420  0.73500  Biso   1.000  C
  C34      1.0000 0.51170  0.95420  0.26500  Biso   1.000  C
  C35      1.0000 0.01170  0.54580  0.26500  Biso   1.000  C
  C36      1.0000 0.48830  0.04580  0.73500  Biso   1.000  C
  N9       1.0000 0.88400  0.37390  0.14780  Biso   1.000  N
  N10      1.0000 0.61600  0.87390  0.85220  Biso   1.000  N
  N11      1.0000 0.11600  0.62610  0.85220  Biso   1.000  N
  N12      1.0000 0.38400  0.12610  0.14780  Biso   1.000  N
  C37      1.0000 0.87290  0.10018  0.45130  Biso   1.000  C
  C38      1.0000 0.62710  0.60018  0.54870  Biso   1.000  C
  C39      1.0000 0.12710  0.89982  0.54870  Biso   1.000  C
  C40      1.0000 0.37290  0.39982  0.45130  Biso   1.000  C
  C41      1.0000 0.96720  0.04490  0.18870  Biso   1.000  C
  C42      1.0000 0.53280  0.54490  0.81130  Biso   1.000  C
  C43      1.0000 0.03280  0.95510  0.81130  Biso   1.000  C
  C44      1.0000 0.46720  0.45510  0.18870  Biso   1.000  C
  C45      1.0000 0.01980  0.41560  0.85740  Biso   1.000  C
  C46      1.0000 0.48020  0.91560  0.14260  Biso   1.000  C
  C47      1.0000 0.98020  0.58440  0.14260  Biso   1.000  C
  C48      1.0000 0.51980  0.08440  0.85740  Biso   1.000  C
  N13      1.0000 0.97080  0.13813  0.36370  Biso   1.000  N
  N14      1.0000 0.52920  0.63813  0.63630  Biso   1.000  N
  N15      1.0000 0.02920  0.86187  0.63630  Biso   1.000  N
  N16      1.0000 0.47080  0.36187  0.36370  Biso   1.000  N
  N17      1.0000 0.02240  0.27099  0.25100  Biso   1.000  N
  N18      1.0000 0.47760  0.77099  0.74900  Biso   1.000  N
  N19      1.0000 0.97760  0.72901  0.74900  Biso   1.000  N
  N20      1.0000 0.52240  0.22901  0.25100  Biso   1.000  N
  H1       1.0000 0.92200  0.44710  0.51800  Biso   1.000  H
  H2       1.0000 0.57800  0.94710  0.48200  Biso   1.000  H
  H3       1.0000 0.07800  0.55290  0.48200  Biso   1.000  H
  H4       1.0000 0.42200  0.05290  0.51800  Biso   1.000  H
  H5       1.0000 0.99100  0.49700  0.73200  Biso   1.000  H
  H6       1.0000 0.50900  0.99700  0.26800  Biso   1.000  H
  H7       1.0000 0.00900  0.50300  0.26800  Biso   1.000  H
  H8       1.0000 0.49100  0.00300  0.73200  Biso   1.000  H
  H9       1.0000 0.04000  0.43900  0.94600  Biso   1.000  H
  H10      1.0000 0.46000  0.93900  0.05400  Biso   1.000  H
  H11      1.0000 0.96000  0.56100  0.05400  Biso   1.000  H
  H12      1.0000 0.54000  0.06100  0.94600  Biso   1.000  H
  H13      1.0000 0.03000  0.32100  0.92900  Biso   1.000  H
  H14      1.0000 0.47000  0.82100  0.07100  Biso   1.000  H
  H15      1.0000 0.97000  0.67900  0.07100  Biso   1.000  H
  H16      1.0000 0.53000  0.17900  0.92900  Biso   1.000  H
  H17      1.0000 0.89400  0.04800  0.46000  Biso   1.000  H
  H18      1.0000 0.60600  0.54800  0.54000  Biso   1.000  H
  H19      1.0000 0.10600  0.95200  0.54000  Biso   1.000  H
  H20      1.0000 0.39400  0.45200  0.46000  Biso   1.000  H
  H21      1.0000 0.73200  0.10800  0.41500  Biso   1.000  H
  H22      1.0000 0.76800  0.60800  0.58500  Biso   1.000  H
  H23      1.0000 0.26800  0.89200  0.58500  Biso   1.000  H
  H24      1.0000 0.23200  0.39200  0.41500  Biso   1.000  H
  H25      1.0000 0.86000  0.11100  0.66300  Biso   1.000  H
  H26      1.0000 0.64000  0.61100  0.33700  Biso   1.000  H
  H27      1.0000 0.14000  0.88900  0.33700  Biso   1.000  H
  H28      1.0000 0.36000  0.38900  0.66300  Biso   1.000  H
  H29      1.0000 0.96600  0.14500  0.16900  Biso   1.000  H
  H30      1.0000 0.53400  0.64500  0.83100  Biso   1.000  H
  H31      1.0000 0.03400  0.85500  0.83100  Biso   1.000  H
  H32      1.0000 0.46600  0.35500  0.16900  Biso   1.000  H
  H33      1.0000 0.92100  0.02900  0.08700  Biso   1.000  H
  H34      1.0000 0.57900  0.52900  0.91300  Biso   1.000  H
  H35      1.0000 0.07900  0.97100  0.91300  Biso   1.000  H
  H36      1.0000 0.42100  0.47100  0.08700  Biso   1.000  H
  H37      1.0000 0.07700  0.10900  0.65200  Biso   1.000  H
  H38      1.0000 0.42300  0.60900  0.34800  Biso   1.000  H
  H39      1.0000 0.92300  0.89100  0.34800  Biso   1.000  H
  H40      1.0000 0.57700  0.39100  0.65200  Biso   1.000  H
  H41      1.0000 0.76900  0.12100  0.18300  Biso   1.000  H
  H42      1.0000 0.73100  0.62100  0.81700  Biso   1.000  H
  H43      1.0000 0.23100  0.87900  0.81700  Biso   1.000  H
  H44      1.0000 0.26900  0.37900  0.18300  Biso   1.000  H
  H45      1.0000 0.09000  0.12800  0.39700  Biso   1.000  H
  H46      1.0000 0.41000  0.62800  0.60300  Biso   1.000  H
  H47      1.0000 0.91000  0.87200  0.60300  Biso   1.000  H
  H48      1.0000 0.59000  0.37200  0.39700  Biso   1.000  H
  H49      1.0000 0.11200  0.03900  0.23300  Biso   1.000  H
  H50      1.0000 0.38800  0.53900  0.76700  Biso   1.000  H
  H51      1.0000 0.88800  0.96100  0.76700  Biso   1.000  H
  H52      1.0000 0.61200  0.46100  0.23300  Biso   1.000  H
  H53      1.0000 0.90500  0.01000  0.23500  Biso   1.000  H
  H54      1.0000 0.59500  0.51000  0.76500  Biso   1.000  H
  H55      1.0000 0.09500  0.99000  0.76500  Biso   1.000  H
  H56      1.0000 0.40500  0.49000  0.23500  Biso   1.000  H
  H57      1.0000 0.11800  0.16800  0.88000  Biso   1.000  H
  H58      1.0000 0.38200  0.66800  0.12000  Biso   1.000  H
  H59      1.0000 0.88200  0.83200  0.12000  Biso   1.000  H
  H60      1.0000 0.61800  0.33200  0.88000  Biso   1.000  H
  H61      1.0000 0.93900  0.22400  0.91500  Biso   1.000  H
  H62      1.0000 0.56100  0.72400  0.08500  Biso   1.000  H
  H63      1.0000 0.06100  0.77600  0.08500  Biso   1.000  H
  H64      1.0000 0.43900  0.27600  0.91500  Biso   1.000  H
  H65      1.0000 0.91500  0.16600  0.85300  Biso   1.000  H
  H66      1.0000 0.58500  0.66600  0.14700  Biso   1.000  H
  H67      1.0000 0.08500  0.83400  0.14700  Biso   1.000  H
  H68      1.0000 0.41500  0.33400  0.85300  Biso   1.000  H
