data_image0
_cell_length_a       9.2744
_cell_length_b       9.7625
_cell_length_c       16.032
_cell_angle_alpha    102.195
_cell_angle_beta     90.155
_cell_angle_gamma    110.701

_symmetry_space_group_name_H-M    "P 1"
_symmetry_int_tables_number       1

loop_
  _symmetry_equiv_pos_as_xyz
  'x, y, z'

loop_
  _atom_site_label
  _atom_site_occupancy
  _atom_site_fract_x
  _atom_site_fract_y
  _atom_site_fract_z
  _atom_site_thermal_displace_type
  _atom_site_B_iso_or_equiv
  _atom_site_type_symbol
  Cu1      1.0000 0.24524  0.98368  0.25019  Biso   1.000  Cu
  Cu2      1.0000 0.75476  0.01632  0.74981  Biso   1.000  Cu
  O1       1.0000 0.30412  0.20386  0.26051  Biso   1.000  O
  O2       1.0000 0.69588  0.79614  0.73949  Biso   1.000  O
  O3       1.0000 0.95680  0.27390  0.04706  Biso   1.000  O
  O4       1.0000 0.04320  0.72610  0.95294  Biso   1.000  O
  H1       1.0000 0.95700  0.36200  0.06230  Biso   1.000  H
  H2       1.0000 0.04300  0.63800  0.93770  Biso   1.000  H
  H3       1.0000 0.00000  0.25600  0.08910  Biso   1.000  H
  H4       1.0000 0.00000  0.74400  0.91090  Biso   1.000  H
  O5       1.0000 0.11960  0.21230  0.17432  Biso   1.000  O
  O6       1.0000 0.88040  0.78770  0.82568  Biso   1.000  O
  O7       1.0000 0.52980  0.27060  0.52184  Biso   1.000  O
  O8       1.0000 0.47020  0.72940  0.47816  Biso   1.000  O
  H5       1.0000 0.55400  0.26700  0.57310  Biso   1.000  H
  H6       1.0000 0.44600  0.73300  0.42690  Biso   1.000  H
  H7       1.0000 0.46600  0.31600  0.52630  Biso   1.000  H
  H8       1.0000 0.53400  0.68400  0.47370  Biso   1.000  H
  O9       1.0000 0.36980  0.75390  0.32089  Biso   1.000  O
  O10      1.0000 0.63020  0.24610  0.67911  Biso   1.000  O
  O11      1.0000 0.95670  0.56610  0.10339  Biso   1.000  O
  O12      1.0000 0.04330  0.43390  0.89661  Biso   1.000  O
  H9       1.0000 0.02600  0.63600  0.14420  Biso   1.000  H
  H10      1.0000 0.97400  0.36400  0.85580  Biso   1.000  H
  H11      1.0000 0.88700  0.54000  0.13880  Biso   1.000  H
  H12      1.0000 0.11300  0.46000  0.86120  Biso   1.000  H
  O13      1.0000 0.18430  0.76092  0.23481  Biso   1.000  O
  O14      1.0000 0.81570  0.23908  0.76519  Biso   1.000  O
  O15      1.0000 0.60920  0.39600  0.33018  Biso   1.000  O
  O16      1.0000 0.39080  0.60400  0.66982  Biso   1.000  O
  H13      1.0000 0.51300  0.33800  0.31920  Biso   1.000  H
  H14      1.0000 0.48700  0.66200  0.68080  Biso   1.000  H
  H15      1.0000 0.63500  0.44900  0.29070  Biso   1.000  H
  H16      1.0000 0.36500  0.55100  0.70930  Biso   1.000  H
  O17      1.0000 0.07790  0.91850  0.11466  Biso   1.000  O
  O18      1.0000 0.92210  0.08150  0.88534  Biso   1.000  O
  O19      1.0000 0.31640  0.47880  0.81039  Biso   1.000  O
  O20      1.0000 0.68360  0.52120  0.18961  Biso   1.000  O
  H17      1.0000 0.38900  0.52300  0.85630  Biso   1.000  H
  H18      1.0000 0.61100  0.47700  0.14370  Biso   1.000  H
  H19      1.0000 0.22600  0.48600  0.82200  Biso   1.000  H
  H20      1.0000 0.77400  0.51400  0.17800  Biso   1.000  H
  O21      1.0000 0.38220  0.03866  0.38449  Biso   1.000  O
  O22      1.0000 0.61780  0.96134  0.61551  Biso   1.000  O
  O23      1.0000 0.32850  0.42060  0.50634  Biso   1.000  O
  O24      1.0000 0.67150  0.57940  0.49366  Biso   1.000  O
  H21      1.0000 0.34800  0.47300  0.56180  Biso   1.000  H
  H22      1.0000 0.65200  0.52700  0.43820  Biso   1.000  H
  H23      1.0000 0.22300  0.39300  0.49900  Biso   1.000  H
  H24      1.0000 0.77700  0.60700  0.50100  Biso   1.000  H
  N1       1.0000 0.43410  0.98480  0.18657  Biso   1.000  N
  N2       1.0000 0.56590  0.01520  0.81343  Biso   1.000  N
  N3       1.0000 0.05220  0.97622  0.31022  Biso   1.000  N
  N4       1.0000 0.94780  0.02378  0.68978  Biso   1.000  N
  N5       1.0000 0.49180  0.62460  0.96966  Biso   1.000  N
  N6       1.0000 0.50820  0.37540  0.03034  Biso   1.000  N
  N7       1.0000 0.00900  0.35322  0.49505  Biso   1.000  N
  N8       1.0000 0.99100  0.64678  0.50495  Biso   1.000  N
  C1       1.0000 0.57900  0.06550  0.22089  Biso   1.000  C
  C2       1.0000 0.42100  0.93450  0.77911  Biso   1.000  C
  H25      1.0000 0.59480  0.12840  0.27670  Biso   1.000  H
  H26      1.0000 0.40520  0.87160  0.72330  Biso   1.000  H
  C3       1.0000 0.91540  0.86730  0.28038  Biso   1.000  C
  C4       1.0000 0.08460  0.13270  0.71962  Biso   1.000  C
  H27      1.0000 0.91030  0.79370  0.22990  Biso   1.000  H
  H28      1.0000 0.08970  0.20630  0.77010  Biso   1.000  H
  C5       1.0000 0.70620  0.05990  0.17765  Biso   1.000  C
  C6       1.0000 0.29380  0.94010  0.82235  Biso   1.000  C
  H29      1.0000 0.80760  0.11840  0.20360  Biso   1.000  H
  H30      1.0000 0.19240  0.88160  0.79640  Biso   1.000  H
  C7       1.0000 0.78200  0.85820  0.32034  Biso   1.000  C
  C8       1.0000 0.21800  0.14180  0.67966  Biso   1.000  C
  H31      1.0000 0.68710  0.77850  0.29840  Biso   1.000  H
  H32      1.0000 0.31290  0.22150  0.70160  Biso   1.000  H
  C9       1.0000 0.68550  0.96920  0.09678  Biso   1.000  C
  C10      1.0000 0.31450  0.03080  0.90322  Biso   1.000  C
  H33      1.0000 0.77220  0.96470  0.06640  Biso   1.000  H
  H34      1.0000 0.22780  0.03530  0.93360  Biso   1.000  H
  C11      1.0000 0.78810  0.96640  0.39242  Biso   1.000  C
  C12      1.0000 0.21190  0.03360  0.60758  Biso   1.000  C
  H35      1.0000 0.69670  0.96280  0.42000  Biso   1.000  H
  H36      1.0000 0.30330  0.03720  0.58000  Biso   1.000  H
  C13      1.0000 0.53650  0.88460  0.06027  Biso   1.000  C
  C14      1.0000 0.46350  0.11540  0.93973  Biso   1.000  C
  C15      1.0000 0.92800  0.08090  0.42476  Biso   1.000  C
  C16      1.0000 0.07200  0.91910  0.57524  Biso   1.000  C
  C17      1.0000 0.41530  0.89690  0.10809  Biso   1.000  C
  C18      1.0000 0.58470  0.10310  0.89191  Biso   1.000  C
  H37      1.0000 0.31270  0.83930  0.08350  Biso   1.000  H
  H38      1.0000 0.68730  0.16070  0.91650  Biso   1.000  H
  C19      1.0000 0.05800  0.08070  0.38104  Biso   1.000  C
  C20      1.0000 0.94200  0.91930  0.61896  Biso   1.000  C
  H39      1.0000 0.15490  0.15800  0.40230  Biso   1.000  H
  H40      1.0000 0.84510  0.84200  0.59770  Biso   1.000  H
  C21      1.0000 0.50240  0.77970  0.97225  Biso   1.000  C
  C22      1.0000 0.49760  0.22030  0.02775  Biso   1.000  C
  H41      1.0000 0.40350  0.77570  0.94650  Biso   1.000  H
  H42      1.0000 0.59650  0.22430  0.05350  Biso   1.000  H
  H43      1.0000 0.58450  0.82350  0.93590  Biso   1.000  H
  H44      1.0000 0.41550  0.17650  0.06410  Biso   1.000  H
  C23      1.0000 0.93860  0.19740  0.50555  Biso   1.000  C
  C24      1.0000 0.06140  0.80260  0.49445  Biso   1.000  C
  H45      1.0000 0.83330  0.18100  0.52420  Biso   1.000  H
  H46      1.0000 0.16670  0.81900  0.47580  Biso   1.000  H
  H47      1.0000 0.00050  0.18350  0.55130  Biso   1.000  H
  H48      1.0000 0.99950  0.81650  0.44870  Biso   1.000  H
  C25      1.0000 0.37740  0.55040  0.02446  Biso   1.000  C
  C26      1.0000 0.62260  0.44960  0.97554  Biso   1.000  C
  H49      1.0000 0.27670  0.55800  0.01100  Biso   1.000  H
  H50      1.0000 0.72330  0.44200  0.98900  Biso   1.000  H
  H51      1.0000 0.41160  0.60090  0.08530  Biso   1.000  H
  H52      1.0000 0.58840  0.39910  0.91470  Biso   1.000  H
  C27      1.0000 0.92190  0.38170  0.42844  Biso   1.000  C
  C28      1.0000 0.07810  0.61830  0.57156  Biso   1.000  C
  H53      1.0000 0.81290  0.35810  0.44200  Biso   1.000  H
  H54      1.0000 0.18710  0.64190  0.55800  Biso   1.000  H
  H55      1.0000 0.92330  0.31570  0.37250  Biso   1.000  H
  H56      1.0000 0.07670  0.68430  0.62750  Biso   1.000  H
  C29      1.0000 0.64080  0.61350  0.99002  Biso   1.000  C
  C30      1.0000 0.35920  0.38650  0.00998  Biso   1.000  C
  H57      1.0000 0.67780  0.66470  0.05050  Biso   1.000  H
  H58      1.0000 0.32220  0.33530  0.94950  Biso   1.000  H
  H59      1.0000 0.71820  0.66360  0.95320  Biso   1.000  H
  H60      1.0000 0.28180  0.33640  0.04680  Biso   1.000  H
  C31      1.0000 0.00740  0.45530  0.57710  Biso   1.000  C
  C32      1.0000 0.99260  0.54470  0.42290  Biso   1.000  C
  H61      1.0000 0.06610  0.43780  0.62290  Biso   1.000  H
  H62      1.0000 0.93390  0.56220  0.37710  Biso   1.000  H
  H63      1.0000 0.89940  0.43300  0.59240  Biso   1.000  H
  H64      1.0000 0.10060  0.56700  0.40760  Biso   1.000  H
  C33      1.0000 0.23040  0.27350  0.22988  Biso   1.000  C
  C34      1.0000 0.76960  0.72650  0.77012  Biso   1.000  C
  C35      1.0000 0.28750  0.44190  0.26764  Biso   1.000  C
  C36      1.0000 0.71250  0.55810  0.73236  Biso   1.000  C
  H65      1.0000 0.28240  0.45900  0.33050  Biso   1.000  H
  H66      1.0000 0.71760  0.54100  0.66950  Biso   1.000  H
  H67      1.0000 0.39740  0.48680  0.25650  Biso   1.000  H
  H68      1.0000 0.60260  0.51320  0.74350  Biso   1.000  H
  C37      1.0000 0.19670  0.52230  0.23230  Biso   1.000  C
  C38      1.0000 0.80330  0.47770  0.76770  Biso   1.000  C
  H69      1.0000 0.08770  0.48030  0.24570  Biso   1.000  H
  H70      1.0000 0.91230  0.51970  0.75430  Biso   1.000  H
  H71      1.0000 0.19770  0.50120  0.16920  Biso   1.000  H
  H72      1.0000 0.80230  0.49880  0.83080  Biso   1.000  H
  C39      1.0000 0.25750  0.69210  0.26697  Biso   1.000  C
  C40      1.0000 0.74250  0.30790  0.73303  Biso   1.000  C
