data_image0
_cell_length_a       8.1552
_cell_length_b       9.8677
_cell_length_c       12.223
_cell_angle_alpha    89.282
_cell_angle_beta     77.056
_cell_angle_gamma    76.592

_symmetry_space_group_name_H-M    "P 1"
_symmetry_int_tables_number       1

loop_
  _symmetry_equiv_pos_as_xyz
  'x, y, z'

loop_
  _atom_site_label
  _atom_site_occupancy
  _atom_site_fract_x
  _atom_site_fract_y
  _atom_site_fract_z
  _atom_site_thermal_displace_type
  _atom_site_B_iso_or_equiv
  _atom_site_type_symbol
  Cu1      1.0000 0.25402  0.95935  0.25459  Biso   1.000  Cu
  Cu2      1.0000 0.74598  0.04065  0.74541  Biso   1.000  Cu
  Cu3      1.0000 0.20839  0.24491  0.25200  Biso   1.000  Cu
  Cu4      1.0000 0.79161  0.75509  0.74800  Biso   1.000  Cu
  O1       1.0000 0.18450  0.21310  0.09754  Biso   1.000  O
  O2       1.0000 0.81550  0.78690  0.90246  Biso   1.000  O
  O3       1.0000 0.21260  0.98160  0.10243  Biso   1.000  O
  O4       1.0000 0.78740  0.01840  0.89757  Biso   1.000  O
  O5       1.0000 0.50390  0.05270  0.80713  Biso   1.000  O
  O6       1.0000 0.49610  0.94730  0.19287  Biso   1.000  O
  O7       1.0000 0.53800  0.82130  0.79919  Biso   1.000  O
  O8       1.0000 0.46200  0.17870  0.20081  Biso   1.000  O
  O9       1.0000 0.22110  0.21050  0.40845  Biso   1.000  O
  O10      1.0000 0.77890  0.78950  0.59155  Biso   1.000  O
  O11      1.0000 0.28870  0.97680  0.40672  Biso   1.000  O
  O12      1.0000 0.71130  0.02320  0.59328  Biso   1.000  O
  O13      1.0000 0.84570  0.27080  0.70430  Biso   1.000  O
  O14      1.0000 0.15430  0.72920  0.29570  Biso   1.000  O
  O15      1.0000 0.98300  0.05060  0.68591  Biso   1.000  O
  O16      1.0000 0.01700  0.94940  0.31409  Biso   1.000  O
  O17      1.0000 0.24210  0.45110  0.23783  Biso   1.000  O
  O18      1.0000 0.75790  0.54890  0.76217  Biso   1.000  O
  H1       1.0000 0.18400  0.53300  0.26500  Biso   1.000  H
  H2       1.0000 0.81600  0.46700  0.73500  Biso   1.000  H
  H3       1.0000 0.33800  0.46800  0.20000  Biso   1.000  H
  H4       1.0000 0.66200  0.53200  0.80000  Biso   1.000  H
  N1       1.0000 0.94940  0.31340  0.29884  Biso   1.000  N
  N2       1.0000 0.05060  0.68660  0.70116  Biso   1.000  N
  N3       1.0000 0.53120  0.52220  0.10930  Biso   1.000  N
  N4       1.0000 0.46880  0.47780  0.89070  Biso   1.000  N
  C1       1.0000 0.87330  0.40970  0.23670  Biso   1.000  C
  C2       1.0000 0.12670  0.59030  0.76330  Biso   1.000  C
  H5       1.0000 0.94480  0.44170  0.17420  Biso   1.000  H
  H6       1.0000 0.05520  0.55830  0.82580  Biso   1.000  H
  C3       1.0000 0.69720  0.46560  0.25790  Biso   1.000  C
  C4       1.0000 0.30280  0.53440  0.74210  Biso   1.000  C
  C5       1.0000 0.59400  0.41710  0.34930  Biso   1.000  C
  C6       1.0000 0.40600  0.58290  0.65070  Biso   1.000  C
  H7       1.0000 0.47210  0.45230  0.36690  Biso   1.000  H
  H8       1.0000 0.52790  0.54770  0.63310  Biso   1.000  H
  C7       1.0000 0.67070  0.31730  0.41410  Biso   1.000  C
  C8       1.0000 0.32930  0.68270  0.58590  Biso   1.000  C
  H9       1.0000 0.60200  0.28300  0.47660  Biso   1.000  H
  H10      1.0000 0.39800  0.71700  0.52340  Biso   1.000  H
  C9       1.0000 0.84870  0.26760  0.38690  Biso   1.000  C
  C10      1.0000 0.15130  0.73240  0.61310  Biso   1.000  C
  H11      1.0000 0.90110  0.19920  0.43190  Biso   1.000  H
  H12      1.0000 0.09890  0.80080  0.56810  Biso   1.000  H
  C11      1.0000 0.62210  0.57580  0.18400  Biso   1.000  C
  C12      1.0000 0.37790  0.42420  0.81600  Biso   1.000  C
  H13      1.0000 0.54030  0.65370  0.23220  Biso   1.000  H
  H14      1.0000 0.45970  0.34630  0.76780  Biso   1.000  H
  H15      1.0000 0.71670  0.61320  0.13790  Biso   1.000  H
  H16      1.0000 0.28330  0.38680  0.86210  Biso   1.000  H
  C13      1.0000 0.44670  0.63780  0.04850  Biso   1.000  C
  C14      1.0000 0.55330  0.36220  0.95150  Biso   1.000  C
  H17      1.0000 0.45210  0.73240  0.05540  Biso   1.000  H
  H18      1.0000 0.54790  0.26760  0.94460  Biso   1.000  H
  C15      1.0000 0.65060  0.41760  0.02710  Biso   1.000  C
  C16      1.0000 0.34940  0.58240  0.97290  Biso   1.000  C
  H19      1.0000 0.77170  0.38840  0.02160  Biso   1.000  H
  H20      1.0000 0.22830  0.61160  0.97840  Biso   1.000  H
  C17      1.0000 0.19060  0.09610  0.05430  Biso   1.000  C
  C18      1.0000 0.80940  0.90390  0.94570  Biso   1.000  C
  C19      1.0000 0.16350  0.09530  0.93570  Biso   1.000  C
  C20      1.0000 0.83650  0.90470  0.06430  Biso   1.000  C
  H21      1.0000 0.20510  0.17340  0.89630  Biso   1.000  H
  H22      1.0000 0.79490  0.82660  0.10370  Biso   1.000  H
  H23      1.0000 0.03780  0.11250  0.93950  Biso   1.000  H
  H24      1.0000 0.96220  0.88750  0.06050  Biso   1.000  H
  C21      1.0000 0.25430  0.96090  0.86620  Biso   1.000  C
  C22      1.0000 0.74570  0.03910  0.13380  Biso   1.000  C
  H25      1.0000 0.23520  0.88100  0.91310  Biso   1.000  H
  H26      1.0000 0.76480  0.11900  0.08690  Biso   1.000  H
  H27      1.0000 0.19980  0.95760  0.80190  Biso   1.000  H
  H28      1.0000 0.80020  0.04240  0.19810  Biso   1.000  H
  C23      1.0000 0.44720  0.94310  0.82140  Biso   1.000  C
  C24      1.0000 0.55280  0.05690  0.17860  Biso   1.000  C
  C25      1.0000 0.26510  0.09590  0.45260  Biso   1.000  C
  C26      1.0000 0.73490  0.90410  0.54740  Biso   1.000  C
  C27      1.0000 0.29410  0.10380  0.57020  Biso   1.000  C
  C28      1.0000 0.70590  0.89620  0.42980  Biso   1.000  C
  H29      1.0000 0.40920  0.12310  0.56590  Biso   1.000  H
  H30      1.0000 0.59080  0.87690  0.43410  Biso   1.000  H
  H31      1.0000 0.29400  0.01240  0.60460  Biso   1.000  H
  H32      1.0000 0.70600  0.98760  0.39540  Biso   1.000  H
  C29      1.0000 0.15640  0.21610  0.64460  Biso   1.000  C
  C30      1.0000 0.84360  0.78390  0.35540  Biso   1.000  C
  H33      1.0000 0.14240  0.30390  0.60380  Biso   1.000  H
  H34      1.0000 0.85760  0.69610  0.39620  Biso   1.000  H
  H35      1.0000 0.19660  0.23290  0.71280  Biso   1.000  H
  H36      1.0000 0.80340  0.76710  0.28720  Biso   1.000  H
  C31      1.0000 0.98120  0.17980  0.68010  Biso   1.000  C
  C32      1.0000 0.01880  0.82020  0.31990  Biso   1.000  C
