data_image0
_cell_length_a       9.0903
_cell_length_b       20.8366
_cell_length_c       16.6015
_cell_angle_alpha    90
_cell_angle_beta     96.581
_cell_angle_gamma    90

_symmetry_space_group_name_H-M    "P 1"
_symmetry_int_tables_number       1

loop_
  _symmetry_equiv_pos_as_xyz
  'x, y, z'

loop_
  _atom_site_label
  _atom_site_occupancy
  _atom_site_fract_x
  _atom_site_fract_y
  _atom_site_fract_z
  _atom_site_thermal_displace_type
  _atom_site_B_iso_or_equiv
  _atom_site_type_symbol
  Cu1      1.0000 0.00000  0.49419  0.75000  Biso   1.000  Cu
  Cu2      1.0000 0.50000  0.99419  0.75000  Biso   1.000  Cu
  Cu3      1.0000 0.00000  0.50581  0.25000  Biso   1.000  Cu
  Cu4      1.0000 0.50000  0.00581  0.25000  Biso   1.000  Cu
  O1       1.0000 0.79490  0.49650  0.69702  Biso   1.000  O
  O2       1.0000 0.20510  0.49650  0.80298  Biso   1.000  O
  O3       1.0000 0.29490  0.99650  0.69702  Biso   1.000  O
  O4       1.0000 0.70510  0.99650  0.80298  Biso   1.000  O
  O5       1.0000 0.20510  0.50350  0.30298  Biso   1.000  O
  O6       1.0000 0.79490  0.50350  0.19702  Biso   1.000  O
  O7       1.0000 0.70510  0.00350  0.30298  Biso   1.000  O
  O8       1.0000 0.29490  0.00350  0.19702  Biso   1.000  O
  O9       1.0000 0.47820  0.36464  0.45510  Biso   1.000  O
  O10      1.0000 0.52180  0.36464  0.04490  Biso   1.000  O
  O11      1.0000 0.97820  0.86464  0.45510  Biso   1.000  O
  O12      1.0000 0.02180  0.86464  0.04490  Biso   1.000  O
  O13      1.0000 0.52180  0.63536  0.54490  Biso   1.000  O
  O14      1.0000 0.47820  0.63536  0.95510  Biso   1.000  O
  O15      1.0000 0.02180  0.13536  0.54490  Biso   1.000  O
  O16      1.0000 0.97820  0.13536  0.95510  Biso   1.000  O
  H1       1.0000 0.39600  0.34090  0.45700  Biso   1.000  H
  H2       1.0000 0.60400  0.34090  0.04300  Biso   1.000  H
  H3       1.0000 0.89600  0.84090  0.45700  Biso   1.000  H
  H4       1.0000 0.10400  0.84090  0.04300  Biso   1.000  H
  H5       1.0000 0.60400  0.65910  0.54300  Biso   1.000  H
  H6       1.0000 0.39600  0.65910  0.95700  Biso   1.000  H
  H7       1.0000 0.10400  0.15910  0.54300  Biso   1.000  H
  H8       1.0000 0.89600  0.15910  0.95700  Biso   1.000  H
  H9       1.0000 0.55720  0.34240  0.47330  Biso   1.000  H
  H10      1.0000 0.44280  0.34240  0.02670  Biso   1.000  H
  H11      1.0000 0.05720  0.84240  0.47330  Biso   1.000  H
  H12      1.0000 0.94280  0.84240  0.02670  Biso   1.000  H
  H13      1.0000 0.44280  0.65760  0.52670  Biso   1.000  H
  H14      1.0000 0.55720  0.65760  0.97330  Biso   1.000  H
  H15      1.0000 0.94280  0.15760  0.52670  Biso   1.000  H
  H16      1.0000 0.05720  0.15760  0.97330  Biso   1.000  H
  O17      1.0000 0.80940  0.39340  0.71000  Biso   1.000  O
  O18      1.0000 0.19060  0.39340  0.79000  Biso   1.000  O
  O19      1.0000 0.30940  0.89340  0.71000  Biso   1.000  O
  O20      1.0000 0.69060  0.89340  0.79000  Biso   1.000  O
  O21      1.0000 0.19060  0.60660  0.29000  Biso   1.000  O
  O22      1.0000 0.80940  0.60660  0.21000  Biso   1.000  O
  O23      1.0000 0.69060  0.10660  0.29000  Biso   1.000  O
  O24      1.0000 0.30940  0.10660  0.21000  Biso   1.000  O
  O25      1.0000 0.00000  0.61750  0.75000  Biso   1.000  O
  O26      1.0000 0.50000  0.11750  0.75000  Biso   1.000  O
  O27      1.0000 0.00000  0.38250  0.25000  Biso   1.000  O
  O28      1.0000 0.50000  0.88250  0.25000  Biso   1.000  O
  H17      1.0000 0.93600  0.59060  0.72400  Biso   1.000  H
  H18      1.0000 0.06400  0.59060  0.77600  Biso   1.000  H
  H19      1.0000 0.43600  0.09060  0.72400  Biso   1.000  H
  H20      1.0000 0.56400  0.09060  0.77600  Biso   1.000  H
  H21      1.0000 0.06400  0.40940  0.27600  Biso   1.000  H
  H22      1.0000 0.93600  0.40940  0.22400  Biso   1.000  H
  H23      1.0000 0.56400  0.90940  0.27600  Biso   1.000  H
  H24      1.0000 0.43600  0.90940  0.22400  Biso   1.000  H
  O29      1.0000 0.80080  0.68680  0.79840  Biso   1.000  O
  O30      1.0000 0.19920  0.68680  0.70160  Biso   1.000  O
  O31      1.0000 0.30080  0.18680  0.79840  Biso   1.000  O
  O32      1.0000 0.69920  0.18680  0.70160  Biso   1.000  O
  O33      1.0000 0.19920  0.31320  0.20160  Biso   1.000  O
  O34      1.0000 0.80080  0.31320  0.29840  Biso   1.000  O
  O35      1.0000 0.69920  0.81320  0.20160  Biso   1.000  O
  O36      1.0000 0.30080  0.81320  0.29840  Biso   1.000  O
  O37      1.0000 0.89210  0.27510  0.75110  Biso   1.000  O
  O38      1.0000 0.10790  0.27510  0.74890  Biso   1.000  O
  O39      1.0000 0.39210  0.77510  0.75110  Biso   1.000  O
  O40      1.0000 0.60790  0.77510  0.74890  Biso   1.000  O
  O41      1.0000 0.10790  0.72490  0.24890  Biso   1.000  O
  O42      1.0000 0.89210  0.72490  0.25110  Biso   1.000  O
  O43      1.0000 0.60790  0.22490  0.24890  Biso   1.000  O
  O44      1.0000 0.39210  0.22490  0.25110  Biso   1.000  O
  O45      1.0000 0.81030  0.26690  0.67270  Biso   1.000  O
  O46      1.0000 0.18970  0.26690  0.82730  Biso   1.000  O
  O47      1.0000 0.31030  0.76690  0.67270  Biso   1.000  O
  O48      1.0000 0.68970  0.76690  0.82730  Biso   1.000  O
  O49      1.0000 0.18970  0.73310  0.32730  Biso   1.000  O
  O50      1.0000 0.81030  0.73310  0.17270  Biso   1.000  O
  O51      1.0000 0.68970  0.23310  0.32730  Biso   1.000  O
  O52      1.0000 0.31030  0.23310  0.17270  Biso   1.000  O
  O53      1.0000 0.60030  0.59730  0.69640  Biso   1.000  O
  O54      1.0000 0.39970  0.59730  0.80360  Biso   1.000  O
  O55      1.0000 0.10030  0.09730  0.69640  Biso   1.000  O
  O56      1.0000 0.89970  0.09730  0.80360  Biso   1.000  O
  O57      1.0000 0.39970  0.40270  0.30360  Biso   1.000  O
  O58      1.0000 0.60030  0.40270  0.19640  Biso   1.000  O
  O59      1.0000 0.89970  0.90270  0.30360  Biso   1.000  O
  O60      1.0000 0.10030  0.90270  0.19640  Biso   1.000  O
  O61      1.0000 0.85000  0.34600  0.70600  Biso   1.000  O
  O62      1.0000 0.15000  0.34600  0.79400  Biso   1.000  O
  O63      1.0000 0.35000  0.84600  0.70600  Biso   1.000  O
  O64      1.0000 0.65000  0.84600  0.79400  Biso   1.000  O
  O65      1.0000 0.15000  0.65400  0.29400  Biso   1.000  O
  O66      1.0000 0.85000  0.65400  0.20600  Biso   1.000  O
  O67      1.0000 0.65000  0.15400  0.29400  Biso   1.000  O
  O68      1.0000 0.35000  0.15400  0.20600  Biso   1.000  O
  O69      1.0000 0.63800  0.62980  0.71690  Biso   1.000  O
  O70      1.0000 0.36200  0.62980  0.78310  Biso   1.000  O
  O71      1.0000 0.13800  0.12980  0.71690  Biso   1.000  O
  O72      1.0000 0.86200  0.12980  0.78310  Biso   1.000  O
  O73      1.0000 0.36200  0.37020  0.28310  Biso   1.000  O
  O74      1.0000 0.63800  0.37020  0.21690  Biso   1.000  O
  O75      1.0000 0.86200  0.87020  0.28310  Biso   1.000  O
  O76      1.0000 0.13800  0.87020  0.21690  Biso   1.000  O
  O77      1.0000 0.75000  0.25000  0.50000  Biso   1.000  O
  O78      1.0000 0.25000  0.25000  0.00000  Biso   1.000  O
  O79      1.0000 0.25000  0.75000  0.50000  Biso   1.000  O
  O80      1.0000 0.75000  0.75000  0.00000  Biso   1.000  O
  N1       1.0000 0.08660  0.48530  0.64302  Biso   1.000  N
  N2       1.0000 0.91340  0.48530  0.85698  Biso   1.000  N
  N3       1.0000 0.58660  0.98530  0.64302  Biso   1.000  N
  N4       1.0000 0.41340  0.98530  0.85698  Biso   1.000  N
  N5       1.0000 0.91340  0.51470  0.35698  Biso   1.000  N
  N6       1.0000 0.08660  0.51470  0.14302  Biso   1.000  N
  N7       1.0000 0.41340  0.01470  0.35698  Biso   1.000  N
  N8       1.0000 0.58660  0.01470  0.14302  Biso   1.000  N
  N9       1.0000 0.20220  0.31555  0.48533  Biso   1.000  N
  N10      1.0000 0.79780  0.31555  0.01467  Biso   1.000  N
  N11      1.0000 0.70220  0.81555  0.48533  Biso   1.000  N
  N12      1.0000 0.29780  0.81555  0.01467  Biso   1.000  N
  N13      1.0000 0.79780  0.68445  0.51467  Biso   1.000  N
  N14      1.0000 0.20220  0.68445  0.98533  Biso   1.000  N
  N15      1.0000 0.29780  0.18445  0.51467  Biso   1.000  N
  N16      1.0000 0.70220  0.18445  0.98533  Biso   1.000  N
  C1       1.0000 0.73960  0.44260  0.69180  Biso   1.000  C
  C2       1.0000 0.26040  0.44260  0.80820  Biso   1.000  C
  C3       1.0000 0.23960  0.94260  0.69180  Biso   1.000  C
  C4       1.0000 0.76040  0.94260  0.80820  Biso   1.000  C
  C5       1.0000 0.26040  0.55740  0.30820  Biso   1.000  C
  C6       1.0000 0.73960  0.55740  0.19180  Biso   1.000  C
  C7       1.0000 0.76040  0.05740  0.30820  Biso   1.000  C
  C8       1.0000 0.23960  0.05740  0.19180  Biso   1.000  C
  C9       1.0000 0.57460  0.43550  0.66370  Biso   1.000  C
  C10      1.0000 0.42540  0.43550  0.83630  Biso   1.000  C
  C11      1.0000 0.07460  0.93550  0.66370  Biso   1.000  C
  C12      1.0000 0.92540  0.93550  0.83630  Biso   1.000  C
  C13      1.0000 0.42540  0.56450  0.33630  Biso   1.000  C
  C14      1.0000 0.57460  0.56450  0.16370  Biso   1.000  C
  C15      1.0000 0.92540  0.06450  0.33630  Biso   1.000  C
  C16      1.0000 0.07460  0.06450  0.16370  Biso   1.000  C
  H25      1.0000 0.52730  0.47800  0.66840  Biso   1.000  H
  H26      1.0000 0.47270  0.47800  0.83160  Biso   1.000  H
  H27      1.0000 0.02730  0.97800  0.66840  Biso   1.000  H
  H28      1.0000 0.97270  0.97800  0.83160  Biso   1.000  H
  H29      1.0000 0.47270  0.52200  0.33160  Biso   1.000  H
  H30      1.0000 0.52730  0.52200  0.16840  Biso   1.000  H
  H31      1.0000 0.97270  0.02200  0.33160  Biso   1.000  H
  H32      1.0000 0.02730  0.02200  0.16840  Biso   1.000  H
  H33      1.0000 0.56340  0.42400  0.60550  Biso   1.000  H
  H34      1.0000 0.43660  0.42400  0.89450  Biso   1.000  H
  H35      1.0000 0.06340  0.92400  0.60550  Biso   1.000  H
  H36      1.0000 0.93660  0.92400  0.89450  Biso   1.000  H
  H37      1.0000 0.43660  0.57600  0.39450  Biso   1.000  H
  H38      1.0000 0.56340  0.57600  0.10550  Biso   1.000  H
  H39      1.0000 0.93660  0.07600  0.39450  Biso   1.000  H
  H40      1.0000 0.06340  0.07600  0.10550  Biso   1.000  H
  C17      1.0000 0.49500  0.39010  0.70500  Biso   1.000  C
  C18      1.0000 0.50500  0.39010  0.79500  Biso   1.000  C
  C19      1.0000 0.99500  0.89010  0.70500  Biso   1.000  C
  C20      1.0000 0.00500  0.89010  0.79500  Biso   1.000  C
  C21      1.0000 0.50500  0.60990  0.29500  Biso   1.000  C
  C22      1.0000 0.49500  0.60990  0.20500  Biso   1.000  C
  C23      1.0000 0.00500  0.10990  0.29500  Biso   1.000  C
  C24      1.0000 0.99500  0.10990  0.20500  Biso   1.000  C
  H41      1.0000 0.52580  0.34700  0.68830  Biso   1.000  H
  H42      1.0000 0.47420  0.34700  0.81170  Biso   1.000  H
  H43      1.0000 0.02580  0.84700  0.68830  Biso   1.000  H
  H44      1.0000 0.97420  0.84700  0.81170  Biso   1.000  H
  H45      1.0000 0.47420  0.65300  0.31170  Biso   1.000  H
  H46      1.0000 0.52580  0.65300  0.18830  Biso   1.000  H
  H47      1.0000 0.97420  0.15300  0.31170  Biso   1.000  H
  H48      1.0000 0.02580  0.15300  0.18830  Biso   1.000  H
  H49      1.0000 0.38900  0.39490  0.68430  Biso   1.000  H
  H50      1.0000 0.61100  0.39490  0.81570  Biso   1.000  H
  H51      1.0000 0.88900  0.89490  0.68430  Biso   1.000  H
  H52      1.0000 0.11100  0.89490  0.81570  Biso   1.000  H
  H53      1.0000 0.61100  0.60510  0.31570  Biso   1.000  H
  H54      1.0000 0.38900  0.60510  0.18430  Biso   1.000  H
  H55      1.0000 0.11100  0.10510  0.31570  Biso   1.000  H
  H56      1.0000 0.88900  0.10510  0.18430  Biso   1.000  H
  C25      1.0000 0.18380  0.52850  0.62080  Biso   1.000  C
  C26      1.0000 0.81620  0.52850  0.87920  Biso   1.000  C
  C27      1.0000 0.68380  0.02850  0.62080  Biso   1.000  C
  C28      1.0000 0.31620  0.02850  0.87920  Biso   1.000  C
  C29      1.0000 0.81620  0.47150  0.37920  Biso   1.000  C
  C30      1.0000 0.18380  0.47150  0.12080  Biso   1.000  C
  C31      1.0000 0.31620  0.97150  0.37920  Biso   1.000  C
  C32      1.0000 0.68380  0.97150  0.12080  Biso   1.000  C
  H57      1.0000 0.20550  0.56520  0.65410  Biso   1.000  H
  H58      1.0000 0.79450  0.56520  0.84590  Biso   1.000  H
  H59      1.0000 0.70550  0.06520  0.65410  Biso   1.000  H
  H60      1.0000 0.29450  0.06520  0.84590  Biso   1.000  H
  H61      1.0000 0.79450  0.43480  0.34590  Biso   1.000  H
  H62      1.0000 0.20550  0.43480  0.15410  Biso   1.000  H
  H63      1.0000 0.29450  0.93480  0.34590  Biso   1.000  H
  H64      1.0000 0.70550  0.93480  0.15410  Biso   1.000  H
  C33      1.0000 0.25330  0.52210  0.55210  Biso   1.000  C
  C34      1.0000 0.74670  0.52210  0.94790  Biso   1.000  C
  C35      1.0000 0.75330  0.02210  0.55210  Biso   1.000  C
  C36      1.0000 0.24670  0.02210  0.94790  Biso   1.000  C
  C37      1.0000 0.74670  0.47790  0.44790  Biso   1.000  C
  C38      1.0000 0.25330  0.47790  0.05210  Biso   1.000  C
  C39      1.0000 0.24670  0.97790  0.44790  Biso   1.000  C
  C40      1.0000 0.75330  0.97790  0.05210  Biso   1.000  C
  H65      1.0000 0.32230  0.55340  0.53860  Biso   1.000  H
  H66      1.0000 0.67770  0.55340  0.96140  Biso   1.000  H
  H67      1.0000 0.82230  0.05340  0.53860  Biso   1.000  H
  H68      1.0000 0.17770  0.05340  0.96140  Biso   1.000  H
  H69      1.0000 0.67770  0.44660  0.46140  Biso   1.000  H
  H70      1.0000 0.32230  0.44660  0.03860  Biso   1.000  H
  H71      1.0000 0.17770  0.94660  0.46140  Biso   1.000  H
  H72      1.0000 0.82230  0.94660  0.03860  Biso   1.000  H
  C41      1.0000 0.22130  0.46960  0.50320  Biso   1.000  C
  C42      1.0000 0.77870  0.46960  0.99680  Biso   1.000  C
  C43      1.0000 0.72130  0.96960  0.50320  Biso   1.000  C
  C44      1.0000 0.27870  0.96960  0.99680  Biso   1.000  C
  C45      1.0000 0.77870  0.53040  0.49680  Biso   1.000  C
  C46      1.0000 0.22130  0.53040  0.00320  Biso   1.000  C
  C47      1.0000 0.27870  0.03040  0.49680  Biso   1.000  C
  C48      1.0000 0.72130  0.03040  0.00320  Biso   1.000  C
  H73      1.0000 0.26670  0.46470  0.45480  Biso   1.000  H
  H74      1.0000 0.73330  0.46470  0.04520  Biso   1.000  H
  H75      1.0000 0.76670  0.96470  0.45480  Biso   1.000  H
  H76      1.0000 0.23330  0.96470  0.04520  Biso   1.000  H
  H77      1.0000 0.73330  0.53530  0.54520  Biso   1.000  H
  H78      1.0000 0.26670  0.53530  0.95480  Biso   1.000  H
  H79      1.0000 0.23330  0.03530  0.54520  Biso   1.000  H
  H80      1.0000 0.76670  0.03530  0.95480  Biso   1.000  H
  C49      1.0000 0.12190  0.42360  0.52500  Biso   1.000  C
  C50      1.0000 0.87810  0.42360  0.97500  Biso   1.000  C
  C51      1.0000 0.62190  0.92360  0.52500  Biso   1.000  C
  C52      1.0000 0.37810  0.92360  0.97500  Biso   1.000  C
  C53      1.0000 0.87810  0.57640  0.47500  Biso   1.000  C
  C54      1.0000 0.12190  0.57640  0.02500  Biso   1.000  C
  C55      1.0000 0.37810  0.07640  0.47500  Biso   1.000  C
  C56      1.0000 0.62190  0.07640  0.02500  Biso   1.000  C
  C57      1.0000 0.05730  0.43430  0.59570  Biso   1.000  C
  C58      1.0000 0.94270  0.43430  0.90430  Biso   1.000  C
  C59      1.0000 0.55730  0.93430  0.59570  Biso   1.000  C
  C60      1.0000 0.44270  0.93430  0.90430  Biso   1.000  C
  C61      1.0000 0.94270  0.56570  0.40430  Biso   1.000  C
  C62      1.0000 0.05730  0.56570  0.09570  Biso   1.000  C
  C63      1.0000 0.44270  0.06570  0.40430  Biso   1.000  C
  C64      1.0000 0.55730  0.06570  0.09570  Biso   1.000  C
  H81      1.0000 0.98860  0.40360  0.61100  Biso   1.000  H
  H82      1.0000 0.01140  0.40360  0.88900  Biso   1.000  H
  H83      1.0000 0.48860  0.90360  0.61100  Biso   1.000  H
  H84      1.0000 0.51140  0.90360  0.88900  Biso   1.000  H
  H85      1.0000 0.01140  0.59640  0.38900  Biso   1.000  H
  H86      1.0000 0.98860  0.59640  0.11100  Biso   1.000  H
  H87      1.0000 0.51140  0.09640  0.38900  Biso   1.000  H
  H88      1.0000 0.48860  0.09640  0.11100  Biso   1.000  H
  C65      1.0000 0.08530  0.36520  0.47360  Biso   1.000  C
  C66      1.0000 0.91470  0.36520  0.02640  Biso   1.000  C
  C67      1.0000 0.58530  0.86520  0.47360  Biso   1.000  C
  C68      1.0000 0.41470  0.86520  0.02640  Biso   1.000  C
  C69      1.0000 0.91470  0.63480  0.52640  Biso   1.000  C
  C70      1.0000 0.08530  0.63480  0.97360  Biso   1.000  C
  C71      1.0000 0.41470  0.13480  0.52640  Biso   1.000  C
  C72      1.0000 0.58530  0.13480  0.97360  Biso   1.000  C
  H89      1.0000 0.99090  0.34680  0.48720  Biso   1.000  H
  H90      1.0000 0.00910  0.34680  0.01280  Biso   1.000  H
  H91      1.0000 0.49090  0.84680  0.48720  Biso   1.000  H
  H92      1.0000 0.50910  0.84680  0.01280  Biso   1.000  H
  H93      1.0000 0.00910  0.65320  0.51280  Biso   1.000  H
  H94      1.0000 0.99090  0.65320  0.98720  Biso   1.000  H
  H95      1.0000 0.50910  0.15320  0.51280  Biso   1.000  H
  H96      1.0000 0.49090  0.15320  0.98720  Biso   1.000  H
  H97      1.0000 0.07120  0.37800  0.41580  Biso   1.000  H
  H98      1.0000 0.92880  0.37800  0.08420  Biso   1.000  H
  H99      1.0000 0.57120  0.87800  0.41580  Biso   1.000  H
  H100     1.0000 0.42880  0.87800  0.08420  Biso   1.000  H
  H101     1.0000 0.92880  0.62200  0.58420  Biso   1.000  H
  H102     1.0000 0.07120  0.62200  0.91580  Biso   1.000  H
  H103     1.0000 0.42880  0.12200  0.58420  Biso   1.000  H
  H104     1.0000 0.57120  0.12200  0.91580  Biso   1.000  H
  C73      1.0000 0.20770  0.28560  0.56600  Biso   1.000  C
  C74      1.0000 0.79230  0.28560  0.93400  Biso   1.000  C
  C75      1.0000 0.70770  0.78560  0.56600  Biso   1.000  C
  C76      1.0000 0.29230  0.78560  0.93400  Biso   1.000  C
  C77      1.0000 0.79230  0.71440  0.43400  Biso   1.000  C
  C78      1.0000 0.20770  0.71440  0.06600  Biso   1.000  C
  C79      1.0000 0.29230  0.21440  0.43400  Biso   1.000  C
  C80      1.0000 0.70770  0.21440  0.06600  Biso   1.000  C
  H105     1.0000 0.11070  0.26570  0.57210  Biso   1.000  H
  H106     1.0000 0.88930  0.26570  0.92790  Biso   1.000  H
  H107     1.0000 0.61070  0.76570  0.57210  Biso   1.000  H
  H108     1.0000 0.38930  0.76570  0.92790  Biso   1.000  H
  H109     1.0000 0.88930  0.73430  0.42790  Biso   1.000  H
  H110     1.0000 0.11070  0.73430  0.07210  Biso   1.000  H
  H111     1.0000 0.38930  0.23430  0.42790  Biso   1.000  H
  H112     1.0000 0.61070  0.23430  0.07210  Biso   1.000  H
  H113     1.0000 0.22740  0.31890  0.60830  Biso   1.000  H
  H114     1.0000 0.77260  0.31890  0.89170  Biso   1.000  H
  H115     1.0000 0.72740  0.81890  0.60830  Biso   1.000  H
  H116     1.0000 0.27260  0.81890  0.89170  Biso   1.000  H
  H117     1.0000 0.77260  0.68110  0.39170  Biso   1.000  H
  H118     1.0000 0.22740  0.68110  0.10830  Biso   1.000  H
  H119     1.0000 0.27260  0.18110  0.39170  Biso   1.000  H
  H120     1.0000 0.72740  0.18110  0.10830  Biso   1.000  H
  C81      1.0000 0.17300  0.26490  0.42290  Biso   1.000  C
  C82      1.0000 0.82700  0.26490  0.07710  Biso   1.000  C
  C83      1.0000 0.67300  0.76490  0.42290  Biso   1.000  C
  C84      1.0000 0.32700  0.76490  0.07710  Biso   1.000  C
  C85      1.0000 0.82700  0.73510  0.57710  Biso   1.000  C
  C86      1.0000 0.17300  0.73510  0.92290  Biso   1.000  C
  C87      1.0000 0.32700  0.23510  0.57710  Biso   1.000  C
  C88      1.0000 0.67300  0.23510  0.92290  Biso   1.000  C
  H121     1.0000 0.07540  0.24490  0.42740  Biso   1.000  H
  H122     1.0000 0.92460  0.24490  0.07260  Biso   1.000  H
  H123     1.0000 0.57540  0.74490  0.42740  Biso   1.000  H
  H124     1.0000 0.42460  0.74490  0.07260  Biso   1.000  H
  H125     1.0000 0.92460  0.75510  0.57260  Biso   1.000  H
  H126     1.0000 0.07540  0.75510  0.92740  Biso   1.000  H
  H127     1.0000 0.42460  0.25510  0.57260  Biso   1.000  H
  H128     1.0000 0.57540  0.25510  0.92740  Biso   1.000  H
  H129     1.0000 0.17040  0.28410  0.36820  Biso   1.000  H
  H130     1.0000 0.82960  0.28410  0.13180  Biso   1.000  H
  H131     1.0000 0.67040  0.78410  0.36820  Biso   1.000  H
  H132     1.0000 0.32960  0.78410  0.13180  Biso   1.000  H
  H133     1.0000 0.82960  0.71590  0.63180  Biso   1.000  H
  H134     1.0000 0.17040  0.71590  0.86820  Biso   1.000  H
  H135     1.0000 0.32960  0.21590  0.63180  Biso   1.000  H
  H136     1.0000 0.67040  0.21590  0.86820  Biso   1.000  H
  O81      1.0000 0.78000  0.18690  0.45820  Biso   1.000  O
  O82      1.0000 0.22000  0.18690  0.04180  Biso   1.000  O
  O83      1.0000 0.28000  0.68690  0.45820  Biso   1.000  O
  O84      1.0000 0.72000  0.68690  0.04180  Biso   1.000  O
  O85      1.0000 0.22000  0.81310  0.54180  Biso   1.000  O
  O86      1.0000 0.78000  0.81310  0.95820  Biso   1.000  O
  O87      1.0000 0.72000  0.31310  0.54180  Biso   1.000  O
  O88      1.0000 0.28000  0.31310  0.95820  Biso   1.000  O
  O89      1.0000 0.77870  0.20810  0.53690  Biso   1.000  O
  O90      1.0000 0.22130  0.20810  0.96310  Biso   1.000  O
  O91      1.0000 0.27870  0.70810  0.53690  Biso   1.000  O
  O92      1.0000 0.72130  0.70810  0.96310  Biso   1.000  O
  O93      1.0000 0.22130  0.79190  0.46310  Biso   1.000  O
  O94      1.0000 0.77870  0.79190  0.03690  Biso   1.000  O
  O95      1.0000 0.72130  0.29190  0.46310  Biso   1.000  O
  O96      1.0000 0.27870  0.29190  0.03690  Biso   1.000  O
