data_image0
_cell_length_a       11.4419
_cell_length_b       8.1571
_cell_length_c       14.8381
_cell_angle_alpha    90
_cell_angle_beta     108.324
_cell_angle_gamma    90

_symmetry_space_group_name_H-M    "P 1"
_symmetry_int_tables_number       1

loop_
  _symmetry_equiv_pos_as_xyz
  'x, y, z'

loop_
  _atom_site_label
  _atom_site_occupancy
  _atom_site_fract_x
  _atom_site_fract_y
  _atom_site_fract_z
  _atom_site_thermal_displace_type
  _atom_site_B_iso_or_equiv
  _atom_site_type_symbol
  Cu1      1.0000 0.94075  0.06797  0.05315  Biso   1.000  Cu
  Cu2      1.0000 0.55925  0.56797  0.44685  Biso   1.000  Cu
  Cu3      1.0000 0.05925  0.93203  0.94685  Biso   1.000  Cu
  Cu4      1.0000 0.44075  0.43203  0.55315  Biso   1.000  Cu
  O1       1.0000 0.92857  0.25930  0.96992  Biso   1.000  O
  O2       1.0000 0.57143  0.75930  0.53008  Biso   1.000  O
  O3       1.0000 0.07143  0.74070  0.03008  Biso   1.000  O
  O4       1.0000 0.42857  0.24070  0.46992  Biso   1.000  O
  O5       1.0000 0.03355  0.14720  0.88179  Biso   1.000  O
  O6       1.0000 0.46645  0.64720  0.61821  Biso   1.000  O
  O7       1.0000 0.96645  0.85280  0.11821  Biso   1.000  O
  O8       1.0000 0.53355  0.35280  0.38179  Biso   1.000  O
  O9       1.0000 0.71239  0.48080  0.53992  Biso   1.000  O
  O10      1.0000 0.78761  0.98080  0.96008  Biso   1.000  O
  O11      1.0000 0.28761  0.51920  0.46008  Biso   1.000  O
  O12      1.0000 0.21239  0.01920  0.03992  Biso   1.000  O
  O13      1.0000 0.60994  0.36610  0.62933  Biso   1.000  O
  O14      1.0000 0.89006  0.86610  0.87067  Biso   1.000  O
  O15      1.0000 0.39006  0.63390  0.37067  Biso   1.000  O
  O16      1.0000 0.10994  0.13390  0.12933  Biso   1.000  O
  N1       1.0000 0.85952  0.17590  0.15211  Biso   1.000  N
  N2       1.0000 0.64048  0.67590  0.34789  Biso   1.000  N
  N3       1.0000 0.14048  0.82410  0.84789  Biso   1.000  N
  N4       1.0000 0.35952  0.32410  0.65211  Biso   1.000  N
  N5       1.0000 0.99540  0.16750  0.47203  Biso   1.000  N
  N6       1.0000 0.50460  0.66750  0.02797  Biso   1.000  N
  N7       1.0000 0.00460  0.83250  0.52797  Biso   1.000  N
  N8       1.0000 0.49540  0.33250  0.97203  Biso   1.000  N
  C1       1.0000 0.73790  0.18930  0.13098  Biso   1.000  C
  C2       1.0000 0.76210  0.68930  0.36902  Biso   1.000  C
  C3       1.0000 0.26210  0.81070  0.86902  Biso   1.000  C
  C4       1.0000 0.23790  0.31070  0.63098  Biso   1.000  C
  H1       1.0000 0.68880  0.16050  0.07020  Biso   1.000  H
  H2       1.0000 0.81120  0.66050  0.42980  Biso   1.000  H
  H3       1.0000 0.31120  0.83950  0.92980  Biso   1.000  H
  H4       1.0000 0.18880  0.33950  0.57020  Biso   1.000  H
  C5       1.0000 0.68110  0.24380  0.19502  Biso   1.000  C
  C6       1.0000 0.81890  0.74380  0.30498  Biso   1.000  C
  C7       1.0000 0.31890  0.75620  0.80498  Biso   1.000  C
  C8       1.0000 0.18110  0.25620  0.69502  Biso   1.000  C
  H5       1.0000 0.59590  0.25200  0.17760  Biso   1.000  H
  H6       1.0000 0.90410  0.75200  0.32240  Biso   1.000  H
  H7       1.0000 0.40410  0.74800  0.82240  Biso   1.000  H
  H8       1.0000 0.09590  0.24800  0.67760  Biso   1.000  H
  C9       1.0000 0.75360  0.28590  0.28540  Biso   1.000  C
  C10      1.0000 0.74640  0.78590  0.21460  Biso   1.000  C
  C11      1.0000 0.24640  0.71410  0.71460  Biso   1.000  C
  C12      1.0000 0.25360  0.21410  0.78540  Biso   1.000  C
  H9       1.0000 0.71750  0.32140  0.32990  Biso   1.000  H
  H10      1.0000 0.78250  0.82140  0.17010  Biso   1.000  H
  H11      1.0000 0.28250  0.67860  0.67010  Biso   1.000  H
  H12      1.0000 0.21750  0.17860  0.82990  Biso   1.000  H
  C13      1.0000 0.88140  0.27480  0.30950  Biso   1.000  C
  C14      1.0000 0.61860  0.77480  0.19050  Biso   1.000  C
  C15      1.0000 0.11860  0.72520  0.69050  Biso   1.000  C
  C16      1.0000 0.38140  0.22520  0.80950  Biso   1.000  C
  C17      1.0000 0.92880  0.21900  0.24022  Biso   1.000  C
  C18      1.0000 0.57120  0.71900  0.25978  Biso   1.000  C
  C19      1.0000 0.07120  0.78100  0.75978  Biso   1.000  C
  C20      1.0000 0.42880  0.28100  0.74022  Biso   1.000  C
  H13      1.0000 0.01390  0.21080  0.25540  Biso   1.000  H
  H14      1.0000 0.48610  0.71080  0.24460  Biso   1.000  H
  H15      1.0000 0.98610  0.78920  0.74460  Biso   1.000  H
  H16      1.0000 0.51390  0.28920  0.75540  Biso   1.000  H
  C21      1.0000 0.96430  0.30970  0.40924  Biso   1.000  C
  C22      1.0000 0.53570  0.80970  0.09076  Biso   1.000  C
  C23      1.0000 0.03570  0.69030  0.59076  Biso   1.000  C
  C24      1.0000 0.46430  0.19030  0.90924  Biso   1.000  C
  H17      1.0000 0.04010  0.35800  0.40540  Biso   1.000  H
  H18      1.0000 0.45990  0.85800  0.09460  Biso   1.000  H
  H19      1.0000 0.95990  0.64200  0.59460  Biso   1.000  H
  H20      1.0000 0.54010  0.14200  0.90540  Biso   1.000  H
  H21      1.0000 0.92440  0.39060  0.43760  Biso   1.000  H
  H22      1.0000 0.57560  0.89060  0.06240  Biso   1.000  H
  H23      1.0000 0.07560  0.60940  0.56240  Biso   1.000  H
  H24      1.0000 0.42440  0.10940  0.93760  Biso   1.000  H
  C25      1.0000 0.88680  0.08480  0.48251  Biso   1.000  C
  C26      1.0000 0.61320  0.58480  0.01749  Biso   1.000  C
  C27      1.0000 0.11320  0.91520  0.51749  Biso   1.000  C
  C28      1.0000 0.38680  0.41520  0.98251  Biso   1.000  C
  H25      1.0000 0.83860  0.03850  0.42200  Biso   1.000  H
  H26      1.0000 0.66140  0.53850  0.07800  Biso   1.000  H
  H27      1.0000 0.16140  0.96150  0.57800  Biso   1.000  H
  H28      1.0000 0.33860  0.46150  0.92200  Biso   1.000  H
  H29      1.0000 0.83580  0.16340  0.50190  Biso   1.000  H
  H30      1.0000 0.66420  0.66340  0.99810  Biso   1.000  H
  H31      1.0000 0.16420  0.83660  0.49810  Biso   1.000  H
  H32      1.0000 0.33580  0.33660  0.00190  Biso   1.000  H
  C29      1.0000 0.07430  0.04950  0.44445  Biso   1.000  C
  C30      1.0000 0.42570  0.54950  0.05555  Biso   1.000  C
  C31      1.0000 0.92570  0.95050  0.55555  Biso   1.000  C
  C32      1.0000 0.57430  0.45050  0.94445  Biso   1.000  C
  H33      1.0000 0.14670  0.10510  0.43870  Biso   1.000  H
  H34      1.0000 0.35330  0.60510  0.06130  Biso   1.000  H
  H35      1.0000 0.85330  0.89490  0.56130  Biso   1.000  H
  H36      1.0000 0.64670  0.39490  0.93870  Biso   1.000  H
  H37      1.0000 0.03010  0.00250  0.38320  Biso   1.000  H
  H38      1.0000 0.46990  0.50250  0.11680  Biso   1.000  H
  H39      1.0000 0.96990  0.99750  0.61680  Biso   1.000  H
  H40      1.0000 0.53010  0.49750  0.88320  Biso   1.000  H
  C33      1.0000 0.97850  0.26420  0.90563  Biso   1.000  C
  C34      1.0000 0.52150  0.76420  0.59437  Biso   1.000  C
  C35      1.0000 0.02150  0.73580  0.09437  Biso   1.000  C
  C36      1.0000 0.47850  0.23580  0.40563  Biso   1.000  C
  C37      1.0000 0.97120  0.42630  0.85345  Biso   1.000  C
  C38      1.0000 0.52880  0.92630  0.64655  Biso   1.000  C
  C39      1.0000 0.02880  0.57370  0.14655  Biso   1.000  C
  C40      1.0000 0.47120  0.07370  0.35345  Biso   1.000  C
  H41      1.0000 0.03520  0.42880  0.82330  Biso   1.000  H
  H42      1.0000 0.46480  0.92880  0.67670  Biso   1.000  H
  H43      1.0000 0.96480  0.57120  0.17670  Biso   1.000  H
  H44      1.0000 0.53520  0.07120  0.32330  Biso   1.000  H
  H45      1.0000 0.98700  0.51510  0.89920  Biso   1.000  H
  H46      1.0000 0.51300  0.01510  0.60080  Biso   1.000  H
  H47      1.0000 0.01300  0.48490  0.10080  Biso   1.000  H
  H48      1.0000 0.48700  0.98490  0.39920  Biso   1.000  H
  C41      1.0000 0.84640  0.45480  0.77786  Biso   1.000  C
  C42      1.0000 0.65360  0.95480  0.72214  Biso   1.000  C
  C43      1.0000 0.15360  0.54520  0.22214  Biso   1.000  C
  C44      1.0000 0.34640  0.04520  0.27786  Biso   1.000  C
  H49      1.0000 0.78170  0.42530  0.80420  Biso   1.000  H
  H50      1.0000 0.71830  0.92530  0.69580  Biso   1.000  H
  H51      1.0000 0.21830  0.57470  0.19580  Biso   1.000  H
  H52      1.0000 0.28170  0.07470  0.30420  Biso   1.000  H
  H53      1.0000 0.83780  0.57070  0.76260  Biso   1.000  H
  H54      1.0000 0.66220  0.07070  0.73740  Biso   1.000  H
  H55      1.0000 0.16220  0.42930  0.23740  Biso   1.000  H
  H56      1.0000 0.33780  0.92930  0.26260  Biso   1.000  H
  C45      1.0000 0.82810  0.35760  0.68616  Biso   1.000  C
  C46      1.0000 0.67190  0.85760  0.81384  Biso   1.000  C
  C47      1.0000 0.17190  0.64240  0.31384  Biso   1.000  C
  C48      1.0000 0.32810  0.14240  0.18616  Biso   1.000  C
  H57      1.0000 0.89570  0.37980  0.66170  Biso   1.000  H
  H58      1.0000 0.60430  0.87980  0.83830  Biso   1.000  H
  H59      1.0000 0.10430  0.62020  0.33830  Biso   1.000  H
  H60      1.0000 0.39570  0.12020  0.16170  Biso   1.000  H
  H61      1.0000 0.82800  0.24120  0.69950  Biso   1.000  H
  H62      1.0000 0.67200  0.74120  0.80050  Biso   1.000  H
  H63      1.0000 0.17200  0.75880  0.30050  Biso   1.000  H
  H64      1.0000 0.32800  0.25880  0.19950  Biso   1.000  H
  C49      1.0000 0.70710  0.40440  0.61209  Biso   1.000  C
  C50      1.0000 0.79290  0.90440  0.88791  Biso   1.000  C
  C51      1.0000 0.29290  0.59560  0.38791  Biso   1.000  C
  C52      1.0000 0.20710  0.09560  0.11209  Biso   1.000  C
