data_image0
_cell_length_a       6.7266
_cell_length_b       8.037
_cell_length_c       11.7563
_cell_angle_alpha    83.741
_cell_angle_beta     80.945
_cell_angle_gamma    83.954

_symmetry_space_group_name_H-M    "P 1"
_symmetry_int_tables_number       1

loop_
  _symmetry_equiv_pos_as_xyz
  'x, y, z'

loop_
  _atom_site_label
  _atom_site_occupancy
  _atom_site_fract_x
  _atom_site_fract_y
  _atom_site_fract_z
  _atom_site_thermal_displace_type
  _atom_site_B_iso_or_equiv
  _atom_site_type_symbol
  Cu1      1.0000 0.50000  0.50000  0.50000  Biso   1.000  Cu
  F1       1.0000 0.35880  0.51090  0.12184  Biso   1.000  F
  F2       1.0000 0.64120  0.48910  0.87816  Biso   1.000  F
  O1       1.0000 0.68150  0.46145  0.35502  Biso   1.000  O
  O2       1.0000 0.31850  0.53855  0.64498  Biso   1.000  O
  O3       1.0000 0.56840  0.23990  0.29402  Biso   1.000  O
  O4       1.0000 0.43160  0.76010  0.70598  Biso   1.000  O
  O5       1.0000 0.28520  0.28670  0.47227  Biso   1.000  O
  O6       1.0000 0.71480  0.71330  0.52773  Biso   1.000  O
  H1       1.0000 0.36250  0.26150  0.41430  Biso   1.000  H
  H2       1.0000 0.63750  0.73850  0.58570  Biso   1.000  H
  O7       1.0000 0.73620  0.13790  0.09855  Biso   1.000  O
  O8       1.0000 0.26380  0.86210  0.90145  Biso   1.000  O
  H3       1.0000 0.64350  0.15290  0.15180  Biso   1.000  H
  H4       1.0000 0.35650  0.84710  0.84820  Biso   1.000  H
  N1       1.0000 0.67980  0.33050  0.58963  Biso   1.000  N
  N2       1.0000 0.32020  0.66950  0.41037  Biso   1.000  N
  C1       1.0000 0.69320  0.34680  0.28757  Biso   1.000  C
  C2       1.0000 0.30680  0.65320  0.71243  Biso   1.000  C
  C3       1.0000 0.87290  0.33990  0.19544  Biso   1.000  C
  C4       1.0000 0.12710  0.66010  0.80456  Biso   1.000  C
  C5       1.0000 0.88630  0.23490  0.10650  Biso   1.000  C
  C6       1.0000 0.11370  0.76510  0.89350  Biso   1.000  C
  C7       1.0000 0.05870  0.22670  0.02390  Biso   1.000  C
  C8       1.0000 0.94130  0.77330  0.97610  Biso   1.000  C
  H5       1.0000 0.06630  0.15820  0.96420  Biso   1.000  H
  H6       1.0000 0.93370  0.84180  0.03580  Biso   1.000  H
  C9       1.0000 0.21690  0.31770  0.02910  Biso   1.000  C
  C10      1.0000 0.78310  0.68230  0.97090  Biso   1.000  C
  H7       1.0000 0.33250  0.31030  0.97420  Biso   1.000  H
  H8       1.0000 0.66750  0.68970  0.02580  Biso   1.000  H
  C11      1.0000 0.20250  0.42020  0.11690  Biso   1.000  C
  C12      1.0000 0.79750  0.57980  0.88310  Biso   1.000  C
  C13      1.0000 0.03480  0.43320  0.19930  Biso   1.000  C
  C14      1.0000 0.96520  0.56680  0.80070  Biso   1.000  C
  H9       1.0000 0.02880  0.50390  0.25750  Biso   1.000  H
  H10      1.0000 0.97120  0.49610  0.74250  Biso   1.000  H
  C15      1.0000 0.60960  0.24750  0.69080  Biso   1.000  C
  C16      1.0000 0.39040  0.75250  0.30920  Biso   1.000  C
  H11      1.0000 0.47520  0.27080  0.72250  Biso   1.000  H
  H12      1.0000 0.52480  0.72920  0.27750  Biso   1.000  H
  C17      1.0000 0.72900  0.12930  0.74950  Biso   1.000  C
  C18      1.0000 0.27100  0.87070  0.25050  Biso   1.000  C
  H13      1.0000 0.67600  0.07300  0.81920  Biso   1.000  H
  H14      1.0000 0.32400  0.92700  0.18080  Biso   1.000  H
  C19      1.0000 0.92780  0.09600  0.70320  Biso   1.000  C
  C20      1.0000 0.07220  0.90400  0.29680  Biso   1.000  C
  H15      1.0000 0.01080  0.01690  0.74190  Biso   1.000  H
  H16      1.0000 0.98920  0.98310  0.25810  Biso   1.000  H
  C21      1.0000 0.00470  0.17930  0.59960  Biso   1.000  C
  C22      1.0000 0.99530  0.82070  0.40040  Biso   1.000  C
  C23      1.0000 0.87480  0.29680  0.54635  Biso   1.000  C
  C24      1.0000 0.12520  0.70320  0.45365  Biso   1.000  C
  H17      1.0000 0.92540  0.35530  0.47700  Biso   1.000  H
  H18      1.0000 0.07460  0.64470  0.52300  Biso   1.000  H
  C25      1.0000 0.22070  0.14460  0.54320  Biso   1.000  C
  C26      1.0000 0.77930  0.85540  0.45680  Biso   1.000  C
  H19      1.0000 0.30730  0.11530  0.60230  Biso   1.000  H
  H20      1.0000 0.69270  0.88470  0.39770  Biso   1.000  H
  H21      1.0000 0.23080  0.05010  0.49710  Biso   1.000  H
  H22      1.0000 0.76920  0.94990  0.50290  Biso   1.000  H
