data_image0
_cell_length_a       10.5319
_cell_length_b       11.8784
_cell_length_c       17.75
_cell_angle_alpha    93.367
_cell_angle_beta     96.008
_cell_angle_gamma    105.385

_symmetry_space_group_name_H-M    "P 1"
_symmetry_int_tables_number       1

loop_
  _symmetry_equiv_pos_as_xyz
  'x, y, z'

loop_
  _atom_site_label
  _atom_site_occupancy
  _atom_site_fract_x
  _atom_site_fract_y
  _atom_site_fract_z
  _atom_site_thermal_displace_type
  _atom_site_B_iso_or_equiv
  _atom_site_type_symbol
  Cu1      1.0000 0.96463  0.36245  0.79804  Biso   1.000  Cu
  Cu2      1.0000 0.03537  0.63755  0.20196  Biso   1.000  Cu
  Cu3      1.0000 0.35775  0.31522  0.82413  Biso   1.000  Cu
  Cu4      1.0000 0.64225  0.68478  0.17587  Biso   1.000  Cu
  O1       1.0000 0.32180  0.42230  0.90896  Biso   1.000  O
  O2       1.0000 0.67820  0.57770  0.09104  Biso   1.000  O
  O3       1.0000 0.28280  0.18690  0.87743  Biso   1.000  O
  O4       1.0000 0.71720  0.81310  0.12257  Biso   1.000  O
  N1       1.0000 0.87560  0.40010  0.70310  Biso   1.000  N
  N2       1.0000 0.12440  0.59990  0.29690  Biso   1.000  N
  O5       1.0000 0.04710  0.52130  0.83093  Biso   1.000  O
  O6       1.0000 0.95290  0.47870  0.16907  Biso   1.000  O
  O7       1.0000 0.14860  0.31430  0.73274  Biso   1.000  O
  O8       1.0000 0.85140  0.68570  0.26726  Biso   1.000  O
  N3       1.0000 0.69200  0.34710  0.90580  Biso   1.000  N
  N4       1.0000 0.30800  0.65290  0.09420  Biso   1.000  N
  N5       1.0000 0.89810  0.18550  0.77708  Biso   1.000  N
  N6       1.0000 0.10190  0.81450  0.22292  Biso   1.000  N
  O9       1.0000 0.03420  0.31910  0.90013  Biso   1.000  O
  O10      1.0000 0.96580  0.68090  0.09987  Biso   1.000  O
  N7       1.0000 0.41410  0.46860  0.77696  Biso   1.000  N
  N8       1.0000 0.58590  0.53140  0.22304  Biso   1.000  N
  O11      1.0000 0.73880  0.36070  0.84348  Biso   1.000  O
  O12      1.0000 0.26120  0.63930  0.15652  Biso   1.000  O
  O13      1.0000 0.57760  0.35640  0.91190  Biso   1.000  O
  O14      1.0000 0.42240  0.64360  0.08810  Biso   1.000  O
  N9       1.0000 0.56430  0.83030  0.66240  Biso   1.000  N
  N10      1.0000 0.43570  0.16970  0.33760  Biso   1.000  N
  O15      1.0000 0.75940  0.32260  0.96213  Biso   1.000  O
  O16      1.0000 0.24060  0.67740  0.03787  Biso   1.000  O
  O17      1.0000 0.49860  0.90380  0.65420  Biso   1.000  O
  O18      1.0000 0.50140  0.09620  0.34580  Biso   1.000  O
  C1       1.0000 0.25350  0.39030  0.97400  Biso   1.000  C
  C2       1.0000 0.74650  0.60970  0.02600  Biso   1.000  C
  H1       1.0000 0.30200  0.44300  0.01910  Biso   1.000  H
  H2       1.0000 0.69800  0.55700  0.98090  Biso   1.000  H
  H3       1.0000 0.25410  0.30930  0.98400  Biso   1.000  H
  H4       1.0000 0.74590  0.69070  0.01600  Biso   1.000  H
  C3       1.0000 0.78420  0.19730  0.64830  Biso   1.000  C
  C4       1.0000 0.21580  0.80270  0.35170  Biso   1.000  C
  N11      1.0000 0.42280  0.21970  0.74970  Biso   1.000  N
  N12      1.0000 0.57720  0.78030  0.25030  Biso   1.000  N
  C5       1.0000 0.85000  0.50200  0.69860  Biso   1.000  C
  C6       1.0000 0.15000  0.49800  0.30140  Biso   1.000  C
  O19      1.0000 0.68560  0.85850  0.65740  Biso   1.000  O
  O20      1.0000 0.31440  0.14150  0.34260  Biso   1.000  O
  C7       1.0000 0.20800  0.39460  0.68120  Biso   1.000  C
  C8       1.0000 0.79200  0.60540  0.31880  Biso   1.000  C
  H5       1.0000 0.13900  0.42060  0.65030  Biso   1.000  H
  H6       1.0000 0.86100  0.57940  0.34970  Biso   1.000  H
  H7       1.0000 0.25490  0.35640  0.64650  Biso   1.000  H
  H8       1.0000 0.74510  0.64360  0.35350  Biso   1.000  H
  C9       1.0000 0.40910  0.06100  0.83360  Biso   1.000  C
  C10      1.0000 0.59090  0.93900  0.16640  Biso   1.000  C
  C11      1.0000 0.77010  0.15590  0.72540  Biso   1.000  C
  C12      1.0000 0.22990  0.84410  0.27460  Biso   1.000  C
  H9       1.0000 0.73180  0.06980  0.72000  Biso   1.000  H
  H10      1.0000 0.26820  0.93020  0.28000  Biso   1.000  H
  H11      1.0000 0.70700  0.19130  0.74900  Biso   1.000  H
  H12      1.0000 0.29300  0.80870  0.25100  Biso   1.000  H
  C13      1.0000 0.89420  0.59960  0.75510  Biso   1.000  C
  C14      1.0000 0.10580  0.40040  0.24490  Biso   1.000  C
  C15      1.0000 0.99670  0.12940  0.74620  Biso   1.000  C
  C16      1.0000 0.00330  0.87060  0.25380  Biso   1.000  C
  H13      1.0000 0.05560  0.11440  0.78940  Biso   1.000  H
  H14      1.0000 0.94440  0.88560  0.21060  Biso   1.000  H
  H15      1.0000 0.94790  0.05270  0.71870  Biso   1.000  H
  H16      1.0000 0.05210  0.94730  0.28130  Biso   1.000  H
  C17      1.0000 0.87070  0.14350  0.85260  Biso   1.000  C
  C18      1.0000 0.12930  0.85650  0.14740  Biso   1.000  C
  H17      1.0000 0.85260  0.05710  0.84930  Biso   1.000  H
  H18      1.0000 0.14740  0.94290  0.15070  Biso   1.000  H
  H19      1.0000 0.79060  0.16370  0.86700  Biso   1.000  H
  H20      1.0000 0.20940  0.83630  0.13300  Biso   1.000  H
  C19      1.0000 0.99210  0.60680  0.81820  Biso   1.000  C
  C20      1.0000 0.00790  0.39320  0.18180  Biso   1.000  C
  C21      1.0000 0.84240  0.69680  0.74260  Biso   1.000  C
  C22      1.0000 0.15760  0.30320  0.25740  Biso   1.000  C
  H21      1.0000 0.77820  0.69250  0.70000  Biso   1.000  H
  H22      1.0000 0.22180  0.30750  0.30000  Biso   1.000  H
  C23      1.0000 0.49880  0.37710  0.66810  Biso   1.000  C
  C24      1.0000 0.50120  0.62290  0.33190  Biso   1.000  C
  C25      1.0000 0.30500  0.49850  0.72800  Biso   1.000  C
  C26      1.0000 0.69500  0.50150  0.27200  Biso   1.000  C
  H23      1.0000 0.34510  0.55600  0.69310  Biso   1.000  H
  H24      1.0000 0.65490  0.44400  0.30690  Biso   1.000  H
  H25      1.0000 0.25540  0.53670  0.76100  Biso   1.000  H
  H26      1.0000 0.74460  0.46330  0.23900  Biso   1.000  H
  C27      1.0000 0.53020  0.46840  0.73470  Biso   1.000  C
  C28      1.0000 0.46980  0.53160  0.26530  Biso   1.000  C
  H27      1.0000 0.60240  0.45510  0.77040  Biso   1.000  H
  H28      1.0000 0.39760  0.54490  0.22960  Biso   1.000  H
  H29      1.0000 0.56330  0.54660  0.71620  Biso   1.000  H
  H30      1.0000 0.43670  0.45340  0.28380  Biso   1.000  H
  C29      1.0000 0.52450  0.41130  0.59600  Biso   1.000  C
  C30      1.0000 0.47550  0.58870  0.40400  Biso   1.000  C
  H31      1.0000 0.55650  0.49240  0.58960  Biso   1.000  H
  H32      1.0000 0.44350  0.50760  0.41040  Biso   1.000  H
  C31      1.0000 0.08110  0.20090  0.69350  Biso   1.000  C
  C32      1.0000 0.91890  0.79910  0.30650  Biso   1.000  C
  H33      1.0000 0.14670  0.16090  0.67790  Biso   1.000  H
  H34      1.0000 0.85330  0.83910  0.32210  Biso   1.000  H
  H35      1.0000 0.02480  0.21030  0.64730  Biso   1.000  H
  H36      1.0000 0.97520  0.78970  0.35270  Biso   1.000  H
  C33      1.0000 0.11240  0.39720  0.96350  Biso   1.000  C
  C34      1.0000 0.88760  0.60280  0.03650  Biso   1.000  C
  H37      1.0000 0.07180  0.37690  0.01050  Biso   1.000  H
  H38      1.0000 0.92820  0.62310  0.98950  Biso   1.000  H
  H39      1.0000 0.11160  0.47860  0.95500  Biso   1.000  H
  H40      1.0000 0.88840  0.52140  0.04500  Biso   1.000  H
  C35      1.0000 0.32980  0.09540  0.88510  Biso   1.000  C
  C36      1.0000 0.67020  0.90460  0.11490  Biso   1.000  C
  C37      1.0000 0.80940  0.27060  0.50230  Biso   1.000  C
  C38      1.0000 0.19060  0.72940  0.49770  Biso   1.000  C
  H41      1.0000 0.81980  0.29520  0.45280  Biso   1.000  H
  H42      1.0000 0.18020  0.70480  0.54720  Biso   1.000  H
  C39      1.0000 0.50440  0.33020  0.53360  Biso   1.000  C
  C40      1.0000 0.49560  0.66980  0.46640  Biso   1.000  C
  H43      1.0000 0.52300  0.35520  0.48510  Biso   1.000  H
  H44      1.0000 0.47700  0.64480  0.51490  Biso   1.000  H
  O21      1.0000 0.50710  0.72700  0.67090  Biso   1.000  O
  O22      1.0000 0.49290  0.27300  0.32910  Biso   1.000  O
  N13      1.0000 0.15410  0.95200  0.66210  Biso   1.000  N
  N14      1.0000 0.84590  0.04800  0.33790  Biso   1.000  N
  C41      1.0000 0.88430  0.79740  0.79180  Biso   1.000  C
  C42      1.0000 0.11570  0.20260  0.20820  Biso   1.000  C
  H45      1.0000 0.84740  0.86130  0.78430  Biso   1.000  H
  H46      1.0000 0.15260  0.13870  0.21570  Biso   1.000  H
  C43      1.0000 0.45200  0.25630  0.67630  Biso   1.000  C
  C44      1.0000 0.54800  0.74370  0.32370  Biso   1.000  C
  C45      1.0000 0.42700  0.17560  0.61320  Biso   1.000  C
  C46      1.0000 0.57300  0.82440  0.38680  Biso   1.000  C
  H47      1.0000 0.38930  0.09490  0.61840  Biso   1.000  H
  H48      1.0000 0.61070  0.90510  0.38160  Biso   1.000  H
  C47      1.0000 0.46220  0.56000  0.84320  Biso   1.000  C
  C48      1.0000 0.53780  0.44000  0.15680  Biso   1.000  C
  H49      1.0000 0.47730  0.63890  0.82460  Biso   1.000  H
  H50      1.0000 0.52270  0.36110  0.17540  Biso   1.000  H
  H51      1.0000 0.54780  0.55330  0.86860  Biso   1.000  H
  H52      1.0000 0.45220  0.44670  0.13140  Biso   1.000  H
  C49      1.0000 0.83440  0.31720  0.63710  Biso   1.000  C
  C50      1.0000 0.16560  0.68280  0.36290  Biso   1.000  C
  C51      1.0000 0.44140  0.11900  0.76640  Biso   1.000  C
  C52      1.0000 0.55860  0.88100  0.23360  Biso   1.000  C
  C53      1.0000 0.42140  0.89520  0.90550  Biso   1.000  C
  C54      1.0000 0.57860  0.10480  0.09450  Biso   1.000  C
  H53      1.0000 0.45200  0.82780  0.91300  Biso   1.000  H
  H54      1.0000 0.54800  0.17220  0.08700  Biso   1.000  H
  C55      1.0000 0.29750  0.02640  0.94600  Biso   1.000  C
  C56      1.0000 0.70250  0.97360  0.05400  Biso   1.000  C
  H55      1.0000 0.24300  0.04700  0.98080  Biso   1.000  H
  H56      1.0000 0.75700  0.95300  0.01920  Biso   1.000  H
  C57      1.0000 0.21400  0.76770  0.71000  Biso   1.000  C
  C58      1.0000 0.78600  0.23230  0.29000  Biso   1.000  C
  H57      1.0000 0.14360  0.69720  0.68970  Biso   1.000  H
  H58      1.0000 0.85640  0.30280  0.31030  Biso   1.000  H
  H59      1.0000 0.22410  0.77290  0.76570  Biso   1.000  H
  H60      1.0000 0.77590  0.22710  0.23430  Biso   1.000  H
  H61      1.0000 0.29770  0.76380  0.69200  Biso   1.000  H
  H62      1.0000 0.70230  0.23620  0.30800  Biso   1.000  H
  C59      1.0000 0.75500  0.15370  0.51050  Biso   1.000  C
  C60      1.0000 0.24500  0.84630  0.48950  Biso   1.000  C
  H63      1.0000 0.72570  0.09850  0.46710  Biso   1.000  H
  H64      1.0000 0.27430  0.90150  0.53290  Biso   1.000  H
  C61      1.0000 0.84950  0.35350  0.56530  Biso   1.000  C
  C62      1.0000 0.15050  0.64650  0.43470  Biso   1.000  C
  H65      1.0000 0.88660  0.43390  0.55880  Biso   1.000  H
  H66      1.0000 0.11340  0.56610  0.44120  Biso   1.000  H
  C63      1.0000 0.74340  0.11760  0.58320  Biso   1.000  C
  C64      1.0000 0.25660  0.88240  0.41680  Biso   1.000  C
  H67      1.0000 0.70690  0.03680  0.58890  Biso   1.000  H
  H68      1.0000 0.29310  0.96320  0.41110  Biso   1.000  H
  C65      1.0000 0.03620  0.71150  0.86500  Biso   1.000  C
  C66      1.0000 0.96380  0.28850  0.13500  Biso   1.000  C
  H69      1.0000 0.10480  0.71940  0.90590  Biso   1.000  H
  H70      1.0000 0.89520  0.28060  0.09410  Biso   1.000  H
  C67      1.0000 0.17900  0.87100  0.68400  Biso   1.000  C
  C68      1.0000 0.82100  0.12900  0.31600  Biso   1.000  C
  C69      1.0000 0.36250  0.54610  0.89990  Biso   1.000  C
  C70      1.0000 0.63750  0.45390  0.10010  Biso   1.000  C
  H71      1.0000 0.40380  0.59140  0.94900  Biso   1.000  H
  H72      1.0000 0.59620  0.40860  0.05100  Biso   1.000  H
  H73      1.0000 0.28550  0.57380  0.88040  Biso   1.000  H
  H74      1.0000 0.71450  0.42620  0.11960  Biso   1.000  H
  C71      1.0000 0.45640  0.21130  0.54300  Biso   1.000  C
  C72      1.0000 0.54360  0.78870  0.45700  Biso   1.000  C
  H75      1.0000 0.44390  0.15460  0.50090  Biso   1.000  H
  H76      1.0000 0.55610  0.84540  0.49910  Biso   1.000  H
  C73      1.0000 0.34400  0.92950  0.95580  Biso   1.000  C
  C74      1.0000 0.65600  0.07050  0.04420  Biso   1.000  C
  H77      1.0000 0.32250  0.88540  0.99790  Biso   1.000  H
  H78      1.0000 0.67750  0.11460  0.00210  Biso   1.000  H
  C75      1.0000 0.98260  0.80390  0.85320  Biso   1.000  C
  C76      1.0000 0.01740  0.19610  0.14680  Biso   1.000  C
  H79      1.0000 0.01240  0.87310  0.88710  Biso   1.000  H
  H80      1.0000 0.98760  0.12690  0.11290  Biso   1.000  H
  C77      1.0000 0.98680  0.19770  0.91360  Biso   1.000  C
  C78      1.0000 0.01320  0.80230  0.08640  Biso   1.000  C
  H81      1.0000 0.95790  0.19060  0.96480  Biso   1.000  H
  H82      1.0000 0.04210  0.80940  0.03520  Biso   1.000  H
  H83      1.0000 0.05780  0.15790  0.91020  Biso   1.000  H
  H84      1.0000 0.94220  0.84210  0.08980  Biso   1.000  H
  C79      1.0000 0.45390  0.95900  0.84450  Biso   1.000  C
  C80      1.0000 0.54610  0.04100  0.15550  Biso   1.000  C
  H85      1.0000 0.50640  0.93510  0.80970  Biso   1.000  H
  H86      1.0000 0.49360  0.06490  0.19030  Biso   1.000  H
  C81      1.0000 0.85980  0.73380  0.52920  Biso   1.000  C
  C82      1.0000 0.14020  0.26620  0.47080  Biso   1.000  C
  C83      1.0000 0.88660  0.85890  0.52730  Biso   1.000  C
  C84      1.0000 0.11340  0.14110  0.47270  Biso   1.000  C
  H87      1.0000 0.98240  0.89520  0.53830  Biso   1.000  H
  H88      1.0000 0.01760  0.10480  0.46170  Biso   1.000  H
  H89      1.0000 0.84100  0.88990  0.56550  Biso   1.000  H
  H90      1.0000 0.15900  0.11010  0.43450  Biso   1.000  H
  H91      1.0000 0.85460  0.87670  0.47670  Biso   1.000  H
  H92      1.0000 0.14540  0.12330  0.52330  Biso   1.000  H
  N15      1.0000 0.83860  0.63430  0.52950  Biso   1.000  N
  N16      1.0000 0.16140  0.36570  0.47050  Biso   1.000  N
  H93      1.0000 0.48200  0.07600  0.73100  Biso   1.000  H
  H94      1.0000 0.51800  0.92400  0.26900  Biso   1.000  H
  H95      1.0000 0.79600  0.51000  0.65100  Biso   1.000  H
  H96      1.0000 0.20400  0.49000  0.34900  Biso   1.000  H
