data_image0
_cell_length_a       14.693
_cell_length_b       18.784
_cell_length_c       21.396
_cell_angle_alpha    90
_cell_angle_beta     90.068
_cell_angle_gamma    90

_symmetry_space_group_name_H-M    "P 1"
_symmetry_int_tables_number       1

loop_
  _symmetry_equiv_pos_as_xyz
  'x, y, z'

loop_
  _atom_site_label
  _atom_site_occupancy
  _atom_site_fract_x
  _atom_site_fract_y
  _atom_site_fract_z
  _atom_site_thermal_displace_type
  _atom_site_B_iso_or_equiv
  _atom_site_type_symbol
  Cu1      1.0000 0.93939  0.64180  0.01338  Biso   1.000  Cu
  Cu2      1.0000 0.06061  0.64180  0.48662  Biso   1.000  Cu
  Cu3      1.0000 0.43939  0.14180  0.01338  Biso   1.000  Cu
  Cu4      1.0000 0.56061  0.14180  0.48662  Biso   1.000  Cu
  Cu5      1.0000 0.06061  0.35820  0.98662  Biso   1.000  Cu
  Cu6      1.0000 0.93939  0.35820  0.51338  Biso   1.000  Cu
  Cu7      1.0000 0.56061  0.85820  0.98662  Biso   1.000  Cu
  Cu8      1.0000 0.43939  0.85820  0.51338  Biso   1.000  Cu
  S1       1.0000 0.43730  0.64192  0.99272  Biso   1.000  S
  S2       1.0000 0.56270  0.64192  0.50728  Biso   1.000  S
  S3       1.0000 0.93730  0.14192  0.99272  Biso   1.000  S
  S4       1.0000 0.06270  0.14192  0.50728  Biso   1.000  S
  S5       1.0000 0.56270  0.35808  0.00728  Biso   1.000  S
  S6       1.0000 0.43730  0.35808  0.49272  Biso   1.000  S
  S7       1.0000 0.06270  0.85808  0.00728  Biso   1.000  S
  S8       1.0000 0.93730  0.85808  0.49272  Biso   1.000  S
  O1       1.0000 0.94050  0.72334  0.92794  Biso   1.000  O
  O2       1.0000 0.05950  0.72334  0.57206  Biso   1.000  O
  O3       1.0000 0.44050  0.22334  0.92794  Biso   1.000  O
  O4       1.0000 0.55950  0.22334  0.57206  Biso   1.000  O
  O5       1.0000 0.05950  0.27666  0.07206  Biso   1.000  O
  O6       1.0000 0.94050  0.27666  0.42794  Biso   1.000  O
  O7       1.0000 0.55950  0.77666  0.07206  Biso   1.000  O
  O8       1.0000 0.44050  0.77666  0.42794  Biso   1.000  O
  O9       1.0000 0.92548  0.60654  0.92604  Biso   1.000  O
  O10      1.0000 0.07452  0.60654  0.57396  Biso   1.000  O
  O11      1.0000 0.42548  0.10654  0.92604  Biso   1.000  O
  O12      1.0000 0.57452  0.10654  0.57396  Biso   1.000  O
  O13      1.0000 0.07452  0.39346  0.07396  Biso   1.000  O
  O14      1.0000 0.92548  0.39346  0.42604  Biso   1.000  O
  O15      1.0000 0.57452  0.89346  0.07396  Biso   1.000  O
  O16      1.0000 0.42548  0.89346  0.42604  Biso   1.000  O
  O17      1.0000 0.90230  0.49210  0.71878  Biso   1.000  O
  O18      1.0000 0.09770  0.49210  0.78122  Biso   1.000  O
  O19      1.0000 0.40230  0.99210  0.71878  Biso   1.000  O
  O20      1.0000 0.59770  0.99210  0.78122  Biso   1.000  O
  O21      1.0000 0.09770  0.50790  0.28122  Biso   1.000  O
  O22      1.0000 0.90230  0.50790  0.21878  Biso   1.000  O
  O23      1.0000 0.59770  0.00790  0.28122  Biso   1.000  O
  O24      1.0000 0.40230  0.00790  0.21878  Biso   1.000  O
  H1       1.0000 0.90760  0.46040  0.69270  Biso   1.000  H
  H2       1.0000 0.09240  0.46040  0.80730  Biso   1.000  H
  H3       1.0000 0.40760  0.96040  0.69270  Biso   1.000  H
  H4       1.0000 0.59240  0.96040  0.80730  Biso   1.000  H
  H5       1.0000 0.09240  0.53960  0.30730  Biso   1.000  H
  H6       1.0000 0.90760  0.53960  0.19270  Biso   1.000  H
  H7       1.0000 0.59240  0.03960  0.30730  Biso   1.000  H
  H8       1.0000 0.40760  0.03960  0.19270  Biso   1.000  H
  O25      1.0000 0.84400  0.55052  0.63850  Biso   1.000  O
  O26      1.0000 0.15600  0.55052  0.86150  Biso   1.000  O
  O27      1.0000 0.34400  0.05052  0.63850  Biso   1.000  O
  O28      1.0000 0.65600  0.05052  0.86150  Biso   1.000  O
  O29      1.0000 0.15600  0.44948  0.36150  Biso   1.000  O
  O30      1.0000 0.84400  0.44948  0.13850  Biso   1.000  O
  O31      1.0000 0.65600  0.94948  0.36150  Biso   1.000  O
  O32      1.0000 0.34400  0.94948  0.13850  Biso   1.000  O
  O33      1.0000 0.95525  0.70585  0.08560  Biso   1.000  O
  O34      1.0000 0.04475  0.70585  0.41440  Biso   1.000  O
  O35      1.0000 0.45525  0.20585  0.08560  Biso   1.000  O
  O36      1.0000 0.54475  0.20585  0.41440  Biso   1.000  O
  O37      1.0000 0.04475  0.29415  0.91440  Biso   1.000  O
  O38      1.0000 0.95525  0.29415  0.58560  Biso   1.000  O
  O39      1.0000 0.54475  0.79415  0.91440  Biso   1.000  O
  O40      1.0000 0.45525  0.79415  0.58560  Biso   1.000  O
  O41      1.0000 0.95155  0.60411  0.13654  Biso   1.000  O
  O42      1.0000 0.04845  0.60411  0.36346  Biso   1.000  O
  O43      1.0000 0.45155  0.10411  0.13654  Biso   1.000  O
  O44      1.0000 0.54845  0.10411  0.36346  Biso   1.000  O
  O45      1.0000 0.04845  0.39589  0.86346  Biso   1.000  O
  O46      1.0000 0.95155  0.39589  0.63654  Biso   1.000  O
  O47      1.0000 0.54845  0.89589  0.86346  Biso   1.000  O
  O48      1.0000 0.45155  0.89589  0.63654  Biso   1.000  O
  N1       1.0000 0.07244  0.61736  0.01262  Biso   1.000  N
  N2       1.0000 0.92756  0.61736  0.48738  Biso   1.000  N
  N3       1.0000 0.57244  0.11736  0.01262  Biso   1.000  N
  N4       1.0000 0.42756  0.11736  0.48738  Biso   1.000  N
  N5       1.0000 0.92756  0.38264  0.98738  Biso   1.000  N
  N6       1.0000 0.07244  0.38264  0.51262  Biso   1.000  N
  N7       1.0000 0.42756  0.88264  0.98738  Biso   1.000  N
  N8       1.0000 0.57244  0.88264  0.51262  Biso   1.000  N
  N9       1.0000 0.39300  0.53562  0.05989  Biso   1.000  N
  N10      1.0000 0.60700  0.53562  0.44011  Biso   1.000  N
  N11      1.0000 0.89300  0.03562  0.05989  Biso   1.000  N
  N12      1.0000 0.10700  0.03562  0.44011  Biso   1.000  N
  N13      1.0000 0.60700  0.46438  0.94011  Biso   1.000  N
  N14      1.0000 0.39300  0.46438  0.55989  Biso   1.000  N
  N15      1.0000 0.10700  0.96438  0.94011  Biso   1.000  N
  N16      1.0000 0.89300  0.96438  0.55989  Biso   1.000  N
  N17      1.0000 0.48570  0.54046  0.06445  Biso   1.000  N
  N18      1.0000 0.51430  0.54046  0.43555  Biso   1.000  N
  N19      1.0000 0.98570  0.04046  0.06445  Biso   1.000  N
  N20      1.0000 0.01430  0.04046  0.43555  Biso   1.000  N
  N21      1.0000 0.51430  0.45954  0.93555  Biso   1.000  N
  N22      1.0000 0.48570  0.45954  0.56445  Biso   1.000  N
  N23      1.0000 0.01430  0.95954  0.93555  Biso   1.000  N
  N24      1.0000 0.98570  0.95954  0.56445  Biso   1.000  N
  N25      1.0000 0.80344  0.63227  0.02252  Biso   1.000  N
  N26      1.0000 0.19656  0.63227  0.47748  Biso   1.000  N
  N27      1.0000 0.30344  0.13227  0.02252  Biso   1.000  N
  N28      1.0000 0.69656  0.13227  0.47748  Biso   1.000  N
  N29      1.0000 0.19656  0.36773  0.97748  Biso   1.000  N
  N30      1.0000 0.80344  0.36773  0.52252  Biso   1.000  N
  N31      1.0000 0.69656  0.86773  0.97748  Biso   1.000  N
  N32      1.0000 0.30344  0.86773  0.52252  Biso   1.000  N
  C1       1.0000 0.89640  0.66926  0.83164  Biso   1.000  C
  C2       1.0000 0.10360  0.66926  0.66836  Biso   1.000  C
  C3       1.0000 0.39640  0.16926  0.83164  Biso   1.000  C
  C4       1.0000 0.60360  0.16926  0.66836  Biso   1.000  C
  C5       1.0000 0.10360  0.33074  0.16836  Biso   1.000  C
  C6       1.0000 0.89640  0.33074  0.33164  Biso   1.000  C
  C7       1.0000 0.60360  0.83074  0.16836  Biso   1.000  C
  C8       1.0000 0.39640  0.83074  0.33164  Biso   1.000  C
  C9       1.0000 0.89450  0.60800  0.79577  Biso   1.000  C
  C10      1.0000 0.10550  0.60800  0.70423  Biso   1.000  C
  C11      1.0000 0.39450  0.10800  0.79577  Biso   1.000  C
  C12      1.0000 0.60550  0.10800  0.70423  Biso   1.000  C
  C13      1.0000 0.10550  0.39200  0.20423  Biso   1.000  C
  C14      1.0000 0.89450  0.39200  0.29577  Biso   1.000  C
  C15      1.0000 0.60550  0.89200  0.20423  Biso   1.000  C
  C16      1.0000 0.39450  0.89200  0.29577  Biso   1.000  C
  H9       1.0000 0.91110  0.56440  0.81290  Biso   1.000  H
  H10      1.0000 0.08890  0.56440  0.68710  Biso   1.000  H
  H11      1.0000 0.41110  0.06440  0.81290  Biso   1.000  H
  H12      1.0000 0.58890  0.06440  0.68710  Biso   1.000  H
  H13      1.0000 0.08890  0.43560  0.18710  Biso   1.000  H
  H14      1.0000 0.91110  0.43560  0.31290  Biso   1.000  H
  H15      1.0000 0.58890  0.93560  0.18710  Biso   1.000  H
  H16      1.0000 0.41110  0.93560  0.31290  Biso   1.000  H
  C17      1.0000 0.86740  0.61260  0.73385  Biso   1.000  C
  C18      1.0000 0.13260  0.61260  0.76615  Biso   1.000  C
  C19      1.0000 0.36740  0.11260  0.73385  Biso   1.000  C
  C20      1.0000 0.63260  0.11260  0.76615  Biso   1.000  C
  C21      1.0000 0.13260  0.38740  0.26615  Biso   1.000  C
  C22      1.0000 0.86740  0.38740  0.23385  Biso   1.000  C
  C23      1.0000 0.63260  0.88740  0.26615  Biso   1.000  C
  C24      1.0000 0.36740  0.88740  0.23385  Biso   1.000  C
  C25      1.0000 0.83940  0.67710  0.70922  Biso   1.000  C
  C26      1.0000 0.16060  0.67710  0.79078  Biso   1.000  C
  C27      1.0000 0.33940  0.17710  0.70922  Biso   1.000  C
  C28      1.0000 0.66060  0.17710  0.79078  Biso   1.000  C
  C29      1.0000 0.16060  0.32290  0.29078  Biso   1.000  C
  C30      1.0000 0.83940  0.32290  0.20922  Biso   1.000  C
  C31      1.0000 0.66060  0.82290  0.29078  Biso   1.000  C
  C32      1.0000 0.33940  0.82290  0.20922  Biso   1.000  C
  H17      1.0000 0.81970  0.67880  0.66790  Biso   1.000  H
  H18      1.0000 0.18030  0.67880  0.83210  Biso   1.000  H
  H19      1.0000 0.31970  0.17880  0.66790  Biso   1.000  H
  H20      1.0000 0.68030  0.17880  0.83210  Biso   1.000  H
  H21      1.0000 0.18030  0.32120  0.33210  Biso   1.000  H
  H22      1.0000 0.81970  0.32120  0.16790  Biso   1.000  H
  H23      1.0000 0.68030  0.82120  0.33210  Biso   1.000  H
  H24      1.0000 0.31970  0.82120  0.16790  Biso   1.000  H
  C33      1.0000 0.84010  0.73939  0.74433  Biso   1.000  C
  C34      1.0000 0.15990  0.73939  0.75567  Biso   1.000  C
  C35      1.0000 0.34010  0.23939  0.74433  Biso   1.000  C
  C36      1.0000 0.65990  0.23939  0.75567  Biso   1.000  C
  C37      1.0000 0.15990  0.26061  0.25567  Biso   1.000  C
  C38      1.0000 0.84010  0.26061  0.24433  Biso   1.000  C
  C39      1.0000 0.65990  0.76061  0.25567  Biso   1.000  C
  C40      1.0000 0.34010  0.76061  0.24433  Biso   1.000  C
  C41      1.0000 0.87060  0.73414  0.80579  Biso   1.000  C
  C42      1.0000 0.12940  0.73414  0.69421  Biso   1.000  C
  C43      1.0000 0.37060  0.23414  0.80579  Biso   1.000  C
  C44      1.0000 0.62940  0.23414  0.69421  Biso   1.000  C
  C45      1.0000 0.12940  0.26586  0.19421  Biso   1.000  C
  C46      1.0000 0.87060  0.26586  0.30579  Biso   1.000  C
  C47      1.0000 0.62940  0.76586  0.19421  Biso   1.000  C
  C48      1.0000 0.37060  0.76586  0.30579  Biso   1.000  C
  H25      1.0000 0.87380  0.77510  0.83020  Biso   1.000  H
  H26      1.0000 0.12620  0.77510  0.66980  Biso   1.000  H
  H27      1.0000 0.37380  0.27510  0.83020  Biso   1.000  H
  H28      1.0000 0.62620  0.27510  0.66980  Biso   1.000  H
  H29      1.0000 0.12620  0.22490  0.16980  Biso   1.000  H
  H30      1.0000 0.87380  0.22490  0.33020  Biso   1.000  H
  H31      1.0000 0.62620  0.72490  0.16980  Biso   1.000  H
  H32      1.0000 0.37380  0.72490  0.33020  Biso   1.000  H
  C49      1.0000 0.92410  0.66720  0.89894  Biso   1.000  C
  C50      1.0000 0.07590  0.66720  0.60106  Biso   1.000  C
  C51      1.0000 0.42410  0.16720  0.89894  Biso   1.000  C
  C52      1.0000 0.57590  0.16720  0.60106  Biso   1.000  C
  C53      1.0000 0.07590  0.33280  0.10106  Biso   1.000  C
  C54      1.0000 0.92410  0.33280  0.39894  Biso   1.000  C
  C55      1.0000 0.57590  0.83280  0.10106  Biso   1.000  C
  C56      1.0000 0.42410  0.83280  0.39894  Biso   1.000  C
  C57      1.0000 0.86890  0.54940  0.69198  Biso   1.000  C
  C58      1.0000 0.13110  0.54940  0.80802  Biso   1.000  C
  C59      1.0000 0.36890  0.04940  0.69198  Biso   1.000  C
  C60      1.0000 0.63110  0.04940  0.80802  Biso   1.000  C
  C61      1.0000 0.13110  0.45060  0.30802  Biso   1.000  C
  C62      1.0000 0.86890  0.45060  0.19198  Biso   1.000  C
  C63      1.0000 0.63110  0.95060  0.30802  Biso   1.000  C
  C64      1.0000 0.36890  0.95060  0.19198  Biso   1.000  C
  C65      1.0000 0.81200  0.81040  0.71540  Biso   1.000  C
  C66      1.0000 0.18800  0.81040  0.78460  Biso   1.000  C
  C67      1.0000 0.31200  0.31040  0.71540  Biso   1.000  C
  C68      1.0000 0.68800  0.31040  0.78460  Biso   1.000  C
  C69      1.0000 0.18800  0.18960  0.28460  Biso   1.000  C
  C70      1.0000 0.81200  0.18960  0.21540  Biso   1.000  C
  C71      1.0000 0.68800  0.68960  0.28460  Biso   1.000  C
  C72      1.0000 0.31200  0.68960  0.21540  Biso   1.000  C
  C73      1.0000 0.89340  0.84150  0.68160  Biso   1.000  C
  C74      1.0000 0.10660  0.84150  0.81840  Biso   1.000  C
  C75      1.0000 0.39340  0.34150  0.68160  Biso   1.000  C
  C76      1.0000 0.60660  0.34150  0.81840  Biso   1.000  C
  C77      1.0000 0.10660  0.15850  0.31840  Biso   1.000  C
  C78      1.0000 0.89340  0.15850  0.18160  Biso   1.000  C
  C79      1.0000 0.60660  0.65850  0.31840  Biso   1.000  C
  C80      1.0000 0.39340  0.65850  0.18160  Biso   1.000  C
  H33      1.0000 0.87720  0.88690  0.66410  Biso   1.000  H
  H34      1.0000 0.12280  0.88690  0.83590  Biso   1.000  H
  H35      1.0000 0.37720  0.38690  0.66410  Biso   1.000  H
  H36      1.0000 0.62280  0.38690  0.83590  Biso   1.000  H
  H37      1.0000 0.12280  0.11310  0.33590  Biso   1.000  H
  H38      1.0000 0.87720  0.11310  0.16410  Biso   1.000  H
  H39      1.0000 0.62280  0.61310  0.33590  Biso   1.000  H
  H40      1.0000 0.37720  0.61310  0.16410  Biso   1.000  H
  H41      1.0000 0.91170  0.80990  0.64870  Biso   1.000  H
  H42      1.0000 0.08830  0.80990  0.85130  Biso   1.000  H
  H43      1.0000 0.41170  0.30990  0.64870  Biso   1.000  H
  H44      1.0000 0.58830  0.30990  0.85130  Biso   1.000  H
  H45      1.0000 0.08830  0.19010  0.35130  Biso   1.000  H
  H46      1.0000 0.91170  0.19010  0.14870  Biso   1.000  H
  H47      1.0000 0.58830  0.69010  0.35130  Biso   1.000  H
  H48      1.0000 0.41170  0.69010  0.14870  Biso   1.000  H
  H49      1.0000 0.94270  0.84750  0.71050  Biso   1.000  H
  H50      1.0000 0.05730  0.84750  0.78950  Biso   1.000  H
  H51      1.0000 0.44270  0.34750  0.71050  Biso   1.000  H
  H52      1.0000 0.55730  0.34750  0.78950  Biso   1.000  H
  H53      1.0000 0.05730  0.15250  0.28950  Biso   1.000  H
  H54      1.0000 0.94270  0.15250  0.21050  Biso   1.000  H
  H55      1.0000 0.55730  0.65250  0.28950  Biso   1.000  H
  H56      1.0000 0.44270  0.65250  0.21050  Biso   1.000  H
  C81      1.0000 0.73480  0.80050  0.66870  Biso   1.000  C
  C82      1.0000 0.26520  0.80050  0.83130  Biso   1.000  C
  C83      1.0000 0.23480  0.30050  0.66870  Biso   1.000  C
  C84      1.0000 0.76520  0.30050  0.83130  Biso   1.000  C
  C85      1.0000 0.26520  0.19950  0.33130  Biso   1.000  C
  C86      1.0000 0.73480  0.19950  0.16870  Biso   1.000  C
  C87      1.0000 0.76520  0.69950  0.33130  Biso   1.000  C
  C88      1.0000 0.23480  0.69950  0.16870  Biso   1.000  C
  H57      1.0000 0.68690  0.77330  0.68760  Biso   1.000  H
  H58      1.0000 0.31310  0.77330  0.81240  Biso   1.000  H
  H59      1.0000 0.18690  0.27330  0.68760  Biso   1.000  H
  H60      1.0000 0.81310  0.27330  0.81240  Biso   1.000  H
  H61      1.0000 0.31310  0.22670  0.31240  Biso   1.000  H
  H62      1.0000 0.68690  0.22670  0.18760  Biso   1.000  H
  H63      1.0000 0.81310  0.72670  0.31240  Biso   1.000  H
  H64      1.0000 0.18690  0.72670  0.18760  Biso   1.000  H
  H65      1.0000 0.75700  0.77590  0.63250  Biso   1.000  H
  H66      1.0000 0.24300  0.77590  0.86750  Biso   1.000  H
  H67      1.0000 0.25700  0.27590  0.63250  Biso   1.000  H
  H68      1.0000 0.74300  0.27590  0.86750  Biso   1.000  H
  H69      1.0000 0.24300  0.22410  0.36750  Biso   1.000  H
  H70      1.0000 0.75700  0.22410  0.13250  Biso   1.000  H
  H71      1.0000 0.74300  0.72410  0.36750  Biso   1.000  H
  H72      1.0000 0.25700  0.72410  0.13250  Biso   1.000  H
  H73      1.0000 0.71160  0.84630  0.65650  Biso   1.000  H
  H74      1.0000 0.28840  0.84630  0.84350  Biso   1.000  H
  H75      1.0000 0.21160  0.34630  0.65650  Biso   1.000  H
  H76      1.0000 0.78840  0.34630  0.84350  Biso   1.000  H
  H77      1.0000 0.28840  0.15370  0.34350  Biso   1.000  H
  H78      1.0000 0.71160  0.15370  0.15650  Biso   1.000  H
  H79      1.0000 0.78840  0.65370  0.34350  Biso   1.000  H
  H80      1.0000 0.21160  0.65370  0.15650  Biso   1.000  H
  C89      1.0000 0.78100  0.86330  0.76440  Biso   1.000  C
  C90      1.0000 0.21900  0.86330  0.73560  Biso   1.000  C
  C91      1.0000 0.28100  0.36330  0.76440  Biso   1.000  C
  C92      1.0000 0.71900  0.36330  0.73560  Biso   1.000  C
  C93      1.0000 0.21900  0.13670  0.23560  Biso   1.000  C
  C94      1.0000 0.78100  0.13670  0.26440  Biso   1.000  C
  C95      1.0000 0.71900  0.63670  0.23560  Biso   1.000  C
  C96      1.0000 0.28100  0.63670  0.26440  Biso   1.000  C
  H81      1.0000 0.72970  0.84420  0.78650  Biso   1.000  H
  H82      1.0000 0.27030  0.84420  0.71350  Biso   1.000  H
  H83      1.0000 0.22970  0.34420  0.78650  Biso   1.000  H
  H84      1.0000 0.77030  0.34420  0.71350  Biso   1.000  H
  H85      1.0000 0.27030  0.15580  0.21350  Biso   1.000  H
  H86      1.0000 0.72970  0.15580  0.28650  Biso   1.000  H
  H87      1.0000 0.77030  0.65580  0.21350  Biso   1.000  H
  H88      1.0000 0.22970  0.65580  0.28650  Biso   1.000  H
  H89      1.0000 0.76390  0.90710  0.74440  Biso   1.000  H
  H90      1.0000 0.23610  0.90710  0.75560  Biso   1.000  H
  H91      1.0000 0.26390  0.40710  0.74440  Biso   1.000  H
  H92      1.0000 0.73610  0.40710  0.75560  Biso   1.000  H
  H93      1.0000 0.23610  0.09290  0.25560  Biso   1.000  H
  H94      1.0000 0.76390  0.09290  0.24440  Biso   1.000  H
  H95      1.0000 0.73610  0.59290  0.25560  Biso   1.000  H
  H96      1.0000 0.26390  0.59290  0.24440  Biso   1.000  H
  H97      1.0000 0.82980  0.87210  0.79320  Biso   1.000  H
  H98      1.0000 0.17020  0.87210  0.70680  Biso   1.000  H
  H99      1.0000 0.32980  0.37210  0.79320  Biso   1.000  H
  H100     1.0000 0.67020  0.37210  0.70680  Biso   1.000  H
  H101     1.0000 0.17020  0.12790  0.20680  Biso   1.000  H
  H102     1.0000 0.82980  0.12790  0.29320  Biso   1.000  H
  H103     1.0000 0.67020  0.62790  0.20680  Biso   1.000  H
  H104     1.0000 0.32980  0.62790  0.29320  Biso   1.000  H
  C97      1.0000 0.96060  0.66989  0.13600  Biso   1.000  C
  C98      1.0000 0.03940  0.66989  0.36400  Biso   1.000  C
  C99      1.0000 0.46060  0.16989  0.13600  Biso   1.000  C
  C100     1.0000 0.53940  0.16989  0.36400  Biso   1.000  C
  C101     1.0000 0.03940  0.33011  0.86400  Biso   1.000  C
  C102     1.0000 0.96060  0.33011  0.63600  Biso   1.000  C
  C103     1.0000 0.53940  0.83011  0.86400  Biso   1.000  C
  C104     1.0000 0.46060  0.83011  0.63600  Biso   1.000  C
  C105     1.0000 0.98080  0.70961  0.19538  Biso   1.000  C
  C106     1.0000 0.01920  0.70961  0.30462  Biso   1.000  C
  C107     1.0000 0.48080  0.20961  0.19538  Biso   1.000  C
  C108     1.0000 0.51920  0.20961  0.30462  Biso   1.000  C
  C109     1.0000 0.01920  0.29039  0.80462  Biso   1.000  C
  C110     1.0000 0.98080  0.29039  0.69538  Biso   1.000  C
  C111     1.0000 0.51920  0.79039  0.80462  Biso   1.000  C
  C112     1.0000 0.48080  0.79039  0.69538  Biso   1.000  C
  C113     1.0000 0.00000  0.67260  0.25000  Biso   1.000  C
  C114     1.0000 0.50000  0.17260  0.25000  Biso   1.000  C
  C115     1.0000 0.00000  0.32740  0.75000  Biso   1.000  C
  C116     1.0000 0.50000  0.82740  0.75000  Biso   1.000  C
  H105     1.0000 0.00000  0.62310  0.25000  Biso   1.000  H
  H106     1.0000 0.50000  0.12310  0.25000  Biso   1.000  H
  H107     1.0000 0.00000  0.37690  0.75000  Biso   1.000  H
  H108     1.0000 0.50000  0.87690  0.75000  Biso   1.000  H
  C117     1.0000 0.98160  0.78330  0.19611  Biso   1.000  C
  C118     1.0000 0.01840  0.78330  0.30389  Biso   1.000  C
  C119     1.0000 0.48160  0.28330  0.19611  Biso   1.000  C
  C120     1.0000 0.51840  0.28330  0.30389  Biso   1.000  C
  C121     1.0000 0.01840  0.21670  0.80389  Biso   1.000  C
  C122     1.0000 0.98160  0.21670  0.69611  Biso   1.000  C
  C123     1.0000 0.51840  0.71670  0.80389  Biso   1.000  C
  C124     1.0000 0.48160  0.71670  0.69611  Biso   1.000  C
  H109     1.0000 0.96930  0.80780  0.15930  Biso   1.000  H
  H110     1.0000 0.03070  0.80780  0.34070  Biso   1.000  H
  H111     1.0000 0.46930  0.30780  0.15930  Biso   1.000  H
  H112     1.0000 0.53070  0.30780  0.34070  Biso   1.000  H
  H113     1.0000 0.03070  0.19220  0.84070  Biso   1.000  H
  H114     1.0000 0.96930  0.19220  0.65930  Biso   1.000  H
  H115     1.0000 0.53070  0.69220  0.84070  Biso   1.000  H
  H116     1.0000 0.46930  0.69220  0.65930  Biso   1.000  H
  C125     1.0000 0.00000  0.82180  0.25000  Biso   1.000  C
  C126     1.0000 0.50000  0.32180  0.25000  Biso   1.000  C
  C127     1.0000 0.00000  0.17820  0.75000  Biso   1.000  C
  C128     1.0000 0.50000  0.67820  0.75000  Biso   1.000  C
  C129     1.0000 0.10710  0.56137  0.04307  Biso   1.000  C
  C130     1.0000 0.89290  0.56137  0.45693  Biso   1.000  C
  C131     1.0000 0.60710  0.06137  0.04307  Biso   1.000  C
  C132     1.0000 0.39290  0.06137  0.45693  Biso   1.000  C
  C133     1.0000 0.89290  0.43863  0.95693  Biso   1.000  C
  C134     1.0000 0.10710  0.43863  0.54307  Biso   1.000  C
  C135     1.0000 0.39290  0.93863  0.95693  Biso   1.000  C
  C136     1.0000 0.60710  0.93863  0.54307  Biso   1.000  C
  H117     1.0000 0.06730  0.53030  0.06300  Biso   1.000  H
  H118     1.0000 0.93270  0.53030  0.43700  Biso   1.000  H
  H119     1.0000 0.56730  0.03030  0.06300  Biso   1.000  H
  H120     1.0000 0.43270  0.03030  0.43700  Biso   1.000  H
  H121     1.0000 0.93270  0.46970  0.93700  Biso   1.000  H
  H122     1.0000 0.06730  0.46970  0.56300  Biso   1.000  H
  H123     1.0000 0.43270  0.96970  0.93700  Biso   1.000  H
  H124     1.0000 0.56730  0.96970  0.56300  Biso   1.000  H
  C137     1.0000 0.19910  0.54770  0.04631  Biso   1.000  C
  C138     1.0000 0.80090  0.54770  0.45369  Biso   1.000  C
  C139     1.0000 0.69910  0.04770  0.04631  Biso   1.000  C
  C140     1.0000 0.30090  0.04770  0.45369  Biso   1.000  C
  C141     1.0000 0.80090  0.45230  0.95369  Biso   1.000  C
  C142     1.0000 0.19910  0.45230  0.54631  Biso   1.000  C
  C143     1.0000 0.30090  0.95230  0.95369  Biso   1.000  C
  C144     1.0000 0.69910  0.95230  0.54631  Biso   1.000  C
  H125     1.0000 0.22060  0.50790  0.06760  Biso   1.000  H
  H126     1.0000 0.77940  0.50790  0.43240  Biso   1.000  H
  H127     1.0000 0.72060  0.00790  0.06760  Biso   1.000  H
  H128     1.0000 0.27940  0.00790  0.43240  Biso   1.000  H
  H129     1.0000 0.77940  0.49210  0.93240  Biso   1.000  H
  H130     1.0000 0.22060  0.49210  0.56760  Biso   1.000  H
  H131     1.0000 0.27940  0.99210  0.93240  Biso   1.000  H
  H132     1.0000 0.72060  0.99210  0.56760  Biso   1.000  H
  C145     1.0000 0.25930  0.59408  0.01727  Biso   1.000  C
  C146     1.0000 0.74070  0.59408  0.48273  Biso   1.000  C
  C147     1.0000 0.75930  0.09408  0.01727  Biso   1.000  C
  C148     1.0000 0.24070  0.09408  0.48273  Biso   1.000  C
  C149     1.0000 0.74070  0.40592  0.98273  Biso   1.000  C
  C150     1.0000 0.25930  0.40592  0.51727  Biso   1.000  C
  C151     1.0000 0.24070  0.90592  0.98273  Biso   1.000  C
  C152     1.0000 0.75930  0.90592  0.51727  Biso   1.000  C
  C153     1.0000 0.22290  0.65030  0.98371  Biso   1.000  C
  C154     1.0000 0.77710  0.65030  0.51629  Biso   1.000  C
  C155     1.0000 0.72290  0.15030  0.98371  Biso   1.000  C
  C156     1.0000 0.27710  0.15030  0.51629  Biso   1.000  C
  C157     1.0000 0.77710  0.34970  0.01629  Biso   1.000  C
  C158     1.0000 0.22290  0.34970  0.48371  Biso   1.000  C
  C159     1.0000 0.27710  0.84970  0.01629  Biso   1.000  C
  C160     1.0000 0.72290  0.84970  0.48371  Biso   1.000  C
  H133     1.0000 0.26100  0.68130  0.96230  Biso   1.000  H
  H134     1.0000 0.73900  0.68130  0.53770  Biso   1.000  H
  H135     1.0000 0.76100  0.18130  0.96230  Biso   1.000  H
  H136     1.0000 0.23900  0.18130  0.53770  Biso   1.000  H
  H137     1.0000 0.73900  0.31870  0.03770  Biso   1.000  H
  H138     1.0000 0.26100  0.31870  0.46230  Biso   1.000  H
  H139     1.0000 0.23900  0.81870  0.03770  Biso   1.000  H
  H140     1.0000 0.76100  0.81870  0.46230  Biso   1.000  H
  C161     1.0000 0.13020  0.66020  0.98214  Biso   1.000  C
  C162     1.0000 0.86980  0.66020  0.51786  Biso   1.000  C
  C163     1.0000 0.63020  0.16020  0.98214  Biso   1.000  C
  C164     1.0000 0.36980  0.16020  0.51786  Biso   1.000  C
  C165     1.0000 0.86980  0.33980  0.01786  Biso   1.000  C
  C166     1.0000 0.13020  0.33980  0.48214  Biso   1.000  C
  C167     1.0000 0.36980  0.83980  0.01786  Biso   1.000  C
  C168     1.0000 0.63020  0.83980  0.48214  Biso   1.000  C
  H141     1.0000 0.10680  0.69790  0.95910  Biso   1.000  H
  H142     1.0000 0.89320  0.69790  0.54090  Biso   1.000  H
  H143     1.0000 0.60680  0.19790  0.95910  Biso   1.000  H
  H144     1.0000 0.39320  0.19790  0.54090  Biso   1.000  H
  H145     1.0000 0.89320  0.30210  0.04090  Biso   1.000  H
  H146     1.0000 0.10680  0.30210  0.45910  Biso   1.000  H
  H147     1.0000 0.39320  0.80210  0.04090  Biso   1.000  H
  H148     1.0000 0.60680  0.80210  0.45910  Biso   1.000  H
  C169     1.0000 0.35840  0.58483  0.02475  Biso   1.000  C
  C170     1.0000 0.64160  0.58483  0.47525  Biso   1.000  C
  C171     1.0000 0.85840  0.08483  0.02475  Biso   1.000  C
  C172     1.0000 0.14160  0.08483  0.47525  Biso   1.000  C
  C173     1.0000 0.64160  0.41517  0.97525  Biso   1.000  C
  C174     1.0000 0.35840  0.41517  0.52475  Biso   1.000  C
  C175     1.0000 0.14160  0.91517  0.97525  Biso   1.000  C
  C176     1.0000 0.85840  0.91517  0.52475  Biso   1.000  C
  C177     1.0000 0.51860  0.59327  0.03207  Biso   1.000  C
  C178     1.0000 0.48140  0.59327  0.46793  Biso   1.000  C
  C179     1.0000 0.01860  0.09327  0.03207  Biso   1.000  C
  C180     1.0000 0.98140  0.09327  0.46793  Biso   1.000  C
  C181     1.0000 0.48140  0.40673  0.96793  Biso   1.000  C
  C182     1.0000 0.51860  0.40673  0.53207  Biso   1.000  C
  C183     1.0000 0.98140  0.90673  0.96793  Biso   1.000  C
  C184     1.0000 0.01860  0.90673  0.53207  Biso   1.000  C
  C185     1.0000 0.76820  0.58590  0.06355  Biso   1.000  C
  C186     1.0000 0.23180  0.58590  0.43645  Biso   1.000  C
  C187     1.0000 0.26820  0.08590  0.06355  Biso   1.000  C
  C188     1.0000 0.73180  0.08590  0.43645  Biso   1.000  C
  C189     1.0000 0.23180  0.41410  0.93645  Biso   1.000  C
  C190     1.0000 0.76820  0.41410  0.56355  Biso   1.000  C
  C191     1.0000 0.73180  0.91410  0.93645  Biso   1.000  C
  C192     1.0000 0.26820  0.91410  0.56355  Biso   1.000  C
  H149     1.0000 0.80740  0.56170  0.09020  Biso   1.000  H
  H150     1.0000 0.19260  0.56170  0.40980  Biso   1.000  H
  H151     1.0000 0.30740  0.06170  0.09020  Biso   1.000  H
  H152     1.0000 0.69260  0.06170  0.40980  Biso   1.000  H
  H153     1.0000 0.19260  0.43830  0.90980  Biso   1.000  H
  H154     1.0000 0.80740  0.43830  0.59020  Biso   1.000  H
  H155     1.0000 0.69260  0.93830  0.90980  Biso   1.000  H
  H156     1.0000 0.30740  0.93830  0.59020  Biso   1.000  H
  C193     1.0000 0.67630  0.57270  0.06776  Biso   1.000  C
  C194     1.0000 0.32370  0.57270  0.43224  Biso   1.000  C
  C195     1.0000 0.17630  0.07270  0.06776  Biso   1.000  C
  C196     1.0000 0.82370  0.07270  0.43224  Biso   1.000  C
  C197     1.0000 0.32370  0.42730  0.93224  Biso   1.000  C
  C198     1.0000 0.67630  0.42730  0.56776  Biso   1.000  C
  C199     1.0000 0.82370  0.92730  0.93224  Biso   1.000  C
  C200     1.0000 0.17630  0.92730  0.56776  Biso   1.000  C
  H157     1.0000 0.65450  0.54000  0.09680  Biso   1.000  H
  H158     1.0000 0.34550  0.54000  0.40320  Biso   1.000  H
  H159     1.0000 0.15450  0.04000  0.09680  Biso   1.000  H
  H160     1.0000 0.84550  0.04000  0.40320  Biso   1.000  H
  H161     1.0000 0.34550  0.46000  0.90320  Biso   1.000  H
  H162     1.0000 0.65450  0.46000  0.59680  Biso   1.000  H
  H163     1.0000 0.84550  0.96000  0.90320  Biso   1.000  H
  H164     1.0000 0.15450  0.96000  0.59680  Biso   1.000  H
  C201     1.0000 0.61640  0.60813  0.02859  Biso   1.000  C
  C202     1.0000 0.38360  0.60813  0.47141  Biso   1.000  C
  C203     1.0000 0.11640  0.10813  0.02859  Biso   1.000  C
  C204     1.0000 0.88360  0.10813  0.47141  Biso   1.000  C
  C205     1.0000 0.38360  0.39187  0.97141  Biso   1.000  C
  C206     1.0000 0.61640  0.39187  0.52859  Biso   1.000  C
  C207     1.0000 0.88360  0.89187  0.97141  Biso   1.000  C
  C208     1.0000 0.11640  0.89187  0.52859  Biso   1.000  C
  C209     1.0000 0.65280  0.65614  0.98623  Biso   1.000  C
  C210     1.0000 0.34720  0.65614  0.51377  Biso   1.000  C
  C211     1.0000 0.15280  0.15614  0.98623  Biso   1.000  C
  C212     1.0000 0.84720  0.15614  0.51377  Biso   1.000  C
  C213     1.0000 0.34720  0.34386  0.01377  Biso   1.000  C
  C214     1.0000 0.65280  0.34386  0.48623  Biso   1.000  C
  C215     1.0000 0.84720  0.84386  0.01377  Biso   1.000  C
  C216     1.0000 0.15280  0.84386  0.48623  Biso   1.000  C
  H165     1.0000 0.61490  0.68140  0.95940  Biso   1.000  H
  H166     1.0000 0.38510  0.68140  0.54060  Biso   1.000  H
  H167     1.0000 0.11490  0.18140  0.95940  Biso   1.000  H
  H168     1.0000 0.88510  0.18140  0.54060  Biso   1.000  H
  H169     1.0000 0.38510  0.31860  0.04060  Biso   1.000  H
  H170     1.0000 0.61490  0.31860  0.45940  Biso   1.000  H
  H171     1.0000 0.88510  0.81860  0.04060  Biso   1.000  H
  H172     1.0000 0.11490  0.81860  0.45940  Biso   1.000  H
  C217     1.0000 0.74540  0.66600  0.98426  Biso   1.000  C
  C218     1.0000 0.25460  0.66600  0.51574  Biso   1.000  C
  C219     1.0000 0.24540  0.16600  0.98426  Biso   1.000  C
  C220     1.0000 0.75460  0.16600  0.51574  Biso   1.000  C
  C221     1.0000 0.25460  0.33400  0.01574  Biso   1.000  C
  C222     1.0000 0.74540  0.33400  0.48426  Biso   1.000  C
  C223     1.0000 0.75460  0.83400  0.01574  Biso   1.000  C
  C224     1.0000 0.24540  0.83400  0.48426  Biso   1.000  C
  H173     1.0000 0.76890  0.69760  0.95500  Biso   1.000  H
  H174     1.0000 0.23110  0.69760  0.54500  Biso   1.000  H
  H175     1.0000 0.26890  0.19760  0.95500  Biso   1.000  H
  H176     1.0000 0.73110  0.19760  0.54500  Biso   1.000  H
  H177     1.0000 0.23110  0.30240  0.04500  Biso   1.000  H
  H178     1.0000 0.76890  0.30240  0.45500  Biso   1.000  H
  H179     1.0000 0.73110  0.80240  0.04500  Biso   1.000  H
  H180     1.0000 0.26890  0.80240  0.45500  Biso   1.000  H
  C225     1.0000 0.00000  0.90410  0.25000  Biso   1.000  C
  C226     1.0000 0.50000  0.40410  0.25000  Biso   1.000  C
  C227     1.0000 0.00000  0.09590  0.75000  Biso   1.000  C
  C228     1.0000 0.50000  0.59590  0.75000  Biso   1.000  C
  C229     1.0000 0.07770  0.92760  0.20500  Biso   1.000  C
  C230     1.0000 0.92230  0.92760  0.29500  Biso   1.000  C
  C231     1.0000 0.57770  0.42760  0.20500  Biso   1.000  C
  C232     1.0000 0.42230  0.42760  0.29500  Biso   1.000  C
  C233     1.0000 0.92230  0.07240  0.79500  Biso   1.000  C
  C234     1.0000 0.07770  0.07240  0.70500  Biso   1.000  C
  C235     1.0000 0.42230  0.57240  0.79500  Biso   1.000  C
  C236     1.0000 0.57770  0.57240  0.70500  Biso   1.000  C
  H181     1.0000 0.07090  0.90360  0.16570  Biso   1.000  H
  H182     1.0000 0.92910  0.90360  0.33430  Biso   1.000  H
  H183     1.0000 0.57090  0.40360  0.16570  Biso   1.000  H
  H184     1.0000 0.42910  0.40360  0.33430  Biso   1.000  H
  H185     1.0000 0.92910  0.09640  0.83430  Biso   1.000  H
  H186     1.0000 0.07090  0.09640  0.66570  Biso   1.000  H
  H187     1.0000 0.42910  0.59640  0.83430  Biso   1.000  H
  H188     1.0000 0.57090  0.59640  0.66570  Biso   1.000  H
  H189     1.0000 0.13550  0.91550  0.22310  Biso   1.000  H
  H190     1.0000 0.86450  0.91550  0.27690  Biso   1.000  H
  H191     1.0000 0.63550  0.41550  0.22310  Biso   1.000  H
  H192     1.0000 0.36450  0.41550  0.27690  Biso   1.000  H
  H193     1.0000 0.86450  0.08450  0.77690  Biso   1.000  H
  H194     1.0000 0.13550  0.08450  0.72310  Biso   1.000  H
  H195     1.0000 0.36450  0.58450  0.77690  Biso   1.000  H
  H196     1.0000 0.63550  0.58450  0.72310  Biso   1.000  H
  H197     1.0000 0.07460  0.97810  0.19860  Biso   1.000  H
  H198     1.0000 0.92540  0.97810  0.30140  Biso   1.000  H
  H199     1.0000 0.57460  0.47810  0.19860  Biso   1.000  H
  H200     1.0000 0.42540  0.47810  0.30140  Biso   1.000  H
  H201     1.0000 0.92540  0.02190  0.80140  Biso   1.000  H
  H202     1.0000 0.07460  0.02190  0.69860  Biso   1.000  H
  H203     1.0000 0.42540  0.52190  0.80140  Biso   1.000  H
  H204     1.0000 0.57460  0.52190  0.69860  Biso   1.000  H
  C237     1.0000 0.90930  0.92760  0.21690  Biso   1.000  C
  C238     1.0000 0.09070  0.92760  0.28310  Biso   1.000  C
  C239     1.0000 0.40930  0.42760  0.21690  Biso   1.000  C
  C240     1.0000 0.59070  0.42760  0.28310  Biso   1.000  C
  C241     1.0000 0.09070  0.07240  0.78310  Biso   1.000  C
  C242     1.0000 0.90930  0.07240  0.71690  Biso   1.000  C
  C243     1.0000 0.59070  0.57240  0.78310  Biso   1.000  C
  C244     1.0000 0.40930  0.57240  0.71690  Biso   1.000  C
  H205     1.0000 0.90650  0.97860  0.21520  Biso   1.000  H
  H206     1.0000 0.09350  0.97860  0.28480  Biso   1.000  H
  H207     1.0000 0.40650  0.47860  0.21520  Biso   1.000  H
  H208     1.0000 0.59350  0.47860  0.28480  Biso   1.000  H
  H209     1.0000 0.09350  0.02140  0.78480  Biso   1.000  H
  H210     1.0000 0.90650  0.02140  0.71520  Biso   1.000  H
  H211     1.0000 0.59350  0.52140  0.78480  Biso   1.000  H
  H212     1.0000 0.40650  0.52140  0.71520  Biso   1.000  H
  H213     1.0000 0.14180  0.90990  0.25990  Biso   1.000  H
  H214     1.0000 0.85820  0.90990  0.24010  Biso   1.000  H
  H215     1.0000 0.64180  0.40990  0.25990  Biso   1.000  H
  H216     1.0000 0.35820  0.40990  0.24010  Biso   1.000  H
  H217     1.0000 0.85820  0.09010  0.74010  Biso   1.000  H
  H218     1.0000 0.14180  0.09010  0.75990  Biso   1.000  H
  H219     1.0000 0.35820  0.59010  0.74010  Biso   1.000  H
  H220     1.0000 0.64180  0.59010  0.75990  Biso   1.000  H
  H221     1.0000 0.90780  0.90870  0.17520  Biso   1.000  H
  H222     1.0000 0.09220  0.90870  0.32480  Biso   1.000  H
  H223     1.0000 0.40780  0.40870  0.17520  Biso   1.000  H
  H224     1.0000 0.59220  0.40870  0.32480  Biso   1.000  H
  H225     1.0000 0.09220  0.09130  0.82480  Biso   1.000  H
  H226     1.0000 0.90780  0.09130  0.67520  Biso   1.000  H
  H227     1.0000 0.59220  0.59130  0.82480  Biso   1.000  H
  H228     1.0000 0.40780  0.59130  0.67520  Biso   1.000  H
  C245     1.0000 0.00830  0.93970  0.31130  Biso   1.000  C
  C246     1.0000 0.99170  0.93970  0.18870  Biso   1.000  C
  C247     1.0000 0.50830  0.43970  0.31130  Biso   1.000  C
  C248     1.0000 0.49170  0.43970  0.18870  Biso   1.000  C
  C249     1.0000 0.99170  0.06030  0.68870  Biso   1.000  C
  C250     1.0000 0.00830  0.06030  0.81130  Biso   1.000  C
  C251     1.0000 0.49170  0.56030  0.68870  Biso   1.000  C
  C252     1.0000 0.50830  0.56030  0.81130  Biso   1.000  C
  H229     1.0000 0.93360  0.92860  0.17060  Biso   1.000  H
  H230     1.0000 0.06640  0.92860  0.32940  Biso   1.000  H
  H231     1.0000 0.43360  0.42860  0.17060  Biso   1.000  H
  H232     1.0000 0.56640  0.42860  0.32940  Biso   1.000  H
  H233     1.0000 0.06640  0.07140  0.82940  Biso   1.000  H
  H234     1.0000 0.93360  0.07140  0.67060  Biso   1.000  H
  H235     1.0000 0.56640  0.57140  0.82940  Biso   1.000  H
  H236     1.0000 0.43360  0.57140  0.67060  Biso   1.000  H
  H237     1.0000 0.03920  0.92320  0.16150  Biso   1.000  H
  H238     1.0000 0.96080  0.92320  0.33850  Biso   1.000  H
  H239     1.0000 0.53920  0.42320  0.16150  Biso   1.000  H
  H240     1.0000 0.46080  0.42320  0.33850  Biso   1.000  H
  H241     1.0000 0.96080  0.07680  0.83850  Biso   1.000  H
  H242     1.0000 0.03920  0.07680  0.66150  Biso   1.000  H
  H243     1.0000 0.46080  0.57680  0.83850  Biso   1.000  H
  H244     1.0000 0.53920  0.57680  0.66150  Biso   1.000  H
  H245     1.0000 0.00310  0.99020  0.30590  Biso   1.000  H
  H246     1.0000 0.99690  0.99020  0.19410  Biso   1.000  H
  H247     1.0000 0.50310  0.49020  0.30590  Biso   1.000  H
  H248     1.0000 0.49690  0.49020  0.19410  Biso   1.000  H
  H249     1.0000 0.99690  0.00980  0.69410  Biso   1.000  H
  H250     1.0000 0.00310  0.00980  0.80590  Biso   1.000  H
  H251     1.0000 0.49690  0.50980  0.69410  Biso   1.000  H
  H252     1.0000 0.50310  0.50980  0.80590  Biso   1.000  H
