data_image0
_cell_length_a       10.7533
_cell_length_b       17.7516
_cell_length_c       20.3492
_cell_angle_alpha    96.841
_cell_angle_beta     101.606
_cell_angle_gamma    103.362

_symmetry_space_group_name_H-M    "P 1"
_symmetry_int_tables_number       1

loop_
  _symmetry_equiv_pos_as_xyz
  'x, y, z'

loop_
  _atom_site_label
  _atom_site_occupancy
  _atom_site_fract_x
  _atom_site_fract_y
  _atom_site_fract_z
  _atom_site_thermal_displace_type
  _atom_site_B_iso_or_equiv
  _atom_site_type_symbol
  Cu1      1.0000 0.40850  0.74715  0.03918  Biso   1.000  Cu
  Cu2      1.0000 0.59150  0.25285  0.96082  Biso   1.000  Cu
  Cu3      1.0000 0.85533  0.75591  0.54672  Biso   1.000  Cu
  Cu4      1.0000 0.14467  0.24409  0.45328  Biso   1.000  Cu
  S1       1.0000 0.38569  0.57058  0.85619  Biso   1.000  S
  S2       1.0000 0.61431  0.42942  0.14381  Biso   1.000  S
  S3       1.0000 0.09504  0.52974  0.79912  Biso   1.000  S
  S4       1.0000 0.90496  0.47026  0.20088  Biso   1.000  S
  S5       1.0000 0.65590  0.59882  0.75430  Biso   1.000  S
  S6       1.0000 0.34410  0.40118  0.24570  Biso   1.000  S
  S7       1.0000 0.49420  0.57105  0.60904  Biso   1.000  S
  S8       1.0000 0.50580  0.42895  0.39096  Biso   1.000  S
  S9       1.0000 0.41429  0.93153  0.21121  Biso   1.000  S
  S10      1.0000 0.58571  0.06847  0.78879  Biso   1.000  S
  S11      1.0000 0.15121  0.95386  0.14235  Biso   1.000  S
  S12      1.0000 0.84879  0.04614  0.85765  Biso   1.000  S
  S13      1.0000 0.83624  0.85949  0.91880  Biso   1.000  S
  S14      1.0000 0.16376  0.14051  0.08120  Biso   1.000  S
  S15      1.0000 0.60466  0.92334  0.92764  Biso   1.000  S
  S16      1.0000 0.39534  0.07666  0.07236  Biso   1.000  S
  S17      1.0000 0.74044  0.63341  0.13169  Biso   1.000  S
  S18      1.0000 0.25956  0.36659  0.86831  Biso   1.000  S
  S19      1.0000 0.92923  0.77871  0.21526  Biso   1.000  S
  S20      1.0000 0.07077  0.22129  0.78474  Biso   1.000  S
  S21      1.0000 0.68890  0.94833  0.36253  Biso   1.000  S
  S22      1.0000 0.31110  0.05167  0.63747  Biso   1.000  S
  S23      1.0000 0.54146  0.86825  0.45580  Biso   1.000  S
  S24      1.0000 0.45854  0.13175  0.54420  Biso   1.000  S
  S25      1.0000 0.05307  0.61456  0.10258  Biso   1.000  S
  S26      1.0000 0.94693  0.38544  0.89742  Biso   1.000  S
  S27      1.0000 0.18507  0.65783  0.25141  Biso   1.000  S
  S28      1.0000 0.81493  0.34217  0.74859  Biso   1.000  S
  S29      1.0000 0.59570  0.57995  0.28334  Biso   1.000  S
  S30      1.0000 0.40430  0.42005  0.71666  Biso   1.000  S
  S31      1.0000 0.88422  0.63499  0.34510  Biso   1.000  S
  S32      1.0000 0.11578  0.36501  0.65490  Biso   1.000  S
  S33      1.0000 0.91910  0.88715  0.75967  Biso   1.000  S
  S34      1.0000 0.08090  0.11285  0.24033  Biso   1.000  S
  S35      1.0000 0.63025  0.85864  0.75501  Biso   1.000  S
  S36      1.0000 0.36975  0.14136  0.24499  Biso   1.000  S
  S37      1.0000 0.29790  0.69111  0.71985  Biso   1.000  S
  S38      1.0000 0.70210  0.30889  0.28015  Biso   1.000  S
  S39      1.0000 0.07000  0.57747  0.61980  Biso   1.000  S
  S40      1.0000 0.93000  0.42253  0.38020  Biso   1.000  S
  O1       1.0000 0.04540  0.84990  0.54300  Biso   1.000  O
  O2       1.0000 0.95460  0.15010  0.45700  Biso   1.000  O
  H1       1.0000 0.03340  0.89980  0.55330  Biso   1.000  H
  H2       1.0000 0.96660  0.10020  0.44670  Biso   1.000  H
  N1       1.0000 0.36180  0.66570  0.95260  Biso   1.000  N
  N2       1.0000 0.63820  0.33430  0.04740  Biso   1.000  N
  N3       1.0000 0.23500  0.63480  0.91330  Biso   1.000  N
  N4       1.0000 0.76500  0.36520  0.08670  Biso   1.000  N
  N5       1.0000 0.73300  0.64850  0.64580  Biso   1.000  N
  N6       1.0000 0.26700  0.35150  0.35420  Biso   1.000  N
  N7       1.0000 0.69260  0.64960  0.57680  Biso   1.000  N
  N8       1.0000 0.30740  0.35040  0.42320  Biso   1.000  N
  N9       1.0000 0.40540  0.84090  0.10440  Biso   1.000  N
  N10      1.0000 0.59460  0.15910  0.89560  Biso   1.000  N
  N11      1.0000 0.28900  0.86320  0.09020  Biso   1.000  N
  N12      1.0000 0.71100  0.13680  0.90980  Biso   1.000  N
  N13      1.0000 0.64230  0.80470  0.98180  Biso   1.000  N
  N14      1.0000 0.35770  0.19530  0.01820  Biso   1.000  N
  N15      1.0000 0.52690  0.81860  0.99470  Biso   1.000  N
  N16      1.0000 0.47310  0.18140  0.00530  Biso   1.000  N
  N17      1.0000 0.26300  0.68720  0.07630  Biso   1.000  N
  N18      1.0000 0.73700  0.31280  0.92370  Biso   1.000  N
  N19      1.0000 0.29070  0.69750  0.14640  Biso   1.000  N
  N20      1.0000 0.70930  0.30250  0.85360  Biso   1.000  N
  N21      1.0000 0.71520  0.66370  0.40980  Biso   1.000  N
  N22      1.0000 0.28480  0.33630  0.59020  Biso   1.000  N
  N23      1.0000 0.83870  0.69580  0.45280  Biso   1.000  N
  N24      1.0000 0.16130  0.30420  0.54720  Biso   1.000  N
  N25      1.0000 0.57000  0.70840  0.10080  Biso   1.000  N
  N26      1.0000 0.43000  0.29160  0.89920  Biso   1.000  N
  N27      1.0000 0.67930  0.76380  0.14380  Biso   1.000  N
  N28      1.0000 0.32070  0.23620  0.85620  Biso   1.000  N
  N29      1.0000 0.77270  0.85830  0.45170  Biso   1.000  N
  N30      1.0000 0.22730  0.14170  0.54830  Biso   1.000  N
  N31      1.0000 0.73310  0.81520  0.49960  Biso   1.000  N
  N32      1.0000 0.26690  0.18480  0.50040  Biso   1.000  N
  N33      1.0000 0.85860  0.81620  0.63810  Biso   1.000  N
  N34      1.0000 0.14140  0.18380  0.36190  Biso   1.000  N
  N35      1.0000 0.73990  0.81550  0.65340  Biso   1.000  N
  N36      1.0000 0.26010  0.18450  0.34660  Biso   1.000  N
  N37      1.0000 0.09510  0.72560  0.63800  Biso   1.000  N
  N38      1.0000 0.90490  0.27440  0.36200  Biso   1.000  N
  N39      1.0000 0.97950  0.69110  0.58890  Biso   1.000  N
  N40      1.0000 0.02050  0.30890  0.41110  Biso   1.000  N
  C1       1.0000 0.44930  0.63820  0.92950  Biso   1.000  C
  C2       1.0000 0.55070  0.36180  0.07050  Biso   1.000  C
  H3       1.0000 0.53840  0.65390  0.95080  Biso   1.000  H
  H4       1.0000 0.46160  0.34610  0.04920  Biso   1.000  H
  C3       1.0000 0.23200  0.58350  0.86140  Biso   1.000  C
  C4       1.0000 0.76800  0.41650  0.13860  Biso   1.000  C
  C5       1.0000 0.96680  0.57230  0.81540  Biso   1.000  C
  C6       1.0000 0.03320  0.42770  0.18460  Biso   1.000  C
  H5       1.0000 0.88850  0.52930  0.80870  Biso   1.000  H
  H6       1.0000 0.11150  0.47070  0.19130  Biso   1.000  H
  H7       1.0000 0.99110  0.59510  0.86340  Biso   1.000  H
  H8       1.0000 0.00890  0.40490  0.13660  Biso   1.000  H
  C7       1.0000 0.93290  0.62450  0.78260  Biso   1.000  C
  C8       1.0000 0.06710  0.37550  0.21740  Biso   1.000  C
  H9       1.0000 0.91480  0.60300  0.73460  Biso   1.000  H
  H10      1.0000 0.08520  0.39700  0.26540  Biso   1.000  H
  H11      1.0000 0.00970  0.66890  0.79200  Biso   1.000  H
  H12      1.0000 0.99030  0.33110  0.20800  Biso   1.000  H
  C9       1.0000 0.81550  0.65820  0.79300  Biso   1.000  C
  C10      1.0000 0.18450  0.34180  0.20700  Biso   1.000  C
  H13      1.0000 0.82560  0.70750  0.77600  Biso   1.000  H
  H14      1.0000 0.17440  0.29250  0.22400  Biso   1.000  H
  H15      1.0000 0.82230  0.67010  0.84150  Biso   1.000  H
  H16      1.0000 0.17770  0.32990  0.15850  Biso   1.000  H
  C11      1.0000 0.63940  0.61000  0.66910  Biso   1.000  C
  C12      1.0000 0.36060  0.39000  0.33090  Biso   1.000  C
  C13      1.0000 0.57410  0.61170  0.55210  Biso   1.000  C
  C14      1.0000 0.42590  0.38830  0.44790  Biso   1.000  C
  H17      1.0000 0.53340  0.60630  0.50630  Biso   1.000  H
  H18      1.0000 0.46660  0.39370  0.49370  Biso   1.000  H
  C15      1.0000 0.47900  0.87180  0.16380  Biso   1.000  C
  C16      1.0000 0.52100  0.12820  0.83620  Biso   1.000  C
  H19      1.0000 0.56050  0.86250  0.17960  Biso   1.000  H
  H20      1.0000 0.43950  0.13750  0.82040  Biso   1.000  H
  C17      1.0000 0.28090  0.91100  0.14180  Biso   1.000  C
  C18      1.0000 0.71910  0.08900  0.85820  Biso   1.000  C
  C19      1.0000 0.05760  0.91750  0.05520  Biso   1.000  C
  C20      1.0000 0.94240  0.08250  0.94480  Biso   1.000  C
  H21      1.0000 0.00490  0.95310  0.04160  Biso   1.000  H
  H22      1.0000 0.99510  0.04690  0.95840  Biso   1.000  H
  H23      1.0000 0.11820  0.91740  0.02580  Biso   1.000  H
  H24      1.0000 0.88180  0.08260  0.97420  Biso   1.000  H
  C21      1.0000 0.96750  0.83510  0.04500  Biso   1.000  C
  C22      1.0000 0.03250  0.16490  0.95500  Biso   1.000  C
  H25      1.0000 0.89420  0.83730  0.06560  Biso   1.000  H
  H26      1.0000 0.10580  0.16270  0.93440  Biso   1.000  H
  H27      1.0000 0.01550  0.80200  0.06800  Biso   1.000  H
  H28      1.0000 0.98450  0.19800  0.93200  Biso   1.000  H
  C23      1.0000 0.91490  0.79870  0.97000  Biso   1.000  C
  C24      1.0000 0.08510  0.20130  0.03000  Biso   1.000  C
  H29      1.0000 0.85190  0.74860  0.96620  Biso   1.000  H
  H30      1.0000 0.14810  0.25140  0.03380  Biso   1.000  H
  H31      1.0000 0.98710  0.78860  0.95170  Biso   1.000  H
  H32      1.0000 0.01290  0.21140  0.04830  Biso   1.000  H
  C25      1.0000 0.69360  0.85560  0.94710  Biso   1.000  C
  C26      1.0000 0.30640  0.14440  0.05290  Biso   1.000  C
  C27      1.0000 0.49700  0.87790  0.97050  Biso   1.000  C
  C28      1.0000 0.50300  0.12210  0.02950  Biso   1.000  C
  H33      1.0000 0.42310  0.89430  0.97600  Biso   1.000  H
  H34      1.0000 0.57690  0.10570  0.02400  Biso   1.000  H
  C29      1.0000 0.14420  0.64550  0.04750  Biso   1.000  C
  C30      1.0000 0.85580  0.35450  0.95250  Biso   1.000  C
  H35      1.0000 0.11190  0.63370  0.00050  Biso   1.000  H
  H36      1.0000 0.88810  0.36630  0.99950  Biso   1.000  H
  C31      1.0000 0.18900  0.66230  0.16700  Biso   1.000  C
  C32      1.0000 0.81100  0.33770  0.83300  Biso   1.000  C
  C33      1.0000 0.34370  0.72410  0.29750  Biso   1.000  C
  C34      1.0000 0.65630  0.27590  0.70250  Biso   1.000  C
  H37      1.0000 0.35010  0.77470  0.28310  Biso   1.000  H
  H38      1.0000 0.64990  0.22530  0.71690  Biso   1.000  H
  H39      1.0000 0.34500  0.73180  0.34560  Biso   1.000  H
  H40      1.0000 0.65500  0.26820  0.65440  Biso   1.000  H
  C35      1.0000 0.46470  0.69750  0.28860  Biso   1.000  C
  C36      1.0000 0.53530  0.30250  0.71140  Biso   1.000  C
  H41      1.0000 0.47400  0.70010  0.24240  Biso   1.000  H
  H42      1.0000 0.52600  0.29990  0.75760  Biso   1.000  H
  H43      1.0000 0.54170  0.73380  0.31930  Biso   1.000  H
  H44      1.0000 0.45830  0.26620  0.68070  Biso   1.000  H
  C37      1.0000 0.46040  0.61520  0.30210  Biso   1.000  C
  C38      1.0000 0.53960  0.38480  0.69790  Biso   1.000  C
  H45      1.0000 0.37870  0.57970  0.27480  Biso   1.000  H
  H46      1.0000 0.62130  0.42030  0.72520  Biso   1.000  H
  H47      1.0000 0.46030  0.61400  0.34960  Biso   1.000  H
  H48      1.0000 0.53970  0.38600  0.65040  Biso   1.000  H
  C39      1.0000 0.72510  0.63020  0.35130  Biso   1.000  C
  C40      1.0000 0.27490  0.36980  0.64870  Biso   1.000  C
  C41      1.0000 0.93270  0.68450  0.42620  Biso   1.000  C
  C42      1.0000 0.06730  0.31550  0.57380  Biso   1.000  C
  H49      1.0000 0.02060  0.70210  0.44960  Biso   1.000  H
  H50      1.0000 0.97940  0.29790  0.55040  Biso   1.000  H
  C43      1.0000 0.58920  0.63920  0.09140  Biso   1.000  C
  C44      1.0000 0.41080  0.36080  0.90860  Biso   1.000  C
  H51      1.0000 0.52520  0.59590  0.06480  Biso   1.000  H
  H52      1.0000 0.47480  0.40410  0.93520  Biso   1.000  H
  C45      1.0000 0.77370  0.73160  0.16320  Biso   1.000  C
  C46      1.0000 0.22630  0.26840  0.83680  Biso   1.000  C
  C47      1.0000 0.90460  0.87150  0.25020  Biso   1.000  C
  C48      1.0000 0.09540  0.12850  0.74980  Biso   1.000  C
  H53      1.0000 0.98910  0.91020  0.26530  Biso   1.000  H
  H54      1.0000 0.01090  0.08980  0.73470  Biso   1.000  H
  H55      1.0000 0.85060  0.88970  0.21460  Biso   1.000  H
  H56      1.0000 0.14940  0.11030  0.78540  Biso   1.000  H
  C49      1.0000 0.84220  0.86570  0.30680  Biso   1.000  C
  C50      1.0000 0.15780  0.13430  0.69320  Biso   1.000  C
  H57      1.0000 0.88830  0.83970  0.33920  Biso   1.000  H
  H58      1.0000 0.11170  0.16030  0.66080  Biso   1.000  H
  H59      1.0000 0.75230  0.83360  0.29020  Biso   1.000  H
  H60      1.0000 0.24770  0.16640  0.70980  Biso   1.000  H
  C51      1.0000 0.84150  0.94530  0.34260  Biso   1.000  C
  C52      1.0000 0.15850  0.05470  0.65740  Biso   1.000  C
  H61      1.0000 0.86260  0.98390  0.31380  Biso   1.000  H
  H62      1.0000 0.13740  0.01610  0.68620  Biso   1.000  H
  H63      1.0000 0.91000  0.96000  0.38440  Biso   1.000  H
  H64      1.0000 0.09000  0.04000  0.61560  Biso   1.000  H
  C53      1.0000 0.68110  0.88880  0.42500  Biso   1.000  C
  C54      1.0000 0.31890  0.11120  0.57500  Biso   1.000  C
  C55      1.0000 0.61690  0.81490  0.50680  Biso   1.000  C
  C56      1.0000 0.38310  0.18510  0.49320  Biso   1.000  C
  H65      1.0000 0.57790  0.78800  0.53700  Biso   1.000  H
  H66      1.0000 0.42210  0.21200  0.46300  Biso   1.000  H
  C57      1.0000 0.95930  0.85140  0.68770  Biso   1.000  C
  C58      1.0000 0.04070  0.14860  0.31230  Biso   1.000  C
  H67      1.0000 0.04570  0.85670  0.68430  Biso   1.000  H
  H68      1.0000 0.95430  0.14330  0.31570  Biso   1.000  H
  C59      1.0000 0.75680  0.84940  0.71620  Biso   1.000  C
  C60      1.0000 0.24320  0.15060  0.28380  Biso   1.000  C
  C61      1.0000 0.49390  0.83950  0.68100  Biso   1.000  C
  C62      1.0000 0.50610  0.16050  0.31900  Biso   1.000  C
  H69      1.0000 0.51500  0.87560  0.65010  Biso   1.000  H
  H70      1.0000 0.48500  0.12440  0.34990  Biso   1.000  H
  H71      1.0000 0.47690  0.78630  0.65690  Biso   1.000  H
  H72      1.0000 0.52310  0.21370  0.34310  Biso   1.000  H
  C63      1.0000 0.37270  0.85050  0.70500  Biso   1.000  C
  C64      1.0000 0.62730  0.14950  0.29500  Biso   1.000  C
  H73      1.0000 0.39180  0.90400  0.72880  Biso   1.000  H
  H74      1.0000 0.60820  0.09600  0.27120  Biso   1.000  H
  H75      1.0000 0.30110  0.84360  0.66530  Biso   1.000  H
  H76      1.0000 0.69890  0.15640  0.33470  Biso   1.000  H
  C65      1.0000 0.32700  0.79440  0.75180  Biso   1.000  C
  C66      1.0000 0.67300  0.20560  0.24820  Biso   1.000  C
  H77      1.0000 0.24640  0.80330  0.76140  Biso   1.000  H
  H78      1.0000 0.75360  0.19670  0.23860  Biso   1.000  H
  H79      1.0000 0.39280  0.80770  0.79460  Biso   1.000  H
  H80      1.0000 0.60720  0.19230  0.20540  Biso   1.000  H
  C67      1.0000 0.15290  0.67240  0.65800  Biso   1.000  C
  C68      1.0000 0.84710  0.32760  0.34200  Biso   1.000  C
  C69      1.0000 0.95630  0.61620  0.57430  Biso   1.000  C
  C70      1.0000 0.04370  0.38380  0.42570  Biso   1.000  C
  H81      1.0000 0.88330  0.58540  0.54150  Biso   1.000  H
  H82      1.0000 0.11670  0.41460  0.45850  Biso   1.000  H
  C71      1.0000 0.14920  0.85590  0.53270  Biso   1.000  C
  C72      1.0000 0.85080  0.14410  0.46730  Biso   1.000  C
  H83      1.0000 0.19100  0.89400  0.57410  Biso   1.000  H
  H84      1.0000 0.80900  0.10600  0.42590  Biso   1.000  H
  H85      1.0000 0.13390  0.88860  0.49860  Biso   1.000  H
  H86      1.0000 0.86610  0.11140  0.50140  Biso   1.000  H
  C73      1.0000 0.27930  0.85140  0.51810  Biso   1.000  C
  C74      1.0000 0.72070  0.14860  0.48190  Biso   1.000  C
  H87      1.0000 0.27310  0.79860  0.49770  Biso   1.000  H
  H88      1.0000 0.72690  0.20140  0.50230  Biso   1.000  H
  H89      1.0000 0.34610  0.86610  0.55990  Biso   1.000  H
  H90      1.0000 0.65390  0.13390  0.44010  Biso   1.000  H
  H91      1.0000 0.30170  0.88660  0.48750  Biso   1.000  H
  H92      1.0000 0.69830  0.11340  0.51250  Biso   1.000  H
  Cl1      1.0000 0.27190  0.96146  0.36860  Biso   1.000  Cl
  Cl2      1.0000 0.72810  0.03854  0.63140  Biso   1.000  Cl
  O3       1.0000 0.20440  0.99410  0.40560  Biso   1.000  O
  O4       1.0000 0.79560  0.00590  0.59440  Biso   1.000  O
  O5       1.0000 0.23430  0.98550  0.30390  Biso   1.000  O
  O6       1.0000 0.76570  0.01450  0.69610  Biso   1.000  O
  O7       1.0000 0.23950  0.88190  0.35780  Biso   1.000  O
  O8       1.0000 0.76050  0.11810  0.64220  Biso   1.000  O
  O9       1.0000 0.40960  0.99360  0.39160  Biso   1.000  O
  O10      1.0000 0.59040  0.00640  0.60840  Biso   1.000  O
  Cl3      1.0000 0.24040  0.61130  0.45428  Biso   1.000  Cl
  Cl4      1.0000 0.75960  0.38870  0.54572  Biso   1.000  Cl
  O11      1.0000 0.22090  0.66090  0.50890  Biso   1.000  O
  O12      1.0000 0.77910  0.33910  0.49110  Biso   1.000  O
  O13      1.0000 0.15820  0.60950  0.39410  Biso   1.000  O
  O14      1.0000 0.84180  0.39050  0.60590  Biso   1.000  O
  O15      1.0000 0.35760  0.66510  0.45330  Biso   1.000  O
  O16      1.0000 0.64240  0.33490  0.54670  Biso   1.000  O
  O17      1.0000 0.28220  0.54580  0.46780  Biso   1.000  O
  O18      1.0000 0.71780  0.45420  0.53220  Biso   1.000  O
  Cl5      1.0000 0.23864  0.96529  0.87108  Biso   1.000  Cl
  Cl6      1.0000 0.76136  0.03471  0.12892  Biso   1.000  Cl
  O19      1.0000 0.16970  0.01650  0.89440  Biso   1.000  O
  O20      1.0000 0.83030  0.98350  0.10560  Biso   1.000  O
  O21      1.0000 0.21670  0.95740  0.79950  Biso   1.000  O
  O22      1.0000 0.78330  0.04260  0.20050  Biso   1.000  O
  O23      1.0000 0.37570  0.99450  0.90140  Biso   1.000  O
  O24      1.0000 0.62430  0.00550  0.09860  Biso   1.000  O
  O25      1.0000 0.19370  0.88990  0.88840  Biso   1.000  O
  O26      1.0000 0.80630  0.11010  0.11160  Biso   1.000  O
  Cl7      1.0000 0.26665  0.46376  0.05483  Biso   1.000  Cl
  Cl8      1.0000 0.73335  0.53624  0.94517  Biso   1.000  Cl
  O27      1.0000 0.31420  0.51780  0.11810  Biso   1.000  O
  O28      1.0000 0.68580  0.48220  0.88190  Biso   1.000  O
  O29      1.0000 0.13210  0.45670  0.03310  Biso   1.000  O
  O30      1.0000 0.86790  0.54330  0.96690  Biso   1.000  O
  O31      1.0000 0.33500  0.49360  0.00690  Biso   1.000  O
  O32      1.0000 0.66500  0.50640  0.99310  Biso   1.000  O
  O33      1.0000 0.28560  0.39040  0.06510  Biso   1.000  O
  O34      1.0000 0.71440  0.60960  0.93490  Biso   1.000  O
