data_image0
_cell_length_a       8.37
_cell_length_b       8.755
_cell_length_c       12.127
_cell_angle_alpha    90
_cell_angle_beta     104.54
_cell_angle_gamma    90

_symmetry_space_group_name_H-M    "P 1"
_symmetry_int_tables_number       1

loop_
  _symmetry_equiv_pos_as_xyz
  'x, y, z'

loop_
  _atom_site_label
  _atom_site_occupancy
  _atom_site_fract_x
  _atom_site_fract_y
  _atom_site_fract_z
  _atom_site_thermal_displace_type
  _atom_site_B_iso_or_equiv
  _atom_site_type_symbol
  Cu1      1.0000 0.16850  0.05570  0.02450  Biso   1.000  Cu
  Cu2      1.0000 0.83150  0.55570  0.97550  Biso   1.000  Cu
  Cu3      1.0000 0.30770  0.05760  0.47300  Biso   1.000  Cu
  Cu4      1.0000 0.69230  0.55760  0.52700  Biso   1.000  Cu
  O1       1.0000 0.03660  0.87240  0.01790  Biso   1.000  O
  O2       1.0000 0.96340  0.37240  0.98210  Biso   1.000  O
  O3       1.0000 0.01730  0.64400  0.09250  Biso   1.000  O
  O4       1.0000 0.98270  0.14400  0.90750  Biso   1.000  O
  O5       1.0000 0.32390  0.93090  0.14650  Biso   1.000  O
  O6       1.0000 0.67610  0.43090  0.85350  Biso   1.000  O
  O7       1.0000 0.14410  0.91660  0.31090  Biso   1.000  O
  O8       1.0000 0.85590  0.41660  0.68910  Biso   1.000  O
  O9       1.0000 0.44380  0.88570  0.45790  Biso   1.000  O
  O10      1.0000 0.55620  0.38570  0.54210  Biso   1.000  O
  O11      1.0000 0.49480  0.67040  0.37740  Biso   1.000  O
  O12      1.0000 0.50520  0.17040  0.62260  Biso   1.000  O
  O13      1.0000 0.31630  0.22920  0.05060  Biso   1.000  O
  O14      1.0000 0.68370  0.72920  0.94940  Biso   1.000  O
  O15      1.0000 0.40330  0.44650  0.13700  Biso   1.000  O
  O16      1.0000 0.59670  0.94650  0.86300  Biso   1.000  O
  O17      1.0000 0.10480  0.18030  0.18420  Biso   1.000  O
  O18      1.0000 0.89520  0.68030  0.81580  Biso   1.000  O
  O19      1.0000 0.38470  0.17800  0.35530  Biso   1.000  O
  O20      1.0000 0.61530  0.67800  0.64470  Biso   1.000  O
  O21      1.0000 0.16460  0.23250  0.46810  Biso   1.000  O
  O22      1.0000 0.83540  0.73250  0.53190  Biso   1.000  O
  O23      1.0000 0.12400  0.47240  0.40980  Biso   1.000  O
  O24      1.0000 0.87600  0.97240  0.59020  Biso   1.000  O
  O25      1.0000 0.27910  0.98760  0.86820  Biso   1.000  O
  O26      1.0000 0.72090  0.48760  0.13180  Biso   1.000  O
  O27      1.0000 0.19860  0.95340  0.57890  Biso   1.000  O
  O28      1.0000 0.80140  0.45340  0.42110  Biso   1.000  O
  C1       1.0000 0.09040  0.76610  0.08700  Biso   1.000  C
  C2       1.0000 0.90960  0.26610  0.91300  Biso   1.000  C
  C3       1.0000 0.25770  0.78830  0.17160  Biso   1.000  C
  C4       1.0000 0.74230  0.28830  0.82840  Biso   1.000  C
  C5       1.0000 0.24000  0.78830  0.29360  Biso   1.000  C
  C6       1.0000 0.76000  0.28830  0.70640  Biso   1.000  C
  C7       1.0000 0.40750  0.78130  0.38240  Biso   1.000  C
  C8       1.0000 0.59250  0.28130  0.61760  Biso   1.000  C
  C9       1.0000 0.31710  0.33020  0.12540  Biso   1.000  C
  C10      1.0000 0.68290  0.83020  0.87460  Biso   1.000  C
  C11      1.0000 0.20170  0.31590  0.20540  Biso   1.000  C
  C12      1.0000 0.79830  0.81590  0.79460  Biso   1.000  C
  C13      1.0000 0.30340  0.32230  0.32960  Biso   1.000  C
  C14      1.0000 0.69660  0.82230  0.67040  Biso   1.000  C
  C15      1.0000 0.18920  0.34560  0.40910  Biso   1.000  C
  C16      1.0000 0.81080  0.84560  0.59090  Biso   1.000  C
  O29      1.0000 0.38050  0.39590  0.87370  Biso   1.000  O
  O30      1.0000 0.61950  0.89590  0.12630  Biso   1.000  O
  O31      1.0000 0.71580  0.15530  0.38910  Biso   1.000  O
  O32      1.0000 0.28420  0.65530  0.61090  Biso   1.000  O
  O33      1.0000 0.14700  0.29140  0.69060  Biso   1.000  O
  O34      1.0000 0.85300  0.79140  0.30940  Biso   1.000  O
  O35      1.0000 0.77490  0.17320  0.17080  Biso   1.000  O
  O36      1.0000 0.22510  0.67320  0.82920  Biso   1.000  O
