data_image0
_cell_length_a       4.116
_cell_length_b       41.463
_cell_length_c       11.305
_cell_angle_alpha    90
_cell_angle_beta     90
_cell_angle_gamma    90

_symmetry_space_group_name_H-M    "P 1"
_symmetry_int_tables_number       1

loop_
  _symmetry_equiv_pos_as_xyz
  'x, y, z'

loop_
  _atom_site_label
  _atom_site_occupancy
  _atom_site_fract_x
  _atom_site_fract_y
  _atom_site_fract_z
  _atom_site_thermal_displace_type
  _atom_site_B_iso_or_equiv
  _atom_site_type_symbol
  Cu1      1.0000 0.98800  0.50000  0.50000  Biso   1.000  Cu
  Cu2      1.0000 0.01200  0.50000  0.00000  Biso   1.000  Cu
  Cu3      1.0000 0.48800  0.00000  0.50000  Biso   1.000  Cu
  Cu4      1.0000 0.51200  0.00000  0.00000  Biso   1.000  Cu
  O1       1.0000 0.99280  0.47725  0.34740  Biso   1.000  O
  O2       1.0000 0.00720  0.52275  0.84740  Biso   1.000  O
  O3       1.0000 0.00720  0.47725  0.15260  Biso   1.000  O
  O4       1.0000 0.99280  0.52275  0.65260  Biso   1.000  O
  O5       1.0000 0.49280  0.97725  0.34740  Biso   1.000  O
  O6       1.0000 0.50720  0.02275  0.84740  Biso   1.000  O
  O7       1.0000 0.50720  0.97725  0.15260  Biso   1.000  O
  O8       1.0000 0.49280  0.02275  0.65260  Biso   1.000  O
  O9       1.0000 0.23100  0.45060  0.58000  Biso   1.000  O
  O10      1.0000 0.76900  0.54940  0.08000  Biso   1.000  O
  O11      1.0000 0.76900  0.45060  0.92000  Biso   1.000  O
  O12      1.0000 0.23100  0.54940  0.42000  Biso   1.000  O
  O13      1.0000 0.73100  0.95060  0.58000  Biso   1.000  O
  O14      1.0000 0.26900  0.04940  0.08000  Biso   1.000  O
  O15      1.0000 0.26900  0.95060  0.92000  Biso   1.000  O
  O16      1.0000 0.73100  0.04940  0.42000  Biso   1.000  O
  O17      1.0000 0.79400  0.45840  0.56930  Biso   1.000  O
  O18      1.0000 0.20600  0.54160  0.06930  Biso   1.000  O
  O19      1.0000 0.20600  0.45840  0.93070  Biso   1.000  O
  O20      1.0000 0.79400  0.54160  0.43070  Biso   1.000  O
  O21      1.0000 0.29400  0.95840  0.56930  Biso   1.000  O
  O22      1.0000 0.70600  0.04160  0.06930  Biso   1.000  O
  O23      1.0000 0.70600  0.95840  0.93070  Biso   1.000  O
  O24      1.0000 0.29400  0.04160  0.43070  Biso   1.000  O
  C1       1.0000 0.00000  0.49170  0.25000  Biso   1.000  C
  C2       1.0000 0.00000  0.50830  0.75000  Biso   1.000  C
  C3       1.0000 0.50000  0.99170  0.25000  Biso   1.000  C
  C4       1.0000 0.50000  0.00830  0.75000  Biso   1.000  C
  C5       1.0000 0.52900  0.44170  0.60600  Biso   1.000  C
  C6       1.0000 0.47100  0.55830  0.10600  Biso   1.000  C
  C7       1.0000 0.47100  0.44170  0.89400  Biso   1.000  C
  C8       1.0000 0.52900  0.55830  0.39400  Biso   1.000  C
  C9       1.0000 0.02900  0.94170  0.60600  Biso   1.000  C
  C10      1.0000 0.97100  0.05830  0.10600  Biso   1.000  C
  C11      1.0000 0.97100  0.94170  0.89400  Biso   1.000  C
  C12      1.0000 0.02900  0.05830  0.39400  Biso   1.000  C
  H1       1.0000 0.00000  0.51460  0.25000  Biso   1.000  H
  H2       1.0000 0.00000  0.48540  0.75000  Biso   1.000  H
  H3       1.0000 0.50000  0.01460  0.25000  Biso   1.000  H
  H4       1.0000 0.50000  0.98540  0.75000  Biso   1.000  H
  C13      1.0000 0.00000  0.21240  0.75000  Biso   1.000  C
  C14      1.0000 0.00000  0.78760  0.25000  Biso   1.000  C
  C15      1.0000 0.50000  0.71240  0.75000  Biso   1.000  C
  C16      1.0000 0.50000  0.28760  0.25000  Biso   1.000  C
  C17      1.0000 0.00000  0.24579  0.75000  Biso   1.000  C
  C18      1.0000 0.00000  0.75421  0.25000  Biso   1.000  C
  C19      1.0000 0.50000  0.74579  0.75000  Biso   1.000  C
  C20      1.0000 0.50000  0.25421  0.25000  Biso   1.000  C
  C21      1.0000 0.06660  0.15232  0.69570  Biso   1.000  C
  C22      1.0000 0.93340  0.84768  0.19570  Biso   1.000  C
  C23      1.0000 0.93340  0.15232  0.80430  Biso   1.000  C
  C24      1.0000 0.06660  0.84768  0.30430  Biso   1.000  C
  C25      1.0000 0.56660  0.65232  0.69570  Biso   1.000  C
  C26      1.0000 0.43340  0.34768  0.19570  Biso   1.000  C
  C27      1.0000 0.43340  0.65232  0.80430  Biso   1.000  C
  C28      1.0000 0.56660  0.34768  0.30430  Biso   1.000  C
  C29      1.0000 0.06060  0.30607  0.69460  Biso   1.000  C
  C30      1.0000 0.93940  0.69393  0.19460  Biso   1.000  C
  C31      1.0000 0.93940  0.30607  0.80540  Biso   1.000  C
  C32      1.0000 0.06060  0.69393  0.30540  Biso   1.000  C
  C33      1.0000 0.56060  0.80607  0.69460  Biso   1.000  C
  C34      1.0000 0.43940  0.19393  0.19460  Biso   1.000  C
  C35      1.0000 0.43940  0.80607  0.80540  Biso   1.000  C
  C36      1.0000 0.56060  0.19393  0.30540  Biso   1.000  C
  C37      1.0000 0.97500  0.08602  0.68380  Biso   1.000  C
  C38      1.0000 0.02500  0.91398  0.18380  Biso   1.000  C
  C39      1.0000 0.02500  0.08602  0.81620  Biso   1.000  C
  C40      1.0000 0.97500  0.91398  0.31620  Biso   1.000  C
  C41      1.0000 0.47500  0.58602  0.68380  Biso   1.000  C
  C42      1.0000 0.52500  0.41398  0.18380  Biso   1.000  C
  C43      1.0000 0.52500  0.58602  0.81620  Biso   1.000  C
  C44      1.0000 0.47500  0.41398  0.31620  Biso   1.000  C
  H5       1.0000 0.73850  0.08700  0.66750  Biso   1.000  H
  H6       1.0000 0.26150  0.91300  0.16750  Biso   1.000  H
  H7       1.0000 0.26150  0.08700  0.83250  Biso   1.000  H
  H8       1.0000 0.73850  0.91300  0.33250  Biso   1.000  H
  H9       1.0000 0.23850  0.58700  0.66750  Biso   1.000  H
  H10      1.0000 0.76150  0.41300  0.16750  Biso   1.000  H
  H11      1.0000 0.76150  0.58700  0.83250  Biso   1.000  H
  H12      1.0000 0.23850  0.41300  0.33250  Biso   1.000  H
  H13      1.0000 0.05700  0.06540  0.65130  Biso   1.000  H
  H14      1.0000 0.94300  0.93460  0.15130  Biso   1.000  H
  H15      1.0000 0.94300  0.06540  0.84870  Biso   1.000  H
  H16      1.0000 0.05700  0.93460  0.34870  Biso   1.000  H
  H17      1.0000 0.55700  0.56540  0.65130  Biso   1.000  H
  H18      1.0000 0.44300  0.43460  0.15130  Biso   1.000  H
  H19      1.0000 0.44300  0.56540  0.84870  Biso   1.000  H
  H20      1.0000 0.55700  0.43460  0.34870  Biso   1.000  H
  C45      1.0000 0.96500  0.37163  0.68370  Biso   1.000  C
  C46      1.0000 0.03500  0.62837  0.18370  Biso   1.000  C
  C47      1.0000 0.03500  0.37163  0.81630  Biso   1.000  C
  C48      1.0000 0.96500  0.62837  0.31630  Biso   1.000  C
  C49      1.0000 0.46500  0.87163  0.68370  Biso   1.000  C
  C50      1.0000 0.53500  0.12837  0.18370  Biso   1.000  C
  C51      1.0000 0.53500  0.87163  0.81630  Biso   1.000  C
  C52      1.0000 0.46500  0.12837  0.31630  Biso   1.000  C
  H21      1.0000 0.03780  0.39240  0.64990  Biso   1.000  H
  H22      1.0000 0.96220  0.60760  0.14990  Biso   1.000  H
  H23      1.0000 0.96220  0.39240  0.85010  Biso   1.000  H
  H24      1.0000 0.03780  0.60760  0.35010  Biso   1.000  H
  H25      1.0000 0.53780  0.89240  0.64990  Biso   1.000  H
  H26      1.0000 0.46220  0.10760  0.14990  Biso   1.000  H
  H27      1.0000 0.46220  0.89240  0.85010  Biso   1.000  H
  H28      1.0000 0.53780  0.10760  0.35010  Biso   1.000  H
  H29      1.0000 0.72730  0.37000  0.67160  Biso   1.000  H
  H30      1.0000 0.27270  0.63000  0.17160  Biso   1.000  H
  H31      1.0000 0.27270  0.37000  0.82840  Biso   1.000  H
  H32      1.0000 0.72730  0.63000  0.32840  Biso   1.000  H
  H33      1.0000 0.22730  0.87000  0.67160  Biso   1.000  H
  H34      1.0000 0.77270  0.13000  0.17160  Biso   1.000  H
  H35      1.0000 0.77270  0.87000  0.82840  Biso   1.000  H
  H36      1.0000 0.22730  0.13000  0.32840  Biso   1.000  H
  S1       1.0000 0.15300  0.19025  0.63187  Biso   1.000  S
  S2       1.0000 0.84700  0.80975  0.13187  Biso   1.000  S
  S3       1.0000 0.84700  0.19025  0.86813  Biso   1.000  S
  S4       1.0000 0.15300  0.80975  0.36813  Biso   1.000  S
  S5       1.0000 0.65300  0.69025  0.63187  Biso   1.000  S
  S6       1.0000 0.34700  0.30975  0.13187  Biso   1.000  S
  S7       1.0000 0.34700  0.69025  0.86813  Biso   1.000  S
  S8       1.0000 0.65300  0.30975  0.36813  Biso   1.000  S
  S9       1.0000 0.14180  0.26835  0.63000  Biso   1.000  S
  S10      1.0000 0.85820  0.73165  0.13000  Biso   1.000  S
  S11      1.0000 0.85820  0.26835  0.87000  Biso   1.000  S
  S12      1.0000 0.14180  0.73165  0.37000  Biso   1.000  S
  S13      1.0000 0.64180  0.76835  0.63000  Biso   1.000  S
  S14      1.0000 0.35820  0.23165  0.13000  Biso   1.000  S
  S15      1.0000 0.35820  0.76835  0.87000  Biso   1.000  S
  S16      1.0000 0.64180  0.23165  0.37000  Biso   1.000  S
  S17      1.0000 0.17340  0.11922  0.60649  Biso   1.000  S
  S18      1.0000 0.82660  0.88078  0.10649  Biso   1.000  S
  S19      1.0000 0.82660  0.11922  0.89351  Biso   1.000  S
  S20      1.0000 0.17340  0.88078  0.39351  Biso   1.000  S
  S21      1.0000 0.67340  0.61922  0.60649  Biso   1.000  S
  S22      1.0000 0.32660  0.38078  0.10649  Biso   1.000  S
  S23      1.0000 0.32660  0.61922  0.89351  Biso   1.000  S
  S24      1.0000 0.67340  0.38078  0.39351  Biso   1.000  S
  S25      1.0000 0.16150  0.33904  0.60419  Biso   1.000  S
  S26      1.0000 0.83850  0.66096  0.10419  Biso   1.000  S
  S27      1.0000 0.83850  0.33904  0.89581  Biso   1.000  S
  S28      1.0000 0.16150  0.66096  0.39581  Biso   1.000  S
  S29      1.0000 0.66150  0.83904  0.60419  Biso   1.000  S
  S30      1.0000 0.33850  0.16096  0.10419  Biso   1.000  S
  S31      1.0000 0.33850  0.83904  0.89581  Biso   1.000  S
  S32      1.0000 0.66150  0.16096  0.39581  Biso   1.000  S
  C53      1.0000 0.51400  0.45790  0.58000  Biso   1.000  C
  C54      1.0000 0.48600  0.54210  0.08000  Biso   1.000  C
  C55      1.0000 0.48600  0.45790  0.92000  Biso   1.000  C
  C56      1.0000 0.51400  0.54210  0.42000  Biso   1.000  C
  C57      1.0000 0.01400  0.95790  0.58000  Biso   1.000  C
  C58      1.0000 0.98600  0.04210  0.08000  Biso   1.000  C
  C59      1.0000 0.98600  0.95790  0.92000  Biso   1.000  C
  C60      1.0000 0.01400  0.04210  0.42000  Biso   1.000  C
  O25      1.0000 0.54700  0.48530  0.53170  Biso   1.000  O
  O26      1.0000 0.45300  0.51470  0.03170  Biso   1.000  O
  O27      1.0000 0.45300  0.48530  0.96830  Biso   1.000  O
  O28      1.0000 0.54700  0.51470  0.46830  Biso   1.000  O
  O29      1.0000 0.04700  0.98530  0.53170  Biso   1.000  O
  O30      1.0000 0.95300  0.01470  0.03170  Biso   1.000  O
  O31      1.0000 0.95300  0.98530  0.96830  Biso   1.000  O
  O32      1.0000 0.04700  0.01470  0.46830  Biso   1.000  O
