data_image0
_cell_length_a       9.8228
_cell_length_b       10.1176
_cell_length_c       22.2471
_cell_angle_alpha    90
_cell_angle_beta     90
_cell_angle_gamma    90

_symmetry_space_group_name_H-M    "P 1"
_symmetry_int_tables_number       1

loop_
  _symmetry_equiv_pos_as_xyz
  'x, y, z'

loop_
  _atom_site_label
  _atom_site_occupancy
  _atom_site_fract_x
  _atom_site_fract_y
  _atom_site_fract_z
  _atom_site_thermal_displace_type
  _atom_site_B_iso_or_equiv
  _atom_site_type_symbol
  Cu1      1.0000 0.25000  0.25000  0.18356  Biso   1.000  Cu
  Cu2      1.0000 0.75000  0.75000  0.31644  Biso   1.000  Cu
  Cu3      1.0000 0.75000  0.75000  0.81644  Biso   1.000  Cu
  Cu4      1.0000 0.25000  0.25000  0.68356  Biso   1.000  Cu
  N1       1.0000 0.25000  0.25000  0.09307  Biso   1.000  N
  N2       1.0000 0.75000  0.75000  0.40693  Biso   1.000  N
  N3       1.0000 0.75000  0.75000  0.90693  Biso   1.000  N
  N4       1.0000 0.25000  0.25000  0.59307  Biso   1.000  N
  N5       1.0000 0.25000  0.25000  0.77448  Biso   1.000  N
  N6       1.0000 0.75000  0.75000  0.72552  Biso   1.000  N
  N7       1.0000 0.75000  0.75000  0.22552  Biso   1.000  N
  N8       1.0000 0.25000  0.25000  0.27448  Biso   1.000  N
  O1       1.0000 0.07443  0.15250  0.18020  Biso   1.000  O
  O2       1.0000 0.42557  0.34750  0.18020  Biso   1.000  O
  O3       1.0000 0.92557  0.65250  0.31980  Biso   1.000  O
  O4       1.0000 0.57443  0.84750  0.31980  Biso   1.000  O
  O5       1.0000 0.92557  0.84750  0.81980  Biso   1.000  O
  O6       1.0000 0.57443  0.65250  0.81980  Biso   1.000  O
  O7       1.0000 0.07443  0.34750  0.68020  Biso   1.000  O
  O8       1.0000 0.42557  0.15250  0.68020  Biso   1.000  O
  H1       1.0000 0.02210  0.18200  0.20550  Biso   1.000  H
  H2       1.0000 0.47790  0.31800  0.20550  Biso   1.000  H
  H3       1.0000 0.97790  0.68200  0.29450  Biso   1.000  H
  H4       1.0000 0.52210  0.81800  0.29450  Biso   1.000  H
  H5       1.0000 0.97790  0.81800  0.79450  Biso   1.000  H
  H6       1.0000 0.52210  0.68200  0.79450  Biso   1.000  H
  H7       1.0000 0.02210  0.31800  0.70550  Biso   1.000  H
  H8       1.0000 0.47790  0.18200  0.70550  Biso   1.000  H
  H9       1.0000 0.08250  0.07210  0.18250  Biso   1.000  H
  H10      1.0000 0.41750  0.42790  0.18250  Biso   1.000  H
  H11      1.0000 0.91750  0.57210  0.31750  Biso   1.000  H
  H12      1.0000 0.58250  0.92790  0.31750  Biso   1.000  H
  H13      1.0000 0.91750  0.92790  0.81750  Biso   1.000  H
  H14      1.0000 0.58250  0.57210  0.81750  Biso   1.000  H
  H15      1.0000 0.08250  0.42790  0.68250  Biso   1.000  H
  H16      1.0000 0.41750  0.07210  0.68250  Biso   1.000  H
  O9       1.0000 0.10601  0.44089  0.18741  Biso   1.000  O
  O10      1.0000 0.39399  0.05911  0.18741  Biso   1.000  O
  O11      1.0000 0.89399  0.94089  0.31259  Biso   1.000  O
  O12      1.0000 0.60601  0.55911  0.31259  Biso   1.000  O
  O13      1.0000 0.89399  0.55911  0.81259  Biso   1.000  O
  O14      1.0000 0.60601  0.94089  0.81259  Biso   1.000  O
  O15      1.0000 0.10601  0.05911  0.68741  Biso   1.000  O
  O16      1.0000 0.39399  0.44089  0.68741  Biso   1.000  O
  H17      1.0000 0.11960  0.51940  0.19440  Biso   1.000  H
  H18      1.0000 0.38040  0.98060  0.19440  Biso   1.000  H
  H19      1.0000 0.88040  0.01940  0.30560  Biso   1.000  H
  H20      1.0000 0.61960  0.48060  0.30560  Biso   1.000  H
  H21      1.0000 0.88040  0.48060  0.80560  Biso   1.000  H
  H22      1.0000 0.61960  0.01940  0.80560  Biso   1.000  H
  H23      1.0000 0.11960  0.98060  0.69440  Biso   1.000  H
  H24      1.0000 0.38040  0.51940  0.69440  Biso   1.000  H
  H25      1.0000 0.04940  0.40900  0.21030  Biso   1.000  H
  H26      1.0000 0.45060  0.09100  0.21030  Biso   1.000  H
  H27      1.0000 0.95060  0.90900  0.28970  Biso   1.000  H
  H28      1.0000 0.54940  0.59100  0.28970  Biso   1.000  H
  H29      1.0000 0.95060  0.59100  0.78970  Biso   1.000  H
  H30      1.0000 0.54940  0.90900  0.78970  Biso   1.000  H
  H31      1.0000 0.04940  0.09100  0.71030  Biso   1.000  H
  H32      1.0000 0.45060  0.40900  0.71030  Biso   1.000  H
  C1       1.0000 0.20800  0.35370  0.06190  Biso   1.000  C
  C2       1.0000 0.29200  0.14630  0.06190  Biso   1.000  C
  C3       1.0000 0.79200  0.85370  0.43810  Biso   1.000  C
  C4       1.0000 0.70800  0.64630  0.43810  Biso   1.000  C
  C5       1.0000 0.79200  0.64630  0.93810  Biso   1.000  C
  C6       1.0000 0.70800  0.85370  0.93810  Biso   1.000  C
  C7       1.0000 0.20800  0.14630  0.56190  Biso   1.000  C
  C8       1.0000 0.29200  0.35370  0.56190  Biso   1.000  C
  H33      1.0000 0.17800  0.42780  0.08280  Biso   1.000  H
  H34      1.0000 0.32200  0.07220  0.08280  Biso   1.000  H
  H35      1.0000 0.82200  0.92780  0.41720  Biso   1.000  H
  H36      1.0000 0.67800  0.57220  0.41720  Biso   1.000  H
  H37      1.0000 0.82200  0.57220  0.91720  Biso   1.000  H
  H38      1.0000 0.67800  0.92780  0.91720  Biso   1.000  H
  H39      1.0000 0.17800  0.07220  0.58280  Biso   1.000  H
  H40      1.0000 0.32200  0.42780  0.58280  Biso   1.000  H
  C9       1.0000 0.20650  0.35750  0.99994  Biso   1.000  C
  C10      1.0000 0.29350  0.14250  0.99994  Biso   1.000  C
  C11      1.0000 0.79350  0.85750  0.50006  Biso   1.000  C
  C12      1.0000 0.70650  0.64250  0.50006  Biso   1.000  C
  C13      1.0000 0.79350  0.64250  0.00006  Biso   1.000  C
  C14      1.0000 0.70650  0.85750  0.00006  Biso   1.000  C
  C15      1.0000 0.20650  0.14250  0.49994  Biso   1.000  C
  C16      1.0000 0.29350  0.35750  0.49994  Biso   1.000  C
  H41      1.0000 0.17590  0.43300  0.98030  Biso   1.000  H
  H42      1.0000 0.32410  0.06700  0.98030  Biso   1.000  H
  H43      1.0000 0.82410  0.93300  0.51970  Biso   1.000  H
  H44      1.0000 0.67590  0.56700  0.51970  Biso   1.000  H
  H45      1.0000 0.82410  0.56700  0.01970  Biso   1.000  H
  H46      1.0000 0.67590  0.93300  0.01970  Biso   1.000  H
  H47      1.0000 0.17590  0.06700  0.48030  Biso   1.000  H
  H48      1.0000 0.32410  0.43300  0.48030  Biso   1.000  H
  C17      1.0000 0.25000  0.25000  0.96676  Biso   1.000  C
  C18      1.0000 0.75000  0.75000  0.53324  Biso   1.000  C
  C19      1.0000 0.75000  0.75000  0.03324  Biso   1.000  C
  C20      1.0000 0.25000  0.25000  0.46676  Biso   1.000  C
  C21      1.0000 0.25000  0.25000  0.90027  Biso   1.000  C
  C22      1.0000 0.75000  0.75000  0.59973  Biso   1.000  C
  C23      1.0000 0.75000  0.75000  0.09973  Biso   1.000  C
  C24      1.0000 0.25000  0.25000  0.40027  Biso   1.000  C
  C25      1.0000 0.22130  0.36250  0.86756  Biso   1.000  C
  C26      1.0000 0.27870  0.13750  0.86756  Biso   1.000  C
  C27      1.0000 0.77870  0.86250  0.63244  Biso   1.000  C
  C28      1.0000 0.72130  0.63750  0.63244  Biso   1.000  C
  C29      1.0000 0.77870  0.63750  0.13244  Biso   1.000  C
  C30      1.0000 0.72130  0.86250  0.13244  Biso   1.000  C
  C31      1.0000 0.22130  0.13750  0.36756  Biso   1.000  C
  C32      1.0000 0.27870  0.36250  0.36756  Biso   1.000  C
  H49      1.0000 0.20090  0.44090  0.88740  Biso   1.000  H
  H50      1.0000 0.29910  0.05910  0.88740  Biso   1.000  H
  H51      1.0000 0.79910  0.94090  0.61260  Biso   1.000  H
  H52      1.0000 0.70090  0.55910  0.61260  Biso   1.000  H
  H53      1.0000 0.79910  0.55910  0.11260  Biso   1.000  H
  H54      1.0000 0.70090  0.94090  0.11260  Biso   1.000  H
  H55      1.0000 0.20090  0.05910  0.38740  Biso   1.000  H
  H56      1.0000 0.29910  0.44090  0.38740  Biso   1.000  H
  C33      1.0000 0.22260  0.35940  0.80561  Biso   1.000  C
  C34      1.0000 0.27740  0.14060  0.80561  Biso   1.000  C
  C35      1.0000 0.77740  0.85940  0.69439  Biso   1.000  C
  C36      1.0000 0.72260  0.64060  0.69439  Biso   1.000  C
  C37      1.0000 0.77740  0.64060  0.19439  Biso   1.000  C
  C38      1.0000 0.72260  0.85940  0.19439  Biso   1.000  C
  C39      1.0000 0.22260  0.14060  0.30561  Biso   1.000  C
  C40      1.0000 0.27740  0.35940  0.30561  Biso   1.000  C
  H57      1.0000 0.20370  0.43690  0.78470  Biso   1.000  H
  H58      1.0000 0.29630  0.06310  0.78470  Biso   1.000  H
  H59      1.0000 0.79630  0.93690  0.71530  Biso   1.000  H
  H60      1.0000 0.70370  0.56310  0.71530  Biso   1.000  H
  H61      1.0000 0.79630  0.56310  0.21530  Biso   1.000  H
  H62      1.0000 0.70370  0.93690  0.21530  Biso   1.000  H
  H63      1.0000 0.20370  0.06310  0.28470  Biso   1.000  H
  H64      1.0000 0.29630  0.43690  0.28470  Biso   1.000  H
  O17      1.0000 0.94576  0.09553  0.78842  Biso   1.000  O
  O18      1.0000 0.55424  0.40447  0.78842  Biso   1.000  O
  O19      1.0000 0.05424  0.59553  0.71158  Biso   1.000  O
  O20      1.0000 0.44576  0.90447  0.71158  Biso   1.000  O
  O21      1.0000 0.05424  0.90447  0.21158  Biso   1.000  O
  O22      1.0000 0.44576  0.59553  0.21158  Biso   1.000  O
  O23      1.0000 0.94576  0.40447  0.28842  Biso   1.000  O
  O24      1.0000 0.55424  0.09553  0.28842  Biso   1.000  O
  O25      1.0000 0.89521  0.30362  0.76740  Biso   1.000  O
  O26      1.0000 0.60479  0.19638  0.76740  Biso   1.000  O
  O27      1.0000 0.10479  0.80362  0.73260  Biso   1.000  O
  O28      1.0000 0.39521  0.69638  0.73260  Biso   1.000  O
  O29      1.0000 0.10479  0.69638  0.23260  Biso   1.000  O
  O30      1.0000 0.39521  0.80362  0.23260  Biso   1.000  O
  O31      1.0000 0.89521  0.19638  0.26740  Biso   1.000  O
  O32      1.0000 0.60479  0.30362  0.26740  Biso   1.000  O
  C41      1.0000 0.89020  0.20320  0.80025  Biso   1.000  C
  C42      1.0000 0.60980  0.29680  0.80025  Biso   1.000  C
  C43      1.0000 0.10980  0.70320  0.69975  Biso   1.000  C
  C44      1.0000 0.39020  0.79680  0.69975  Biso   1.000  C
  C45      1.0000 0.10980  0.79680  0.19975  Biso   1.000  C
  C46      1.0000 0.39020  0.70320  0.19975  Biso   1.000  C
  C47      1.0000 0.89020  0.29680  0.30025  Biso   1.000  C
  C48      1.0000 0.60980  0.20320  0.30025  Biso   1.000  C
  C49      1.0000 0.81520  0.21940  0.85900  Biso   1.000  C
  C50      1.0000 0.68480  0.28060  0.85900  Biso   1.000  C
  C51      1.0000 0.18480  0.71940  0.64100  Biso   1.000  C
  C52      1.0000 0.31520  0.78060  0.64100  Biso   1.000  C
  C53      1.0000 0.18480  0.78060  0.14100  Biso   1.000  C
  C54      1.0000 0.31520  0.71940  0.14100  Biso   1.000  C
  C55      1.0000 0.81520  0.28060  0.35900  Biso   1.000  C
  C56      1.0000 0.68480  0.21940  0.35900  Biso   1.000  C
  C57      1.0000 0.87630  0.18890  0.91255  Biso   1.000  C
  C58      1.0000 0.62370  0.31110  0.91255  Biso   1.000  C
  C59      1.0000 0.12370  0.68890  0.58745  Biso   1.000  C
  C60      1.0000 0.37630  0.81110  0.58745  Biso   1.000  C
  C61      1.0000 0.12370  0.81110  0.08745  Biso   1.000  C
  C62      1.0000 0.37630  0.68890  0.08745  Biso   1.000  C
  C63      1.0000 0.87630  0.31110  0.41255  Biso   1.000  C
  C64      1.0000 0.62370  0.18890  0.41255  Biso   1.000  C
  H65      1.0000 0.96080  0.14760  0.91220  Biso   1.000  H
  H66      1.0000 0.53920  0.35240  0.91220  Biso   1.000  H
  H67      1.0000 0.03920  0.64760  0.58780  Biso   1.000  H
  H68      1.0000 0.46080  0.85240  0.58780  Biso   1.000  H
  H69      1.0000 0.03920  0.85240  0.08780  Biso   1.000  H
  H70      1.0000 0.46080  0.64760  0.08780  Biso   1.000  H
  H71      1.0000 0.96080  0.35240  0.41220  Biso   1.000  H
  H72      1.0000 0.53920  0.14760  0.41220  Biso   1.000  H
  C65      1.0000 0.81440  0.21850  0.96824  Biso   1.000  C
  C66      1.0000 0.68560  0.28150  0.96824  Biso   1.000  C
  C67      1.0000 0.18560  0.71850  0.53176  Biso   1.000  C
  C68      1.0000 0.31440  0.78150  0.53176  Biso   1.000  C
  C69      1.0000 0.18560  0.78150  0.03176  Biso   1.000  C
  C70      1.0000 0.31440  0.71850  0.03176  Biso   1.000  C
  C71      1.0000 0.81440  0.28150  0.46824  Biso   1.000  C
  C72      1.0000 0.68560  0.21850  0.46824  Biso   1.000  C
  C73      1.0000 0.87620  0.18840  0.02420  Biso   1.000  C
  C74      1.0000 0.62380  0.31160  0.02420  Biso   1.000  C
  C75      1.0000 0.12380  0.68840  0.47580  Biso   1.000  C
  C76      1.0000 0.37620  0.81160  0.47580  Biso   1.000  C
  C77      1.0000 0.12380  0.81160  0.97580  Biso   1.000  C
  C78      1.0000 0.37620  0.68840  0.97580  Biso   1.000  C
  C79      1.0000 0.87620  0.31160  0.52420  Biso   1.000  C
  C80      1.0000 0.62380  0.18840  0.52420  Biso   1.000  C
  H73      1.0000 0.96060  0.14680  0.02500  Biso   1.000  H
  H74      1.0000 0.53940  0.35320  0.02500  Biso   1.000  H
  H75      1.0000 0.03940  0.64680  0.47500  Biso   1.000  H
  H76      1.0000 0.46060  0.85320  0.47500  Biso   1.000  H
  H77      1.0000 0.03940  0.85320  0.97500  Biso   1.000  H
  H78      1.0000 0.46060  0.64680  0.97500  Biso   1.000  H
  H79      1.0000 0.96060  0.35320  0.52500  Biso   1.000  H
  H80      1.0000 0.53940  0.14680  0.52500  Biso   1.000  H
  C81      1.0000 0.81340  0.21990  0.07668  Biso   1.000  C
  C82      1.0000 0.68660  0.28010  0.07668  Biso   1.000  C
  C83      1.0000 0.18660  0.71990  0.42332  Biso   1.000  C
  C84      1.0000 0.31340  0.78010  0.42332  Biso   1.000  C
  C85      1.0000 0.18660  0.78010  0.92332  Biso   1.000  C
  C86      1.0000 0.31340  0.71990  0.92332  Biso   1.000  C
  C87      1.0000 0.81340  0.28010  0.57668  Biso   1.000  C
  C88      1.0000 0.68660  0.21990  0.57668  Biso   1.000  C
  H81      1.0000 0.85600  0.20080  0.11300  Biso   1.000  H
  H82      1.0000 0.64400  0.29920  0.11300  Biso   1.000  H
  H83      1.0000 0.14400  0.70080  0.38700  Biso   1.000  H
  H84      1.0000 0.35600  0.79920  0.38700  Biso   1.000  H
  H85      1.0000 0.14400  0.79920  0.88700  Biso   1.000  H
  H86      1.0000 0.35600  0.70080  0.88700  Biso   1.000  H
  H87      1.0000 0.85600  0.29920  0.61300  Biso   1.000  H
  H88      1.0000 0.64400  0.20080  0.61300  Biso   1.000  H
