data_image0
_cell_length_a       7.27
_cell_length_b       8.048
_cell_length_c       8.707
_cell_angle_alpha    62.714
_cell_angle_beta     86.602
_cell_angle_gamma    78.705

_symmetry_space_group_name_H-M    "P 1"
_symmetry_int_tables_number       1

loop_
  _symmetry_equiv_pos_as_xyz
  'x, y, z'

loop_
  _atom_site_label
  _atom_site_occupancy
  _atom_site_fract_x
  _atom_site_fract_y
  _atom_site_fract_z
  _atom_site_thermal_displace_type
  _atom_site_B_iso_or_equiv
  _atom_site_type_symbol
  Cu1      1.0000 0.00000  0.00000  0.00000  Biso   1.000  Cu
  C1       1.0000 0.33560  0.92720  0.83150  Biso   1.000  C
  C2       1.0000 0.66440  0.07280  0.16850  Biso   1.000  C
  C3       1.0000 0.42260  0.96460  0.65960  Biso   1.000  C
  C4       1.0000 0.57740  0.03540  0.34040  Biso   1.000  C
  C5       1.0000 0.42930  0.14760  0.53660  Biso   1.000  C
  C6       1.0000 0.57070  0.85240  0.46340  Biso   1.000  C
  C7       1.0000 0.50480  0.18300  0.37870  Biso   1.000  C
  C8       1.0000 0.49520  0.81700  0.62130  Biso   1.000  C
  Cl1      1.0000 0.34327  0.33293  0.58428  Biso   1.000  Cl
  Cl2      1.0000 0.65673  0.66707  0.41572  Biso   1.000  Cl
  Cl3      1.0000 0.51927  0.40970  0.22828  Biso   1.000  Cl
  Cl4      1.0000 0.48073  0.59030  0.77172  Biso   1.000  Cl
  O1       1.0000 0.16000  0.97800  0.82230  Biso   1.000  O
  O2       1.0000 0.84000  0.02200  0.17770  Biso   1.000  O
  O3       1.0000 0.43790  0.85330  0.96070  Biso   1.000  O
  O4       1.0000 0.56210  0.14670  0.03930  Biso   1.000  O
  O5       1.0000 0.16250  0.78690  0.18430  Biso   1.000  O
  O6       1.0000 0.83750  0.21310  0.81570  Biso   1.000  O
  H1       1.0000 0.27690  0.76440  0.16060  Biso   1.000  H
  H2       1.0000 0.72310  0.23560  0.83940  Biso   1.000  H
  H3       1.0000 0.15520  0.80890  0.27120  Biso   1.000  H
  H4       1.0000 0.84480  0.19110  0.72880  Biso   1.000  H
  O7       1.0000 0.17310  0.22740  0.03150  Biso   1.000  O
  O8       1.0000 0.82690  0.77260  0.96850  Biso   1.000  O
  H5       1.0000 0.29180  0.19670  0.04690  Biso   1.000  H
  H6       1.0000 0.70820  0.80330  0.95310  Biso   1.000  H
  H7       1.0000 0.12980  0.30260  0.07420  Biso   1.000  H
  H8       1.0000 0.87020  0.69740  0.92580  Biso   1.000  H
  O9       1.0000 0.97390  0.56510  0.76950  Biso   1.000  O
  O10      1.0000 0.02610  0.43490  0.23050  Biso   1.000  O
  H9       1.0000 0.04740  0.48480  0.85430  Biso   1.000  H
  H10      1.0000 0.95260  0.51520  0.14570  Biso   1.000  H
  H11      1.0000 0.90980  0.50700  0.73870  Biso   1.000  H
  H12      1.0000 0.09020  0.49300  0.26130  Biso   1.000  H
  O11      1.0000 0.10200  0.83400  0.46870  Biso   1.000  O
  O12      1.0000 0.89800  0.16600  0.53130  Biso   1.000  O
  H13      1.0000 0.98850  0.88540  0.43500  Biso   1.000  H
  H14      1.0000 0.01150  0.11460  0.56500  Biso   1.000  H
  H15      1.0000 0.10580  0.73020  0.56100  Biso   1.000  H
  H16      1.0000 0.89420  0.26980  0.43900  Biso   1.000  H
