data_image0
_cell_length_a       6.9522
_cell_length_b       11.2534
_cell_length_c       11.4833
_cell_angle_alpha    109.022
_cell_angle_beta     99.214
_cell_angle_gamma    101.017

_symmetry_space_group_name_H-M    "P 1"
_symmetry_int_tables_number       1

loop_
  _symmetry_equiv_pos_as_xyz
  'x, y, z'

loop_
  _atom_site_label
  _atom_site_occupancy
  _atom_site_fract_x
  _atom_site_fract_y
  _atom_site_fract_z
  _atom_site_thermal_displace_type
  _atom_site_B_iso_or_equiv
  _atom_site_type_symbol
  Cu1      1.0000 0.26586  0.80129  0.15540  Biso   1.000  Cu
  Cu2      1.0000 0.73414  0.19871  0.84460  Biso   1.000  Cu
  S1       1.0000 0.77010  0.75138  0.20413  Biso   1.000  S
  S2       1.0000 0.22990  0.24862  0.79587  Biso   1.000  S
  S3       1.0000 0.15090  0.81362  0.40846  Biso   1.000  S
  S4       1.0000 0.84910  0.18638  0.59154  Biso   1.000  S
  O1       1.0000 0.64050  0.83057  0.17389  Biso   1.000  O
  O2       1.0000 0.35950  0.16943  0.82611  Biso   1.000  O
  O3       1.0000 0.11460  0.67391  0.37021  Biso   1.000  O
  O4       1.0000 0.88540  0.32609  0.62979  Biso   1.000  O
  O5       1.0000 0.65620  0.63228  0.20930  Biso   1.000  O
  O6       1.0000 0.34380  0.36772  0.79070  Biso   1.000  O
  O7       1.0000 0.28610  0.86531  0.33943  Biso   1.000  O
  O8       1.0000 0.71390  0.13469  0.66057  Biso   1.000  O
  O9       1.0000 0.90940  0.73162  0.12274  Biso   1.000  O
  O10      1.0000 0.09060  0.26838  0.87726  Biso   1.000  O
  O11      1.0000 0.25940  0.62205  0.15155  Biso   1.000  O
  O12      1.0000 0.74060  0.37795  0.84845  Biso   1.000  O
  O13      1.0000 0.21500  0.88648  0.54201  Biso   1.000  O
  O14      1.0000 0.78500  0.11352  0.45799  Biso   1.000  O
  C1       1.0000 0.20000  0.71340  0.71370  Biso   1.000  C
  C2       1.0000 0.80000  0.28660  0.28630  Biso   1.000  C
  H1       1.0000 0.18750  0.69970  0.62810  Biso   1.000  H
  H2       1.0000 0.81250  0.30030  0.37190  Biso   1.000  H
  N1       1.0000 0.25700  0.09081  0.02290  Biso   1.000  N
  N2       1.0000 0.74300  0.90919  0.97710  Biso   1.000  N
  C3       1.0000 0.91700  0.84750  0.36060  Biso   1.000  C
  C4       1.0000 0.08300  0.15250  0.63940  Biso   1.000  C
  H3       1.0000 0.83540  0.83750  0.41950  Biso   1.000  H
  H4       1.0000 0.16460  0.16250  0.58050  Biso   1.000  H
  H5       1.0000 0.94500  0.93810  0.36900  Biso   1.000  H
  H6       1.0000 0.05500  0.06190  0.63100  Biso   1.000  H
  C5       1.0000 0.28680  0.30780  0.19470  Biso   1.000  C
  C6       1.0000 0.71320  0.69220  0.80530  Biso   1.000  C
  H7       1.0000 0.27580  0.35560  0.14260  Biso   1.000  H
  H8       1.0000 0.72420  0.64440  0.85740  Biso   1.000  H
  C7       1.0000 0.27780  0.17550  0.14560  Biso   1.000  C
  C8       1.0000 0.72220  0.82450  0.85440  Biso   1.000  C
  N3       1.0000 0.23560  0.75140  0.96768  Biso   1.000  N
  N4       1.0000 0.76440  0.24860  0.03232  Biso   1.000  N
  C9       1.0000 0.25970  0.97390  0.03130  Biso   1.000  C
  C10      1.0000 0.74030  0.02610  0.96870  Biso   1.000  C
  C11      1.0000 0.19730  0.61150  0.75580  Biso   1.000  C
  C12      1.0000 0.80270  0.38850  0.24420  Biso   1.000  C
  H9       1.0000 0.18330  0.52810  0.69850  Biso   1.000  H
  H10      1.0000 0.81670  0.47190  0.30150  Biso   1.000  H
  N5       1.0000 0.27990  0.97604  0.14760  Biso   1.000  N
  N6       1.0000 0.72010  0.02396  0.85240  Biso   1.000  N
  C13      1.0000 0.22150  0.83640  0.80110  Biso   1.000  C
  C14      1.0000 0.77850  0.16360  0.19890  Biso   1.000  C
  H11      1.0000 0.22450  0.90720  0.77580  Biso   1.000  H
  H12      1.0000 0.77550  0.09280  0.22420  Biso   1.000  H
  C15      1.0000 0.31250  0.36390  0.32280  Biso   1.000  C
  C16      1.0000 0.68750  0.63610  0.67720  Biso   1.000  C
  H13      1.0000 0.31680  0.45170  0.35830  Biso   1.000  H
  H14      1.0000 0.68320  0.54830  0.64170  Biso   1.000  H
  C17      1.0000 0.29370  0.10290  0.22440  Biso   1.000  C
  C18      1.0000 0.70630  0.89710  0.77560  Biso   1.000  C
  C19      1.0000 0.23830  0.85140  0.92560  Biso   1.000  C
  C20      1.0000 0.76170  0.14860  0.07440  Biso   1.000  C
  C21      1.0000 0.21510  0.63310  0.88140  Biso   1.000  C
  C22      1.0000 0.78490  0.36690  0.11860  Biso   1.000  C
  H15      1.0000 0.21290  0.56340  0.90820  Biso   1.000  H
  H16      1.0000 0.78710  0.43660  0.09180  Biso   1.000  H
  C23      1.0000 0.33260  0.29300  0.40260  Biso   1.000  C
  C24      1.0000 0.66740  0.70700  0.59740  Biso   1.000  C
  H17      1.0000 0.35140  0.33500  0.48950  Biso   1.000  H
  H18      1.0000 0.64860  0.66500  0.51050  Biso   1.000  H
  C25      1.0000 0.32500  0.16230  0.35440  Biso   1.000  C
  C26      1.0000 0.67500  0.83770  0.64560  Biso   1.000  C
  H19      1.0000 0.34030  0.11570  0.40750  Biso   1.000  H
  H20      1.0000 0.65970  0.88430  0.59250  Biso   1.000  H
  H21      1.0000 0.37800  0.61400  0.16000  Biso   1.000  H
  H22      1.0000 0.62200  0.38600  0.84000  Biso   1.000  H
  H23      1.0000 0.20400  0.61600  0.21100  Biso   1.000  H
  H24      1.0000 0.79600  0.38400  0.78900  Biso   1.000  H
