data_image0
_cell_length_a       18.5494
_cell_length_b       9.6858
_cell_length_c       19.9524
_cell_angle_alpha    90
_cell_angle_beta     90
_cell_angle_gamma    90

_symmetry_space_group_name_H-M    "P 1"
_symmetry_int_tables_number       1

loop_
  _symmetry_equiv_pos_as_xyz
  'x, y, z'

loop_
  _atom_site_label
  _atom_site_occupancy
  _atom_site_fract_x
  _atom_site_fract_y
  _atom_site_fract_z
  _atom_site_thermal_displace_type
  _atom_site_B_iso_or_equiv
  _atom_site_type_symbol
  Cu1      1.0000 0.19489  0.17436  0.34399  Biso   1.000  Cu
  Cu2      1.0000 0.69488  0.17436  0.15601  Biso   1.000  Cu
  Cu3      1.0000 0.19489  0.32564  0.84399  Biso   1.000  Cu
  Cu4      1.0000 0.30512  0.67436  0.34399  Biso   1.000  Cu
  Cu5      1.0000 0.80512  0.82564  0.65601  Biso   1.000  Cu
  Cu6      1.0000 0.30512  0.82564  0.84399  Biso   1.000  Cu
  Cu7      1.0000 0.80512  0.67436  0.15601  Biso   1.000  Cu
  Cu8      1.0000 0.69488  0.32564  0.65601  Biso   1.000  Cu
  O1       1.0000 0.19712  0.13496  0.44153  Biso   1.000  O
  O2       1.0000 0.69712  0.13496  0.05847  Biso   1.000  O
  O3       1.0000 0.19712  0.36504  0.94153  Biso   1.000  O
  O4       1.0000 0.30288  0.63496  0.44153  Biso   1.000  O
  O5       1.0000 0.80288  0.86504  0.55847  Biso   1.000  O
  O6       1.0000 0.30288  0.86504  0.94153  Biso   1.000  O
  O7       1.0000 0.80288  0.63496  0.05847  Biso   1.000  O
  O8       1.0000 0.69712  0.36504  0.55847  Biso   1.000  O
  O9       1.0000 0.24127  0.38910  0.35928  Biso   1.000  O
  O10      1.0000 0.74127  0.38910  0.14072  Biso   1.000  O
  O11      1.0000 0.24127  0.11090  0.85928  Biso   1.000  O
  O12      1.0000 0.25873  0.88910  0.35928  Biso   1.000  O
  O13      1.0000 0.75873  0.61090  0.64072  Biso   1.000  O
  O14      1.0000 0.25873  0.61090  0.85928  Biso   1.000  O
  O15      1.0000 0.75873  0.88910  0.14072  Biso   1.000  O
  O16      1.0000 0.74127  0.11090  0.64072  Biso   1.000  O
  O17      1.0000 0.20711  0.60281  0.33277  Biso   1.000  O
  O18      1.0000 0.70711  0.60281  0.16723  Biso   1.000  O
  O19      1.0000 0.20711  0.89719  0.83277  Biso   1.000  O
  O20      1.0000 0.29289  0.10281  0.33277  Biso   1.000  O
  O21      1.0000 0.79289  0.39719  0.66723  Biso   1.000  O
  O22      1.0000 0.29289  0.39719  0.83277  Biso   1.000  O
  O23      1.0000 0.79289  0.10281  0.16723  Biso   1.000  O
  O24      1.0000 0.70711  0.89719  0.66723  Biso   1.000  O
  O25      1.0000 0.17523  0.19683  0.25015  Biso   1.000  O
  O26      1.0000 0.67523  0.19683  0.24985  Biso   1.000  O
  O27      1.0000 0.17523  0.30317  0.75015  Biso   1.000  O
  O28      1.0000 0.32477  0.69683  0.25015  Biso   1.000  O
  O29      1.0000 0.82477  0.80317  0.74985  Biso   1.000  O
  O30      1.0000 0.32477  0.80317  0.75015  Biso   1.000  O
  O31      1.0000 0.82477  0.69683  0.24985  Biso   1.000  O
  O32      1.0000 0.67523  0.30317  0.74985  Biso   1.000  O
  O33      1.0000 0.10626  0.15610  0.16175  Biso   1.000  O
  O34      1.0000 0.60626  0.15610  0.33825  Biso   1.000  O
  O35      1.0000 0.10626  0.34390  0.66175  Biso   1.000  O
  O36      1.0000 0.39374  0.65610  0.16175  Biso   1.000  O
  O37      1.0000 0.89374  0.84390  0.83825  Biso   1.000  O
  O38      1.0000 0.39374  0.84390  0.66175  Biso   1.000  O
  O39      1.0000 0.89374  0.65610  0.33825  Biso   1.000  O
  O40      1.0000 0.60626  0.34390  0.83825  Biso   1.000  O
  O41      1.0000 0.02890  0.81024  0.45731  Biso   1.000  O
  O42      1.0000 0.52890  0.81024  0.04269  Biso   1.000  O
  O43      1.0000 0.02890  0.68976  0.95731  Biso   1.000  O
  O44      1.0000 0.47110  0.31024  0.45731  Biso   1.000  O
  O45      1.0000 0.97110  0.18976  0.54269  Biso   1.000  O
  O46      1.0000 0.47110  0.18976  0.95731  Biso   1.000  O
  O47      1.0000 0.97110  0.31024  0.04269  Biso   1.000  O
  O48      1.0000 0.52890  0.68976  0.54269  Biso   1.000  O
  O49      1.0000 0.02991  0.00870  0.06936  Biso   1.000  O
  O50      1.0000 0.52991  0.00870  0.43064  Biso   1.000  O
  O51      1.0000 0.02991  0.49130  0.56936  Biso   1.000  O
  O52      1.0000 0.47009  0.50870  0.06936  Biso   1.000  O
  O53      1.0000 0.97009  0.99130  0.93064  Biso   1.000  O
  O54      1.0000 0.47009  0.99130  0.56936  Biso   1.000  O
  O55      1.0000 0.97009  0.50870  0.43064  Biso   1.000  O
  O56      1.0000 0.52991  0.49130  0.93064  Biso   1.000  O
  H1       1.0000 0.05610  0.05430  0.09700  Biso   1.000  H
  H2       1.0000 0.55610  0.05430  0.40300  Biso   1.000  H
  H3       1.0000 0.05610  0.44570  0.59700  Biso   1.000  H
  H4       1.0000 0.44390  0.55430  0.09700  Biso   1.000  H
  H5       1.0000 0.94390  0.94570  0.90300  Biso   1.000  H
  H6       1.0000 0.44390  0.94570  0.59700  Biso   1.000  H
  H7       1.0000 0.94390  0.55430  0.40300  Biso   1.000  H
  H8       1.0000 0.55610  0.44570  0.90300  Biso   1.000  H
  H9       1.0000 0.06060  0.95560  0.04860  Biso   1.000  H
  H10      1.0000 0.56060  0.95560  0.45140  Biso   1.000  H
  H11      1.0000 0.06060  0.54440  0.54860  Biso   1.000  H
  H12      1.0000 0.43940  0.45560  0.04860  Biso   1.000  H
  H13      1.0000 0.93940  0.04440  0.95140  Biso   1.000  H
  H14      1.0000 0.43940  0.04440  0.54860  Biso   1.000  H
  H15      1.0000 0.93940  0.45560  0.45140  Biso   1.000  H
  H16      1.0000 0.56060  0.54440  0.95140  Biso   1.000  H
  N1       1.0000 0.11469  0.11670  0.52457  Biso   1.000  N
  N2       1.0000 0.61469  0.11670  0.97543  Biso   1.000  N
  N3       1.0000 0.11469  0.38330  0.02457  Biso   1.000  N
  N4       1.0000 0.38531  0.61670  0.52457  Biso   1.000  N
  N5       1.0000 0.88531  0.88330  0.47543  Biso   1.000  N
  N6       1.0000 0.38531  0.88330  0.02457  Biso   1.000  N
  N7       1.0000 0.88531  0.61670  0.97543  Biso   1.000  N
  N8       1.0000 0.61469  0.38330  0.47543  Biso   1.000  N
  H17      1.0000 0.07540  0.15270  0.54210  Biso   1.000  H
  H18      1.0000 0.57540  0.15270  0.95790  Biso   1.000  H
  H19      1.0000 0.07540  0.34730  0.04210  Biso   1.000  H
  H20      1.0000 0.42460  0.65270  0.54210  Biso   1.000  H
  H21      1.0000 0.92460  0.84730  0.45790  Biso   1.000  H
  H22      1.0000 0.42460  0.84730  0.04210  Biso   1.000  H
  H23      1.0000 0.92460  0.65270  0.95790  Biso   1.000  H
  H24      1.0000 0.57540  0.34730  0.45790  Biso   1.000  H
  N9       1.0000 0.10417  0.29327  0.36610  Biso   1.000  N
  N10      1.0000 0.60417  0.29327  0.13390  Biso   1.000  N
  N11      1.0000 0.10417  0.20673  0.86610  Biso   1.000  N
  N12      1.0000 0.39583  0.79327  0.36610  Biso   1.000  N
  N13      1.0000 0.89583  0.70673  0.63390  Biso   1.000  N
  N14      1.0000 0.39583  0.70673  0.86610  Biso   1.000  N
  N15      1.0000 0.89583  0.79327  0.13390  Biso   1.000  N
  N16      1.0000 0.60417  0.20673  0.63390  Biso   1.000  N
  N17      1.0000 0.09150  0.99888  0.32566  Biso   1.000  N
  N18      1.0000 0.59150  0.99888  0.17434  Biso   1.000  N
  N19      1.0000 0.09150  0.50112  0.82566  Biso   1.000  N
  N20      1.0000 0.40850  0.49888  0.32566  Biso   1.000  N
  N21      1.0000 0.90850  0.00112  0.67434  Biso   1.000  N
  N22      1.0000 0.40850  0.00112  0.82566  Biso   1.000  N
  N23      1.0000 0.90850  0.49888  0.17434  Biso   1.000  N
  N24      1.0000 0.59150  0.50112  0.67434  Biso   1.000  N
  N25      1.0000 0.14639  0.86790  0.45302  Biso   1.000  N
  N26      1.0000 0.64639  0.86790  0.04698  Biso   1.000  N
  N27      1.0000 0.14639  0.63210  0.95302  Biso   1.000  N
  N28      1.0000 0.35361  0.36790  0.45302  Biso   1.000  N
  N29      1.0000 0.85361  0.13210  0.54698  Biso   1.000  N
  N30      1.0000 0.35361  0.13210  0.95302  Biso   1.000  N
  N31      1.0000 0.85361  0.36790  0.04698  Biso   1.000  N
  N32      1.0000 0.64639  0.63210  0.54698  Biso   1.000  N
  H25      1.0000 0.18350  0.88020  0.42620  Biso   1.000  H
  H26      1.0000 0.68350  0.88020  0.07380  Biso   1.000  H
  H27      1.0000 0.18350  0.61980  0.92620  Biso   1.000  H
  H28      1.0000 0.31650  0.38020  0.42620  Biso   1.000  H
  H29      1.0000 0.81650  0.11980  0.57380  Biso   1.000  H
  H30      1.0000 0.31650  0.11980  0.92620  Biso   1.000  H
  H31      1.0000 0.81650  0.38020  0.07380  Biso   1.000  H
  H32      1.0000 0.68350  0.61980  0.57380  Biso   1.000  H
  C1       1.0000 0.14073  0.17550  0.46942  Biso   1.000  C
  C2       1.0000 0.64073  0.17550  0.03058  Biso   1.000  C
  C3       1.0000 0.14073  0.32450  0.96942  Biso   1.000  C
  C4       1.0000 0.35927  0.67550  0.46942  Biso   1.000  C
  C5       1.0000 0.85927  0.82450  0.53058  Biso   1.000  C
  C6       1.0000 0.35927  0.82450  0.96942  Biso   1.000  C
  C7       1.0000 0.85927  0.67550  0.03058  Biso   1.000  C
  C8       1.0000 0.64073  0.32450  0.53058  Biso   1.000  C
  C9       1.0000 0.09983  0.29660  0.44070  Biso   1.000  C
  C10      1.0000 0.59983  0.29660  0.05930  Biso   1.000  C
  C11      1.0000 0.09983  0.20340  0.94070  Biso   1.000  C
  C12      1.0000 0.40017  0.79660  0.44070  Biso   1.000  C
  C13      1.0000 0.90017  0.70340  0.55930  Biso   1.000  C
  C14      1.0000 0.40017  0.70340  0.94070  Biso   1.000  C
  C15      1.0000 0.90017  0.79660  0.05930  Biso   1.000  C
  C16      1.0000 0.59983  0.20340  0.55930  Biso   1.000  C
  H33      1.0000 0.04880  0.29230  0.45500  Biso   1.000  H
  H34      1.0000 0.54880  0.29230  0.04500  Biso   1.000  H
  H35      1.0000 0.04880  0.20770  0.95500  Biso   1.000  H
  H36      1.0000 0.45120  0.79230  0.45500  Biso   1.000  H
  H37      1.0000 0.95120  0.70770  0.54500  Biso   1.000  H
  H38      1.0000 0.45120  0.70770  0.95500  Biso   1.000  H
  H39      1.0000 0.95120  0.79230  0.04500  Biso   1.000  H
  H40      1.0000 0.54880  0.20770  0.54500  Biso   1.000  H
  H41      1.0000 0.12070  0.38400  0.45760  Biso   1.000  H
  H42      1.0000 0.62070  0.38400  0.04240  Biso   1.000  H
  H43      1.0000 0.12070  0.11600  0.95760  Biso   1.000  H
  H44      1.0000 0.37930  0.88400  0.45760  Biso   1.000  H
  H45      1.0000 0.87930  0.61600  0.54240  Biso   1.000  H
  H46      1.0000 0.37930  0.61600  0.95760  Biso   1.000  H
  H47      1.0000 0.87930  0.88400  0.04240  Biso   1.000  H
  H48      1.0000 0.62070  0.11600  0.54240  Biso   1.000  H
  C17      1.0000 0.11653  0.43340  0.33830  Biso   1.000  C
  C18      1.0000 0.61653  0.43340  0.16170  Biso   1.000  C
  C19      1.0000 0.11653  0.06660  0.83830  Biso   1.000  C
  C20      1.0000 0.38347  0.93340  0.33830  Biso   1.000  C
  C21      1.0000 0.88347  0.56660  0.66170  Biso   1.000  C
  C22      1.0000 0.38347  0.56660  0.83830  Biso   1.000  C
  C23      1.0000 0.88347  0.93340  0.16170  Biso   1.000  C
  C24      1.0000 0.61653  0.06660  0.66170  Biso   1.000  C
  H49      1.0000 0.08560  0.50050  0.36230  Biso   1.000  H
  H50      1.0000 0.58560  0.50050  0.13770  Biso   1.000  H
  H51      1.0000 0.08560  0.99950  0.86230  Biso   1.000  H
  H52      1.0000 0.41440  0.00050  0.36230  Biso   1.000  H
  H53      1.0000 0.91440  0.49950  0.63770  Biso   1.000  H
  H54      1.0000 0.41440  0.49950  0.86230  Biso   1.000  H
  H55      1.0000 0.91440  0.00050  0.13770  Biso   1.000  H
  H56      1.0000 0.58560  0.99950  0.63770  Biso   1.000  H
  H57      1.0000 0.10250  0.43450  0.29040  Biso   1.000  H
  H58      1.0000 0.60250  0.43450  0.20960  Biso   1.000  H
  H59      1.0000 0.10250  0.06550  0.79040  Biso   1.000  H
  H60      1.0000 0.39750  0.93450  0.29040  Biso   1.000  H
  H61      1.0000 0.89750  0.56550  0.70960  Biso   1.000  H
  H62      1.0000 0.39750  0.56550  0.79040  Biso   1.000  H
  H63      1.0000 0.89750  0.93450  0.20960  Biso   1.000  H
  H64      1.0000 0.60250  0.06550  0.70960  Biso   1.000  H
  C25      1.0000 0.19499  0.47730  0.34480  Biso   1.000  C
  C26      1.0000 0.69499  0.47730  0.15520  Biso   1.000  C
  C27      1.0000 0.19499  0.02270  0.84480  Biso   1.000  C
  C28      1.0000 0.30501  0.97730  0.34480  Biso   1.000  C
  C29      1.0000 0.80501  0.52270  0.65520  Biso   1.000  C
  C30      1.0000 0.30501  0.52270  0.84480  Biso   1.000  C
  C31      1.0000 0.80501  0.97730  0.15520  Biso   1.000  C
  C32      1.0000 0.69499  0.02270  0.65520  Biso   1.000  C
  C33      1.0000 0.03697  0.23440  0.33695  Biso   1.000  C
  C34      1.0000 0.53697  0.23440  0.16305  Biso   1.000  C
  C35      1.0000 0.03697  0.26560  0.83695  Biso   1.000  C
  C36      1.0000 0.46303  0.73440  0.33695  Biso   1.000  C
  C37      1.0000 0.96303  0.76560  0.66305  Biso   1.000  C
  C38      1.0000 0.46303  0.76560  0.83695  Biso   1.000  C
  C39      1.0000 0.96303  0.73440  0.16305  Biso   1.000  C
  C40      1.0000 0.53697  0.26560  0.66305  Biso   1.000  C
  H65      1.0000 0.03680  0.25090  0.28800  Biso   1.000  H
  H66      1.0000 0.53680  0.25090  0.21200  Biso   1.000  H
  H67      1.0000 0.03680  0.24910  0.78800  Biso   1.000  H
  H68      1.0000 0.46320  0.75090  0.28800  Biso   1.000  H
  H69      1.0000 0.96320  0.74910  0.71200  Biso   1.000  H
  H70      1.0000 0.46320  0.74910  0.78800  Biso   1.000  H
  H71      1.0000 0.96320  0.75090  0.21200  Biso   1.000  H
  H72      1.0000 0.53680  0.24910  0.71200  Biso   1.000  H
  H73      1.0000 0.99490  0.28280  0.35630  Biso   1.000  H
  H74      1.0000 0.49490  0.28280  0.14370  Biso   1.000  H
  H75      1.0000 0.99490  0.21720  0.85630  Biso   1.000  H
  H76      1.0000 0.50510  0.78280  0.35630  Biso   1.000  H
  H77      1.0000 0.00510  0.71720  0.64370  Biso   1.000  H
  H78      1.0000 0.50510  0.71720  0.85630  Biso   1.000  H
  H79      1.0000 0.00510  0.78280  0.14370  Biso   1.000  H
  H80      1.0000 0.49490  0.21720  0.64370  Biso   1.000  H
  C41      1.0000 0.02954  0.08140  0.34983  Biso   1.000  C
  C42      1.0000 0.52954  0.08140  0.15017  Biso   1.000  C
  C43      1.0000 0.02954  0.41860  0.84983  Biso   1.000  C
  C44      1.0000 0.47046  0.58140  0.34983  Biso   1.000  C
  C45      1.0000 0.97046  0.91860  0.65017  Biso   1.000  C
  C46      1.0000 0.47046  0.91860  0.84983  Biso   1.000  C
  C47      1.0000 0.97046  0.58140  0.15017  Biso   1.000  C
  C48      1.0000 0.52954  0.41860  0.65017  Biso   1.000  C
  H81      1.0000 0.02390  0.06630  0.39860  Biso   1.000  H
  H82      1.0000 0.52390  0.06630  0.10140  Biso   1.000  H
  H83      1.0000 0.02390  0.43370  0.89860  Biso   1.000  H
  H84      1.0000 0.47610  0.56630  0.39860  Biso   1.000  H
  H85      1.0000 0.97610  0.93370  0.60140  Biso   1.000  H
  H86      1.0000 0.47610  0.93370  0.89860  Biso   1.000  H
  H87      1.0000 0.97610  0.56630  0.10140  Biso   1.000  H
  H88      1.0000 0.52390  0.43370  0.60140  Biso   1.000  H
  H89      1.0000 0.98520  0.04780  0.32760  Biso   1.000  H
  H90      1.0000 0.48520  0.04780  0.17240  Biso   1.000  H
  H91      1.0000 0.98520  0.45220  0.82760  Biso   1.000  H
  H92      1.0000 0.51480  0.54780  0.32760  Biso   1.000  H
  H93      1.0000 0.01480  0.95220  0.67240  Biso   1.000  H
  H94      1.0000 0.51480  0.95220  0.82760  Biso   1.000  H
  H95      1.0000 0.01480  0.54780  0.17240  Biso   1.000  H
  H96      1.0000 0.48520  0.45220  0.67240  Biso   1.000  H
  C49      1.0000 0.09564  0.99740  0.25189  Biso   1.000  C
  C50      1.0000 0.59564  0.99740  0.24811  Biso   1.000  C
  C51      1.0000 0.09564  0.50260  0.75189  Biso   1.000  C
  C52      1.0000 0.40436  0.49740  0.25189  Biso   1.000  C
  C53      1.0000 0.90436  0.00260  0.74811  Biso   1.000  C
  C54      1.0000 0.40436  0.00260  0.75189  Biso   1.000  C
  C55      1.0000 0.90436  0.49740  0.24811  Biso   1.000  C
  C56      1.0000 0.59564  0.50260  0.74811  Biso   1.000  C
  H97      1.0000 0.04640  0.98340  0.23400  Biso   1.000  H
  H98      1.0000 0.54640  0.98340  0.26600  Biso   1.000  H
  H99      1.0000 0.04640  0.51660  0.73400  Biso   1.000  H
  H100     1.0000 0.45360  0.48340  0.23400  Biso   1.000  H
  H101     1.0000 0.95360  0.01660  0.76600  Biso   1.000  H
  H102     1.0000 0.45360  0.01660  0.73400  Biso   1.000  H
  H103     1.0000 0.95360  0.48340  0.26600  Biso   1.000  H
  H104     1.0000 0.54640  0.51660  0.76600  Biso   1.000  H
  H105     1.0000 0.12490  0.91670  0.23820  Biso   1.000  H
  H106     1.0000 0.62490  0.91670  0.26180  Biso   1.000  H
  H107     1.0000 0.12490  0.58330  0.73820  Biso   1.000  H
  H108     1.0000 0.37510  0.41670  0.23820  Biso   1.000  H
  H109     1.0000 0.87510  0.08330  0.76180  Biso   1.000  H
  H110     1.0000 0.37510  0.08330  0.73820  Biso   1.000  H
  H111     1.0000 0.87510  0.41670  0.26180  Biso   1.000  H
  H112     1.0000 0.62490  0.58330  0.76180  Biso   1.000  H
  C57      1.0000 0.12768  0.12700  0.21867  Biso   1.000  C
  C58      1.0000 0.62768  0.12700  0.28133  Biso   1.000  C
  C59      1.0000 0.12768  0.37300  0.71867  Biso   1.000  C
  C60      1.0000 0.37232  0.62700  0.21867  Biso   1.000  C
  C61      1.0000 0.87232  0.87300  0.78133  Biso   1.000  C
  C62      1.0000 0.37232  0.87300  0.71867  Biso   1.000  C
  C63      1.0000 0.87232  0.62700  0.28133  Biso   1.000  C
  C64      1.0000 0.62768  0.37300  0.78133  Biso   1.000  C
  C65      1.0000 0.08201  0.85480  0.34887  Biso   1.000  C
  C66      1.0000 0.58201  0.85480  0.15113  Biso   1.000  C
  C67      1.0000 0.08201  0.64520  0.84887  Biso   1.000  C
  C68      1.0000 0.41799  0.35480  0.34887  Biso   1.000  C
  C69      1.0000 0.91799  0.14520  0.65113  Biso   1.000  C
  C70      1.0000 0.41799  0.14520  0.84887  Biso   1.000  C
  C71      1.0000 0.91799  0.35480  0.15113  Biso   1.000  C
  C72      1.0000 0.58201  0.64520  0.65113  Biso   1.000  C
  H113     1.0000 0.12100  0.79700  0.32980  Biso   1.000  H
  H114     1.0000 0.62100  0.79700  0.17020  Biso   1.000  H
  H115     1.0000 0.12100  0.70300  0.82980  Biso   1.000  H
  H116     1.0000 0.37900  0.29700  0.32980  Biso   1.000  H
  H117     1.0000 0.87900  0.20300  0.67020  Biso   1.000  H
  H118     1.0000 0.37900  0.20300  0.82980  Biso   1.000  H
  H119     1.0000 0.87900  0.29700  0.17020  Biso   1.000  H
  H120     1.0000 0.62100  0.70300  0.67020  Biso   1.000  H
  H121     1.0000 0.03550  0.81900  0.33180  Biso   1.000  H
  H122     1.0000 0.53550  0.81900  0.16820  Biso   1.000  H
  H123     1.0000 0.03550  0.68100  0.83180  Biso   1.000  H
  H124     1.0000 0.46450  0.31900  0.33180  Biso   1.000  H
  H125     1.0000 0.96450  0.18100  0.66820  Biso   1.000  H
  H126     1.0000 0.46450  0.18100  0.83180  Biso   1.000  H
  H127     1.0000 0.96450  0.31900  0.16820  Biso   1.000  H
  H128     1.0000 0.53550  0.68100  0.66820  Biso   1.000  H
  C73      1.0000 0.08318  0.84210  0.42508  Biso   1.000  C
  C74      1.0000 0.58318  0.84210  0.07492  Biso   1.000  C
  C75      1.0000 0.08318  0.65790  0.92508  Biso   1.000  C
  C76      1.0000 0.41682  0.34210  0.42508  Biso   1.000  C
  C77      1.0000 0.91682  0.15790  0.57492  Biso   1.000  C
  C78      1.0000 0.41682  0.15790  0.92508  Biso   1.000  C
  C79      1.0000 0.91682  0.34210  0.07492  Biso   1.000  C
  C80      1.0000 0.58318  0.65790  0.57492  Biso   1.000  C
  C81      1.0000 0.15892  0.87720  0.52362  Biso   1.000  C
  C82      1.0000 0.65892  0.87720  0.97638  Biso   1.000  C
  C83      1.0000 0.15892  0.62280  0.02362  Biso   1.000  C
  C84      1.0000 0.34108  0.37720  0.52362  Biso   1.000  C
  C85      1.0000 0.84108  0.12280  0.47638  Biso   1.000  C
  C86      1.0000 0.34108  0.12280  0.02362  Biso   1.000  C
  C87      1.0000 0.84108  0.37720  0.97638  Biso   1.000  C
  C88      1.0000 0.65892  0.62280  0.47638  Biso   1.000  C
  C89      1.0000 0.14530  0.00020  0.55762  Biso   1.000  C
  C90      1.0000 0.64530  0.00020  0.94238  Biso   1.000  C
  C91      1.0000 0.14530  0.49980  0.05762  Biso   1.000  C
  C92      1.0000 0.35470  0.50020  0.55762  Biso   1.000  C
  C93      1.0000 0.85470  0.99980  0.44238  Biso   1.000  C
  C94      1.0000 0.35470  0.99980  0.05762  Biso   1.000  C
  C95      1.0000 0.85470  0.50020  0.94238  Biso   1.000  C
  C96      1.0000 0.64530  0.49980  0.44238  Biso   1.000  C
  C97      1.0000 0.15834  0.00890  0.62645  Biso   1.000  C
  C98      1.0000 0.65834  0.00890  0.87355  Biso   1.000  C
  C99      1.0000 0.15834  0.49110  0.12645  Biso   1.000  C
  C100     1.0000 0.34166  0.50890  0.62645  Biso   1.000  C
  C101     1.0000 0.84166  0.99110  0.37355  Biso   1.000  C
  C102     1.0000 0.34166  0.99110  0.12645  Biso   1.000  C
  C103     1.0000 0.84166  0.50890  0.87355  Biso   1.000  C
  C104     1.0000 0.65834  0.49110  0.37355  Biso   1.000  C
  H129     1.0000 0.14880  0.09230  0.64990  Biso   1.000  H
  H130     1.0000 0.64880  0.09230  0.85010  Biso   1.000  H
  H131     1.0000 0.14880  0.40770  0.14990  Biso   1.000  H
  H132     1.0000 0.35120  0.59230  0.64990  Biso   1.000  H
  H133     1.0000 0.85120  0.90770  0.35010  Biso   1.000  H
  H134     1.0000 0.35120  0.90770  0.14990  Biso   1.000  H
  H135     1.0000 0.85120  0.59230  0.85010  Biso   1.000  H
  H136     1.0000 0.64880  0.40770  0.35010  Biso   1.000  H
  C105     1.0000 0.18515  0.89540  0.66027  Biso   1.000  C
  C106     1.0000 0.68515  0.89540  0.83973  Biso   1.000  C
  C107     1.0000 0.18515  0.60460  0.16027  Biso   1.000  C
  C108     1.0000 0.31485  0.39540  0.66027  Biso   1.000  C
  C109     1.0000 0.81485  0.10460  0.33973  Biso   1.000  C
  C110     1.0000 0.31485  0.10460  0.16027  Biso   1.000  C
  C111     1.0000 0.81485  0.39540  0.83973  Biso   1.000  C
  C112     1.0000 0.68515  0.60460  0.33973  Biso   1.000  C
  H137     1.0000 0.19390  0.90080  0.70710  Biso   1.000  H
  H138     1.0000 0.69390  0.90080  0.79290  Biso   1.000  H
  H139     1.0000 0.19390  0.59920  0.20710  Biso   1.000  H
  H140     1.0000 0.30610  0.40080  0.70710  Biso   1.000  H
  H141     1.0000 0.80610  0.09920  0.29290  Biso   1.000  H
  H142     1.0000 0.30610  0.09920  0.20710  Biso   1.000  H
  H143     1.0000 0.80610  0.40080  0.79290  Biso   1.000  H
  H144     1.0000 0.69390  0.59920  0.29290  Biso   1.000  H
  C113     1.0000 0.19920  0.77490  0.62647  Biso   1.000  C
  C114     1.0000 0.69920  0.77490  0.87353  Biso   1.000  C
  C115     1.0000 0.19920  0.72510  0.12647  Biso   1.000  C
  C116     1.0000 0.30080  0.27490  0.62647  Biso   1.000  C
  C117     1.0000 0.80080  0.22510  0.37353  Biso   1.000  C
  C118     1.0000 0.30080  0.22510  0.12647  Biso   1.000  C
  C119     1.0000 0.80080  0.27490  0.87353  Biso   1.000  C
  C120     1.0000 0.69920  0.72510  0.37353  Biso   1.000  C
  H145     1.0000 0.21800  0.69780  0.65010  Biso   1.000  H
  H146     1.0000 0.71800  0.69780  0.84990  Biso   1.000  H
  H147     1.0000 0.21800  0.80220  0.15010  Biso   1.000  H
  H148     1.0000 0.28200  0.19780  0.65010  Biso   1.000  H
  H149     1.0000 0.78200  0.30220  0.34990  Biso   1.000  H
  H150     1.0000 0.28200  0.30220  0.15010  Biso   1.000  H
  H151     1.0000 0.78200  0.19780  0.84990  Biso   1.000  H
  H152     1.0000 0.71800  0.80220  0.34990  Biso   1.000  H
  C121     1.0000 0.18624  0.76450  0.55817  Biso   1.000  C
  C122     1.0000 0.68624  0.76450  0.94183  Biso   1.000  C
  C123     1.0000 0.18624  0.73550  0.05817  Biso   1.000  C
  C124     1.0000 0.31376  0.26450  0.55817  Biso   1.000  C
  C125     1.0000 0.81376  0.23550  0.44183  Biso   1.000  C
  C126     1.0000 0.31376  0.23550  0.05817  Biso   1.000  C
  C127     1.0000 0.81376  0.26450  0.94183  Biso   1.000  C
  C128     1.0000 0.68624  0.73550  0.44183  Biso   1.000  C
  H153     1.0000 0.19600  0.68060  0.53520  Biso   1.000  H
  H154     1.0000 0.69600  0.68060  0.96480  Biso   1.000  H
  H155     1.0000 0.19600  0.81940  0.03520  Biso   1.000  H
  H156     1.0000 0.30400  0.18060  0.53520  Biso   1.000  H
  H157     1.0000 0.80400  0.31940  0.46480  Biso   1.000  H
  H158     1.0000 0.30400  0.31940  0.03520  Biso   1.000  H
  H159     1.0000 0.80400  0.18060  0.96480  Biso   1.000  H
  H160     1.0000 0.69600  0.81940  0.46480  Biso   1.000  H
