data_image0
_cell_length_a       15.203
_cell_length_b       13.246
_cell_length_c       9.43
_cell_angle_alpha    90
_cell_angle_beta     102.46
_cell_angle_gamma    90

_symmetry_space_group_name_H-M    "P 1"
_symmetry_int_tables_number       1

loop_
  _symmetry_equiv_pos_as_xyz
  'x, y, z'

loop_
  _atom_site_label
  _atom_site_occupancy
  _atom_site_fract_x
  _atom_site_fract_y
  _atom_site_fract_z
  _atom_site_thermal_displace_type
  _atom_site_B_iso_or_equiv
  _atom_site_type_symbol
  Cu1      1.0000 0.00000  0.10515  0.25000  Biso   1.000  Cu
  Cu2      1.0000 0.50000  0.60515  0.25000  Biso   1.000  Cu
  Cu3      1.0000 0.00000  0.89485  0.75000  Biso   1.000  Cu
  Cu4      1.0000 0.50000  0.39485  0.75000  Biso   1.000  Cu
  O1       1.0000 0.07004  0.99790  0.17300  Biso   1.000  O
  O2       1.0000 0.57004  0.49790  0.17300  Biso   1.000  O
  O3       1.0000 0.07004  0.00210  0.67300  Biso   1.000  O
  O4       1.0000 0.57004  0.50210  0.67300  Biso   1.000  O
  O5       1.0000 0.92996  0.00210  0.82700  Biso   1.000  O
  O6       1.0000 0.42996  0.50210  0.82700  Biso   1.000  O
  O7       1.0000 0.92996  0.99790  0.32700  Biso   1.000  O
  O8       1.0000 0.42996  0.49790  0.32700  Biso   1.000  O
  O9       1.0000 0.07565  0.90460  0.97960  Biso   1.000  O
  O10      1.0000 0.57565  0.40460  0.97960  Biso   1.000  O
  O11      1.0000 0.07565  0.09540  0.47960  Biso   1.000  O
  O12      1.0000 0.57565  0.59540  0.47960  Biso   1.000  O
  O13      1.0000 0.92435  0.09540  0.02040  Biso   1.000  O
  O14      1.0000 0.42435  0.59540  0.02040  Biso   1.000  O
  O15      1.0000 0.92435  0.90460  0.52040  Biso   1.000  O
  O16      1.0000 0.42435  0.40460  0.52040  Biso   1.000  O
  C1       1.0000 0.04220  0.97110  0.04340  Biso   1.000  C
  C2       1.0000 0.54220  0.47110  0.04340  Biso   1.000  C
  C3       1.0000 0.04220  0.02890  0.54340  Biso   1.000  C
  C4       1.0000 0.54220  0.52890  0.54340  Biso   1.000  C
  C5       1.0000 0.95780  0.02890  0.95660  Biso   1.000  C
  C6       1.0000 0.45780  0.52890  0.95660  Biso   1.000  C
  C7       1.0000 0.95780  0.97110  0.45660  Biso   1.000  C
  C8       1.0000 0.45780  0.47110  0.45660  Biso   1.000  C
  C9       1.0000 0.05610  0.27680  0.09230  Biso   1.000  C
  C10      1.0000 0.55610  0.77680  0.09230  Biso   1.000  C
  C11      1.0000 0.05610  0.72320  0.59230  Biso   1.000  C
  C12      1.0000 0.55610  0.22320  0.59230  Biso   1.000  C
  C13      1.0000 0.94390  0.72320  0.90770  Biso   1.000  C
  C14      1.0000 0.44390  0.22320  0.90770  Biso   1.000  C
  C15      1.0000 0.94390  0.27680  0.40770  Biso   1.000  C
  C16      1.0000 0.44390  0.77680  0.40770  Biso   1.000  C
  N1       1.0000 0.08500  0.21230  0.19860  Biso   1.000  N
  N2       1.0000 0.58500  0.71230  0.19860  Biso   1.000  N
  N3       1.0000 0.08500  0.78770  0.69860  Biso   1.000  N
  N4       1.0000 0.58500  0.28770  0.69860  Biso   1.000  N
  N5       1.0000 0.91500  0.78770  0.80140  Biso   1.000  N
  N6       1.0000 0.41500  0.28770  0.80140  Biso   1.000  N
  N7       1.0000 0.91500  0.21230  0.30140  Biso   1.000  N
  N8       1.0000 0.41500  0.71230  0.30140  Biso   1.000  N
  C17      1.0000 0.17450  0.21630  0.26530  Biso   1.000  C
  C18      1.0000 0.67450  0.71630  0.26530  Biso   1.000  C
  C19      1.0000 0.17450  0.78370  0.76530  Biso   1.000  C
  C20      1.0000 0.67450  0.28370  0.76530  Biso   1.000  C
  C21      1.0000 0.82550  0.78370  0.73470  Biso   1.000  C
  C22      1.0000 0.32550  0.28370  0.73470  Biso   1.000  C
  C23      1.0000 0.82550  0.21630  0.23470  Biso   1.000  C
  C24      1.0000 0.32550  0.71630  0.23470  Biso   1.000  C
  C25      1.0000 0.23240  0.28270  0.22500  Biso   1.000  C
  C26      1.0000 0.73240  0.78270  0.22500  Biso   1.000  C
  C27      1.0000 0.23240  0.71730  0.72500  Biso   1.000  C
  C28      1.0000 0.73240  0.21730  0.72500  Biso   1.000  C
  C29      1.0000 0.76760  0.71730  0.77500  Biso   1.000  C
  C30      1.0000 0.26760  0.21730  0.77500  Biso   1.000  C
  C31      1.0000 0.76760  0.28270  0.27500  Biso   1.000  C
  C32      1.0000 0.26760  0.78270  0.27500  Biso   1.000  C
  C33      1.0000 0.20300  0.35070  0.11160  Biso   1.000  C
  C34      1.0000 0.70300  0.85070  0.11160  Biso   1.000  C
  C35      1.0000 0.20300  0.64930  0.61160  Biso   1.000  C
  C36      1.0000 0.70300  0.14930  0.61160  Biso   1.000  C
  C37      1.0000 0.79700  0.64930  0.88840  Biso   1.000  C
  C38      1.0000 0.29700  0.14930  0.88840  Biso   1.000  C
  C39      1.0000 0.79700  0.35070  0.38840  Biso   1.000  C
  C40      1.0000 0.29700  0.85070  0.38840  Biso   1.000  C
  C41      1.0000 0.11110  0.34770  0.04320  Biso   1.000  C
  C42      1.0000 0.61110  0.84770  0.04320  Biso   1.000  C
  C43      1.0000 0.11110  0.65230  0.54320  Biso   1.000  C
  C44      1.0000 0.61110  0.15230  0.54320  Biso   1.000  C
  C45      1.0000 0.88890  0.65230  0.95680  Biso   1.000  C
  C46      1.0000 0.38890  0.15230  0.95680  Biso   1.000  C
  C47      1.0000 0.88890  0.34770  0.45680  Biso   1.000  C
  C48      1.0000 0.38890  0.84770  0.45680  Biso   1.000  C
  C49      1.0000 0.07780  0.41480  0.92960  Biso   1.000  C
  C50      1.0000 0.57780  0.91480  0.92960  Biso   1.000  C
  C51      1.0000 0.07780  0.58520  0.42960  Biso   1.000  C
  C52      1.0000 0.57780  0.08520  0.42960  Biso   1.000  C
  C53      1.0000 0.92220  0.58520  0.07040  Biso   1.000  C
  C54      1.0000 0.42220  0.08520  0.07040  Biso   1.000  C
  C55      1.0000 0.92220  0.41480  0.57040  Biso   1.000  C
  C56      1.0000 0.42220  0.91480  0.57040  Biso   1.000  C
  C57      1.0000 0.13310  0.48190  0.88480  Biso   1.000  C
  C58      1.0000 0.63310  0.98190  0.88480  Biso   1.000  C
  C59      1.0000 0.13310  0.51810  0.38480  Biso   1.000  C
  C60      1.0000 0.63310  0.01810  0.38480  Biso   1.000  C
  C61      1.0000 0.86690  0.51810  0.11520  Biso   1.000  C
  C62      1.0000 0.36690  0.01810  0.11520  Biso   1.000  C
  C63      1.0000 0.86690  0.48190  0.61520  Biso   1.000  C
  C64      1.0000 0.36690  0.98190  0.61520  Biso   1.000  C
  C65      1.0000 0.22530  0.48460  0.95260  Biso   1.000  C
  C66      1.0000 0.72530  0.98460  0.95260  Biso   1.000  C
  C67      1.0000 0.22530  0.51540  0.45260  Biso   1.000  C
  C68      1.0000 0.72530  0.01540  0.45260  Biso   1.000  C
  C69      1.0000 0.77470  0.51540  0.04740  Biso   1.000  C
  C70      1.0000 0.27470  0.01540  0.04740  Biso   1.000  C
  C71      1.0000 0.77470  0.48460  0.54740  Biso   1.000  C
  C72      1.0000 0.27470  0.98460  0.54740  Biso   1.000  C
  C73      1.0000 0.25910  0.42210  0.06240  Biso   1.000  C
  C74      1.0000 0.75910  0.92210  0.06240  Biso   1.000  C
  C75      1.0000 0.25910  0.57790  0.56240  Biso   1.000  C
  C76      1.0000 0.75910  0.07790  0.56240  Biso   1.000  C
  C77      1.0000 0.74090  0.57790  0.93760  Biso   1.000  C
  C78      1.0000 0.24090  0.07790  0.93760  Biso   1.000  C
  C79      1.0000 0.74090  0.42210  0.43760  Biso   1.000  C
  C80      1.0000 0.24090  0.92210  0.43760  Biso   1.000  C
  H1       1.0000 0.99000  0.28900  0.05400  Biso   1.000  H
  H2       1.0000 0.49000  0.78900  0.05400  Biso   1.000  H
  H3       1.0000 0.99000  0.71100  0.55400  Biso   1.000  H
  H4       1.0000 0.49000  0.21100  0.55400  Biso   1.000  H
  H5       1.0000 0.01000  0.71100  0.94600  Biso   1.000  H
  H6       1.0000 0.51000  0.21100  0.94600  Biso   1.000  H
  H7       1.0000 0.01000  0.28900  0.44600  Biso   1.000  H
  H8       1.0000 0.51000  0.78900  0.44600  Biso   1.000  H
  H9       1.0000 0.19100  0.16200  0.33400  Biso   1.000  H
  H10      1.0000 0.69100  0.66200  0.33400  Biso   1.000  H
  H11      1.0000 0.19100  0.83800  0.83400  Biso   1.000  H
  H12      1.0000 0.69100  0.33800  0.83400  Biso   1.000  H
  H13      1.0000 0.80900  0.83800  0.66600  Biso   1.000  H
  H14      1.0000 0.30900  0.33800  0.66600  Biso   1.000  H
  H15      1.0000 0.80900  0.16200  0.16600  Biso   1.000  H
  H16      1.0000 0.30900  0.66200  0.16600  Biso   1.000  H
  H17      1.0000 0.28400  0.27700  0.25900  Biso   1.000  H
  H18      1.0000 0.78400  0.77700  0.25900  Biso   1.000  H
  H19      1.0000 0.28400  0.72300  0.75900  Biso   1.000  H
  H20      1.0000 0.78400  0.22300  0.75900  Biso   1.000  H
  H21      1.0000 0.71600  0.72300  0.74100  Biso   1.000  H
  H22      1.0000 0.21600  0.22300  0.74100  Biso   1.000  H
  H23      1.0000 0.71600  0.27700  0.24100  Biso   1.000  H
  H24      1.0000 0.21600  0.77700  0.24100  Biso   1.000  H
  H25      1.0000 0.01800  0.41200  0.89500  Biso   1.000  H
  H26      1.0000 0.51800  0.91200  0.89500  Biso   1.000  H
  H27      1.0000 0.01800  0.58800  0.39500  Biso   1.000  H
  H28      1.0000 0.51800  0.08800  0.39500  Biso   1.000  H
  H29      1.0000 0.98200  0.58800  0.10500  Biso   1.000  H
  H30      1.0000 0.48200  0.08800  0.10500  Biso   1.000  H
  H31      1.0000 0.98200  0.41200  0.60500  Biso   1.000  H
  H32      1.0000 0.48200  0.91200  0.60500  Biso   1.000  H
  H33      1.0000 0.10600  0.53100  0.82000  Biso   1.000  H
  H34      1.0000 0.60600  0.03100  0.82000  Biso   1.000  H
  H35      1.0000 0.10600  0.46900  0.32000  Biso   1.000  H
  H36      1.0000 0.60600  0.96900  0.32000  Biso   1.000  H
  H37      1.0000 0.89400  0.46900  0.18000  Biso   1.000  H
  H38      1.0000 0.39400  0.96900  0.18000  Biso   1.000  H
  H39      1.0000 0.89400  0.53100  0.68000  Biso   1.000  H
  H40      1.0000 0.39400  0.03100  0.68000  Biso   1.000  H
  H41      1.0000 0.25700  0.52600  0.91700  Biso   1.000  H
  H42      1.0000 0.75700  0.02600  0.91700  Biso   1.000  H
  H43      1.0000 0.25700  0.47400  0.41700  Biso   1.000  H
  H44      1.0000 0.75700  0.97400  0.41700  Biso   1.000  H
  H45      1.0000 0.74300  0.47400  0.08300  Biso   1.000  H
  H46      1.0000 0.24300  0.97400  0.08300  Biso   1.000  H
  H47      1.0000 0.74300  0.52600  0.58300  Biso   1.000  H
  H48      1.0000 0.24300  0.02600  0.58300  Biso   1.000  H
  H49      1.0000 0.32200  0.41800  0.11000  Biso   1.000  H
  H50      1.0000 0.82200  0.91800  0.11000  Biso   1.000  H
  H51      1.0000 0.32200  0.58200  0.61000  Biso   1.000  H
  H52      1.0000 0.82200  0.08200  0.61000  Biso   1.000  H
  H53      1.0000 0.67800  0.58200  0.89000  Biso   1.000  H
  H54      1.0000 0.17800  0.08200  0.89000  Biso   1.000  H
  H55      1.0000 0.67800  0.41800  0.39000  Biso   1.000  H
  H56      1.0000 0.17800  0.91800  0.39000  Biso   1.000  H
