data_image0
_cell_length_a       12.0353
_cell_length_b       12.2848
_cell_length_c       15.3185
_cell_angle_alpha    84.993
_cell_angle_beta     89.411
_cell_angle_gamma    67.414

_symmetry_space_group_name_H-M    "P 1"
_symmetry_int_tables_number       1

loop_
  _symmetry_equiv_pos_as_xyz
  'x, y, z'

loop_
  _atom_site_label
  _atom_site_occupancy
  _atom_site_fract_x
  _atom_site_fract_y
  _atom_site_fract_z
  _atom_site_thermal_displace_type
  _atom_site_B_iso_or_equiv
  _atom_site_type_symbol
  Cu1      1.0000 0.00970  0.47624  0.40504  Biso   1.000  Cu
  Cu2      1.0000 0.99030  0.52376  0.59496  Biso   1.000  Cu
  O1       1.0000 0.89000  0.55550  0.48890  Biso   1.000  O
  O2       1.0000 0.11000  0.44450  0.51110  Biso   1.000  O
  C1       1.0000 0.77940  0.64010  0.46680  Biso   1.000  C
  C2       1.0000 0.22060  0.35990  0.53320  Biso   1.000  C
  C3       1.0000 0.72750  0.73680  0.51510  Biso   1.000  C
  C4       1.0000 0.27250  0.26320  0.48490  Biso   1.000  C
  H1       1.0000 0.76960  0.74590  0.56260  Biso   1.000  H
  H2       1.0000 0.23040  0.25410  0.43740  Biso   1.000  H
  C5       1.0000 0.61290  0.82020  0.49280  Biso   1.000  C
  C6       1.0000 0.38710  0.17980  0.50720  Biso   1.000  C
  H3       1.0000 0.57880  0.88360  0.52660  Biso   1.000  H
  H4       1.0000 0.42120  0.11640  0.47340  Biso   1.000  H
  C7       1.0000 0.55010  0.81150  0.42330  Biso   1.000  C
  C8       1.0000 0.44990  0.18850  0.57670  Biso   1.000  C
  H5       1.0000 0.47280  0.86700  0.40990  Biso   1.000  H
  H6       1.0000 0.52720  0.13300  0.59010  Biso   1.000  H
  C9       1.0000 0.60240  0.71940  0.37280  Biso   1.000  C
  C10      1.0000 0.39760  0.28060  0.62720  Biso   1.000  C
  H7       1.0000 0.56080  0.71530  0.32320  Biso   1.000  H
  H8       1.0000 0.43920  0.28470  0.67680  Biso   1.000  H
  C11      1.0000 0.71770  0.62990  0.39340  Biso   1.000  C
  C12      1.0000 0.28230  0.37010  0.60660  Biso   1.000  C
  C13      1.0000 0.77180  0.53080  0.33870  Biso   1.000  C
  C14      1.0000 0.22820  0.46920  0.66130  Biso   1.000  C
  H9       1.0000 0.71720  0.53910  0.29010  Biso   1.000  H
  H10      1.0000 0.28280  0.46090  0.70990  Biso   1.000  H
  H11      1.0000 0.78440  0.45680  0.37320  Biso   1.000  H
  H12      1.0000 0.21560  0.54320  0.62680  Biso   1.000  H
  N1       1.0000 0.89190  0.52810  0.30320  Biso   1.000  N
  N2       1.0000 0.10810  0.47190  0.69680  Biso   1.000  N
  H13      1.0000 0.88210  0.60320  0.28300  Biso   1.000  H
  H14      1.0000 0.11790  0.39680  0.71700  Biso   1.000  H
  C15      1.0000 0.93450  0.45520  0.23450  Biso   1.000  C
  C16      1.0000 0.06550  0.54480  0.76550  Biso   1.000  C
  H15      1.0000 0.86960  0.47440  0.19150  Biso   1.000  H
  H16      1.0000 0.13040  0.52560  0.80850  Biso   1.000  H
  H17      1.0000 0.95530  0.37360  0.25770  Biso   1.000  H
  H18      1.0000 0.04470  0.62640  0.74230  Biso   1.000  H
  C17      1.0000 0.03900  0.46470  0.19010  Biso   1.000  C
  C18      1.0000 0.96100  0.53530  0.80990  Biso   1.000  C
  H19      1.0000 0.01610  0.54500  0.16320  Biso   1.000  H
  H20      1.0000 0.98390  0.45500  0.83680  Biso   1.000  H
  H21      1.0000 0.05950  0.41250  0.14330  Biso   1.000  H
  H22      1.0000 0.94050  0.58750  0.85670  Biso   1.000  H
  C19      1.0000 0.14960  0.43530  0.24690  Biso   1.000  C
  C20      1.0000 0.85040  0.56470  0.75310  Biso   1.000  C
  O3       1.0000 0.14720  0.42660  0.32860  Biso   1.000  O
  O4       1.0000 0.85280  0.57340  0.67140  Biso   1.000  O
  O5       1.0000 0.24740  0.41840  0.20850  Biso   1.000  O
  O6       1.0000 0.75260  0.58160  0.79150  Biso   1.000  O
  Cu3      1.0000 0.38445  0.37887  0.28938  Biso   1.000  Cu
  Cu4      1.0000 0.61555  0.62113  0.71062  Biso   1.000  Cu
  O7       1.0000 0.45550  0.58940  0.94730  Biso   1.000  O
  O8       1.0000 0.54450  0.41060  0.05270  Biso   1.000  O
  C21      1.0000 0.36620  0.67740  0.89820  Biso   1.000  C
  C22      1.0000 0.63380  0.32260  0.10180  Biso   1.000  C
  C23      1.0000 0.31570  0.65420  0.82600  Biso   1.000  C
  C24      1.0000 0.68430  0.34580  0.17400  Biso   1.000  C
  H23      1.0000 0.34310  0.57760  0.80890  Biso   1.000  H
  H24      1.0000 0.65690  0.42240  0.19110  Biso   1.000  H
  C25      1.0000 0.22350  0.74480  0.77830  Biso   1.000  C
  C26      1.0000 0.77650  0.25520  0.22170  Biso   1.000  C
  H25      1.0000 0.19060  0.72920  0.72850  Biso   1.000  H
  H26      1.0000 0.80940  0.27080  0.27150  Biso   1.000  H
  C27      1.0000 0.18080  0.85750  0.80450  Biso   1.000  C
  C28      1.0000 0.81920  0.14250  0.19550  Biso   1.000  C
  H27      1.0000 0.11860  0.91810  0.77280  Biso   1.000  H
  H28      1.0000 0.88140  0.08190  0.22720  Biso   1.000  H
  C29      1.0000 0.22990  0.87980  0.87690  Biso   1.000  C
  C30      1.0000 0.77010  0.12020  0.12310  Biso   1.000  C
  H29      1.0000 0.20010  0.95620  0.89440  Biso   1.000  H
  H30      1.0000 0.79990  0.04380  0.10560  Biso   1.000  H
  C31      1.0000 0.32350  0.79150  0.92580  Biso   1.000  C
  C32      1.0000 0.67650  0.20850  0.07420  Biso   1.000  C
  C33      1.0000 0.37590  0.81510  0.00590  Biso   1.000  C
  C34      1.0000 0.62410  0.18490  0.99410  Biso   1.000  C
  H31      1.0000 0.34060  0.89890  0.01390  Biso   1.000  H
  H32      1.0000 0.65940  0.10110  0.98610  Biso   1.000  H
  H33      1.0000 0.46220  0.79200  0.00020  Biso   1.000  H
  H34      1.0000 0.53780  0.20800  0.99980  Biso   1.000  H
  N3       1.0000 0.35030  0.74500  0.08360  Biso   1.000  N
  N4       1.0000 0.64970  0.25500  0.91640  Biso   1.000  N
  H35      1.0000 0.27040  0.75940  0.08020  Biso   1.000  H
  H36      1.0000 0.72960  0.24060  0.91980  Biso   1.000  H
  C35      1.0000 0.37190  0.77980  0.16770  Biso   1.000  C
  C36      1.0000 0.62810  0.22020  0.83230  Biso   1.000  C
  H37      1.0000 0.33610  0.86550  0.16640  Biso   1.000  H
  H38      1.0000 0.66390  0.13450  0.83360  Biso   1.000  H
  H39      1.0000 0.45800  0.75510  0.17750  Biso   1.000  H
  H40      1.0000 0.54200  0.24490  0.82250  Biso   1.000  H
  C37      1.0000 0.32170  0.72770  0.24240  Biso   1.000  C
  C38      1.0000 0.67830  0.27230  0.75760  Biso   1.000  C
  H41      1.0000 0.23460  0.76100  0.23550  Biso   1.000  H
  H42      1.0000 0.76540  0.23900  0.76450  Biso   1.000  H
  H43      1.0000 0.34140  0.75330  0.29620  Biso   1.000  H
  H44      1.0000 0.65860  0.24670  0.70380  Biso   1.000  H
  C39      1.0000 0.36290  0.59530  0.25330  Biso   1.000  C
  C40      1.0000 0.63710  0.40470  0.74670  Biso   1.000  C
  O9       1.0000 0.43060  0.53190  0.19740  Biso   1.000  O
  O10      1.0000 0.56940  0.46810  0.80260  Biso   1.000  O
  O11      1.0000 0.33060  0.54750  0.31820  Biso   1.000  O
  O12      1.0000 0.66940  0.45250  0.68180  Biso   1.000  O
  Cu5      1.0000 0.43828  0.57189  0.07318  Biso   1.000  Cu
  Cu6      1.0000 0.56172  0.42811  0.92682  Biso   1.000  Cu
  N5       1.0000 0.52490  0.32140  0.37250  Biso   1.000  N
  N6       1.0000 0.47510  0.67860  0.62750  Biso   1.000  N
  C41      1.0000 0.55810  0.37840  0.42940  Biso   1.000  C
  C42      1.0000 0.44190  0.62160  0.57060  Biso   1.000  C
  H45      1.0000 0.51120  0.45800  0.43390  Biso   1.000  H
  H46      1.0000 0.48880  0.54200  0.56610  Biso   1.000  H
  C43      1.0000 0.66030  0.32410  0.48260  Biso   1.000  C
  C44      1.0000 0.33970  0.67590  0.51740  Biso   1.000  C
  H47      1.0000 0.68300  0.36750  0.52060  Biso   1.000  H
  H48      1.0000 0.31700  0.63250  0.47940  Biso   1.000  H
  C45      1.0000 0.72840  0.20450  0.47880  Biso   1.000  C
  C46      1.0000 0.27160  0.79550  0.52120  Biso   1.000  C
  H49      1.0000 0.79560  0.16610  0.51550  Biso   1.000  H
  H50      1.0000 0.20440  0.83390  0.48450  Biso   1.000  H
  C47      1.0000 0.69530  0.14390  0.42020  Biso   1.000  C
  C48      1.0000 0.30470  0.85610  0.57980  Biso   1.000  C
  C49      1.0000 0.59180  0.20440  0.36760  Biso   1.000  C
  C50      1.0000 0.40820  0.79560  0.63240  Biso   1.000  C
  C51      1.0000 0.55520  0.14740  0.30420  Biso   1.000  C
  C52      1.0000 0.44480  0.85260  0.69580  Biso   1.000  C
  C53      1.0000 0.62090  0.02920  0.29180  Biso   1.000  C
  C54      1.0000 0.37910  0.97080  0.70820  Biso   1.000  C
  C55      1.0000 0.58280  0.97980  0.22400  Biso   1.000  C
  C56      1.0000 0.41720  0.02020  0.77600  Biso   1.000  C
  H51      1.0000 0.62560  0.90180  0.21230  Biso   1.000  H
  H52      1.0000 0.37440  0.09820  0.78770  Biso   1.000  H
  C57      1.0000 0.48200  0.04900  0.17600  Biso   1.000  C
  C58      1.0000 0.51800  0.95100  0.82400  Biso   1.000  C
  H53      1.0000 0.45560  0.01810  0.13090  Biso   1.000  H
  H54      1.0000 0.54440  0.98190  0.86910  Biso   1.000  H
  C59      1.0000 0.41800  0.16560  0.19400  Biso   1.000  C
  C60      1.0000 0.58200  0.83440  0.80600  Biso   1.000  C
  H55      1.0000 0.34780  0.21050  0.16170  Biso   1.000  H
  H56      1.0000 0.65220  0.78950  0.83830  Biso   1.000  H
  N7       1.0000 0.45410  0.21430  0.25550  Biso   1.000  N
  N8       1.0000 0.54590  0.78570  0.74450  Biso   1.000  N
  C61      1.0000 0.76240  0.01960  0.40790  Biso   1.000  C
  C62      1.0000 0.23760  0.98040  0.59210  Biso   1.000  C
  H57      1.0000 0.83070  0.97550  0.44240  Biso   1.000  H
  H58      1.0000 0.16930  0.02450  0.55760  Biso   1.000  H
  C63      1.0000 0.72510  0.96910  0.34640  Biso   1.000  C
  C64      1.0000 0.27490  0.03090  0.65360  Biso   1.000  C
  H59      1.0000 0.77010  0.89000  0.33900  Biso   1.000  H
  H60      1.0000 0.22990  0.11000  0.66100  Biso   1.000  H
  O13      1.0000 0.97310  0.30210  0.44030  Biso   1.000  O
  O14      1.0000 0.02690  0.69790  0.55970  Biso   1.000  O
  O15      1.0000 0.25790  0.54130  0.04870  Biso   1.000  O
  O16      1.0000 0.74210  0.45870  0.95130  Biso   1.000  O
  H61      1.0000 0.19800  0.59600  0.02300  Biso   1.000  H
  H62      1.0000 0.80200  0.40400  0.97700  Biso   1.000  H
  H63      1.0000 0.23600  0.49900  0.08700  Biso   1.000  H
  H64      1.0000 0.76400  0.50100  0.91300  Biso   1.000  H
  Cl1      1.0000 0.73500  0.71900  0.06990  Biso   1.000  Cl
  Cl2      1.0000 0.26500  0.28100  0.93010  Biso   1.000  Cl
  O17      1.0000 0.78650  0.73120  0.14670  Biso   1.000  O
  O18      1.0000 0.21350  0.26880  0.85330  Biso   1.000  O
  O19      1.0000 0.66930  0.64520  0.08800  Biso   1.000  O
  O20      1.0000 0.33070  0.35480  0.91200  Biso   1.000  O
  O21      1.0000 0.65920  0.82790  0.03360  Biso   1.000  O
  O22      1.0000 0.34080  0.17210  0.96640  Biso   1.000  O
  O23      1.0000 0.82400  0.66410  0.01270  Biso   1.000  O
  O24      1.0000 0.17600  0.33590  0.98730  Biso   1.000  O
  Cl3      1.0000 0.15820  0.06170  0.30790  Biso   1.000  Cl
  Cl4      1.0000 0.84180  0.93830  0.69210  Biso   1.000  Cl
  O25      1.0000 0.13900  0.17360  0.27040  Biso   1.000  O
  O26      1.0000 0.86100  0.82640  0.72960  Biso   1.000  O
  O27      1.0000 0.27530  0.00010  0.33630  Biso   1.000  O
  O28      1.0000 0.72470  0.99990  0.66370  Biso   1.000  O
  O29      1.0000 0.07980  0.06950  0.37700  Biso   1.000  O
  O30      1.0000 0.92020  0.93050  0.62300  Biso   1.000  O
  O31      1.0000 0.13110  0.99850  0.24590  Biso   1.000  O
  O32      1.0000 0.86890  0.00150  0.75410  Biso   1.000  O
  O33      1.0000 0.07170  0.68350  0.37950  Biso   1.000  O
  O34      1.0000 0.92830  0.31650  0.62050  Biso   1.000  O
  O35      1.0000 0.90340  0.88780  0.93840  Biso   1.000  O
  O36      1.0000 0.09660  0.11220  0.06160  Biso   1.000  O
  O37      1.0000 0.07890  0.88820  0.07800  Biso   1.000  O
  O38      1.0000 0.92110  0.11180  0.92200  Biso   1.000  O
  O39      1.0000 0.98370  0.80960  0.22250  Biso   1.000  O
  O40      1.0000 0.01630  0.19040  0.77750  Biso   1.000  O
  O41      1.0000 0.08220  0.77200  0.06820  Biso   1.000  O
  O42      1.0000 0.91780  0.22800  0.93180  Biso   1.000  O
