data_image0
_cell_length_a       8.596
_cell_length_b       17.49
_cell_length_c       11.024
_cell_angle_alpha    90
_cell_angle_beta     90
_cell_angle_gamma    97.1

_symmetry_space_group_name_H-M    "P 1"
_symmetry_int_tables_number       1

loop_
  _symmetry_equiv_pos_as_xyz
  'x, y, z'

loop_
  _atom_site_label
  _atom_site_occupancy
  _atom_site_fract_x
  _atom_site_fract_y
  _atom_site_fract_z
  _atom_site_thermal_displace_type
  _atom_site_B_iso_or_equiv
  _atom_site_type_symbol
  Cu1      1.0000 0.25120  0.28240  0.47170  Biso   1.000  Cu
  Cu2      1.0000 0.74880  0.21760  0.97170  Biso   1.000  Cu
  Cu3      1.0000 0.74880  0.71760  0.52830  Biso   1.000  Cu
  Cu4      1.0000 0.25120  0.78240  0.02830  Biso   1.000  Cu
  O1       1.0000 0.60400  0.22330  0.83580  Biso   1.000  O
  O2       1.0000 0.39600  0.27670  0.33580  Biso   1.000  O
  O3       1.0000 0.39600  0.77670  0.16420  Biso   1.000  O
  O4       1.0000 0.60400  0.72330  0.66420  Biso   1.000  O
  O5       1.0000 0.66660  0.12290  0.73340  Biso   1.000  O
  O6       1.0000 0.33340  0.37710  0.23340  Biso   1.000  O
  O7       1.0000 0.33340  0.87710  0.26660  Biso   1.000  O
  O8       1.0000 0.66660  0.62290  0.76660  Biso   1.000  O
  O9       1.0000 0.33820  0.39030  0.51650  Biso   1.000  O
  O10      1.0000 0.66180  0.10970  0.01650  Biso   1.000  O
  O11      1.0000 0.66180  0.60970  0.48350  Biso   1.000  O
  O12      1.0000 0.33820  0.89030  0.98350  Biso   1.000  O
  O13      1.0000 0.52160  0.46530  0.61600  Biso   1.000  O
  O14      1.0000 0.47840  0.03470  0.11600  Biso   1.000  O
  O15      1.0000 0.47840  0.53470  0.38400  Biso   1.000  O
  O16      1.0000 0.52160  0.96530  0.88400  Biso   1.000  O
  O17      1.0000 0.03350  0.37870  0.42640  Biso   1.000  O
  O18      1.0000 0.96650  0.12130  0.92640  Biso   1.000  O
  O19      1.0000 0.96650  0.62130  0.57360  Biso   1.000  O
  O20      1.0000 0.03350  0.87870  0.07360  Biso   1.000  O
  O21      1.0000 0.86750  0.43280  0.54630  Biso   1.000  O
  O22      1.0000 0.13250  0.06720  0.04630  Biso   1.000  O
  O23      1.0000 0.13250  0.56720  0.45370  Biso   1.000  O
  O24      1.0000 0.86750  0.93280  0.95370  Biso   1.000  O
  O25      1.0000 0.15530  0.17850  0.42640  Biso   1.000  O
  O26      1.0000 0.84470  0.32150  0.92640  Biso   1.000  O
  O27      1.0000 0.84470  0.82150  0.57360  Biso   1.000  O
  O28      1.0000 0.15530  0.67850  0.07360  Biso   1.000  O
  O29      1.0000 0.93460  0.10050  0.42650  Biso   1.000  O
  O30      1.0000 0.06540  0.39950  0.92650  Biso   1.000  O
  O31      1.0000 0.06540  0.89950  0.57350  Biso   1.000  O
  O32      1.0000 0.93460  0.60050  0.07350  Biso   1.000  O
  N1       1.0000 0.41020  0.26290  0.63830  Biso   1.000  N
  N2       1.0000 0.58980  0.23710  0.13830  Biso   1.000  N
  N3       1.0000 0.58980  0.73710  0.36170  Biso   1.000  N
  N4       1.0000 0.41020  0.76290  0.86170  Biso   1.000  N
  N5       1.0000 0.07430  0.26830  0.59790  Biso   1.000  N
  N6       1.0000 0.92570  0.23170  0.09790  Biso   1.000  N
  N7       1.0000 0.92570  0.73170  0.40210  Biso   1.000  N
  N8       1.0000 0.07430  0.76830  0.90210  Biso   1.000  N
  C1       1.0000 0.30450  0.27060  0.74180  Biso   1.000  C
  C2       1.0000 0.69550  0.22940  0.24180  Biso   1.000  C
  C3       1.0000 0.69550  0.72940  0.25820  Biso   1.000  C
  C4       1.0000 0.30450  0.77060  0.75820  Biso   1.000  C
  C5       1.0000 0.13940  0.23420  0.70640  Biso   1.000  C
  C6       1.0000 0.86060  0.26580  0.20640  Biso   1.000  C
  C7       1.0000 0.86060  0.76580  0.29360  Biso   1.000  C
  C8       1.0000 0.13940  0.73420  0.79360  Biso   1.000  C
  C9       1.0000 0.47860  0.18960  0.64150  Biso   1.000  C
  C10      1.0000 0.52140  0.31040  0.14150  Biso   1.000  C
  C11      1.0000 0.52140  0.81040  0.35850  Biso   1.000  C
  C12      1.0000 0.47860  0.68960  0.85850  Biso   1.000  C
  C13      1.0000 0.59090  0.17900  0.74560  Biso   1.000  C
  C14      1.0000 0.40910  0.32100  0.24560  Biso   1.000  C
  C15      1.0000 0.40910  0.82100  0.25440  Biso   1.000  C
  C16      1.0000 0.59090  0.67900  0.75440  Biso   1.000  C
  C17      1.0000 0.53030  0.33060  0.62590  Biso   1.000  C
  C18      1.0000 0.46970  0.16940  0.12590  Biso   1.000  C
  C19      1.0000 0.46970  0.66940  0.37410  Biso   1.000  C
  C20      1.0000 0.53030  0.83060  0.87410  Biso   1.000  C
  C21      1.0000 0.45790  0.40110  0.58290  Biso   1.000  C
  C22      1.0000 0.54210  0.09890  0.08290  Biso   1.000  C
  C23      1.0000 0.54210  0.59890  0.41710  Biso   1.000  C
  C24      1.0000 0.45790  0.90110  0.91710  Biso   1.000  C
  C25      1.0000 0.00620  0.34120  0.63570  Biso   1.000  C
  C26      1.0000 0.99380  0.15880  0.13570  Biso   1.000  C
  C27      1.0000 0.99380  0.65880  0.36430  Biso   1.000  C
  C28      1.0000 0.00620  0.84120  0.86430  Biso   1.000  C
  C29      1.0000 0.96810  0.38750  0.52590  Biso   1.000  C
  C30      1.0000 0.03190  0.11250  0.02590  Biso   1.000  C
  C31      1.0000 0.03190  0.61250  0.47410  Biso   1.000  C
  C32      1.0000 0.96810  0.88750  0.97410  Biso   1.000  C
  C33      1.0000 0.94570  0.21480  0.54380  Biso   1.000  C
  C34      1.0000 0.05430  0.28520  0.04380  Biso   1.000  C
  C35      1.0000 0.05430  0.78520  0.45620  Biso   1.000  C
  C36      1.0000 0.94570  0.71480  0.95620  Biso   1.000  C
  C37      1.0000 0.01060  0.15700  0.45990  Biso   1.000  C
  C38      1.0000 0.98940  0.34300  0.95990  Biso   1.000  C
  C39      1.0000 0.98940  0.84300  0.54010  Biso   1.000  C
  C40      1.0000 0.01060  0.65700  0.04010  Biso   1.000  C
  Ca1      1.0000 0.22430  0.47300  0.33290  Biso   1.000  Ca
  Ca2      1.0000 0.77570  0.02700  0.83290  Biso   1.000  Ca
  Ca3      1.0000 0.77570  0.52700  0.66710  Biso   1.000  Ca
  Ca4      1.0000 0.22430  0.97300  0.16710  Biso   1.000  Ca
  O33      1.0000 0.30230  0.54940  0.15260  Biso   1.000  O
  O34      1.0000 0.69770  0.95060  0.65260  Biso   1.000  O
  O35      1.0000 0.69770  0.45060  0.84740  Biso   1.000  O
  O36      1.0000 0.30230  0.04940  0.34740  Biso   1.000  O
  O37      1.0000 0.99300  0.47300  0.20850  Biso   1.000  O
  O38      1.0000 0.00700  0.02700  0.70850  Biso   1.000  O
  O39      1.0000 0.00700  0.52700  0.79150  Biso   1.000  O
  O40      1.0000 0.99300  0.97300  0.29150  Biso   1.000  O
  O41      1.0000 0.71000  0.43730  0.32560  Biso   1.000  O
  O42      1.0000 0.29000  0.06270  0.82560  Biso   1.000  O
  O43      1.0000 0.29000  0.56270  0.67440  Biso   1.000  O
  O44      1.0000 0.71000  0.93730  0.17440  Biso   1.000  O
  O45      1.0000 0.61160  0.08680  0.43390  Biso   1.000  O
  O46      1.0000 0.38840  0.41320  0.93390  Biso   1.000  O
  O47      1.0000 0.38840  0.91320  0.56610  Biso   1.000  O
  O48      1.0000 0.61160  0.58680  0.06610  Biso   1.000  O
