data_image0
_cell_length_a       16.37
_cell_length_b       13.432
_cell_length_c       5.814
_cell_angle_alpha    90
_cell_angle_beta     90
_cell_angle_gamma    90

_symmetry_space_group_name_H-M    "P 1"
_symmetry_int_tables_number       1

loop_
  _symmetry_equiv_pos_as_xyz
  'x, y, z'

loop_
  _atom_site_label
  _atom_site_occupancy
  _atom_site_fract_x
  _atom_site_fract_y
  _atom_site_fract_z
  _atom_site_thermal_displace_type
  _atom_site_B_iso_or_equiv
  _atom_site_type_symbol
  Cu1      1.0000 0.19620  0.11560  0.04670  Biso   1.000  Cu
  Cu2      1.0000 0.30380  0.88440  0.54670  Biso   1.000  Cu
  Cu3      1.0000 0.69620  0.38440  0.95330  Biso   1.000  Cu
  Cu4      1.0000 0.80380  0.61560  0.45330  Biso   1.000  Cu
  Cl1      1.0000 0.30560  0.04200  0.23470  Biso   1.000  Cl
  Cl2      1.0000 0.19440  0.95800  0.73470  Biso   1.000  Cl
  Cl3      1.0000 0.80560  0.45800  0.76530  Biso   1.000  Cl
  Cl4      1.0000 0.69440  0.54200  0.26530  Biso   1.000  Cl
  Cl5      1.0000 0.08860  0.18390  0.86540  Biso   1.000  Cl
  Cl6      1.0000 0.41140  0.81610  0.36540  Biso   1.000  Cl
  Cl7      1.0000 0.58860  0.31610  0.13460  Biso   1.000  Cl
  Cl8      1.0000 0.91140  0.68390  0.63460  Biso   1.000  Cl
  O1       1.0000 0.12350  0.04410  0.25870  Biso   1.000  O
  O2       1.0000 0.37650  0.95590  0.75870  Biso   1.000  O
  O3       1.0000 0.62350  0.45590  0.74130  Biso   1.000  O
  O4       1.0000 0.87650  0.54410  0.24130  Biso   1.000  O
  N1       1.0000 0.38650  0.46530  0.15490  Biso   1.000  N
  N2       1.0000 0.11350  0.53470  0.65490  Biso   1.000  N
  N3       1.0000 0.88650  0.03470  0.84510  Biso   1.000  N
  N4       1.0000 0.61350  0.96530  0.34510  Biso   1.000  N
  C1       1.0000 0.43380  0.54980  0.24870  Biso   1.000  C
  C2       1.0000 0.06620  0.45020  0.74870  Biso   1.000  C
  C3       1.0000 0.93380  0.95020  0.75130  Biso   1.000  C
  C4       1.0000 0.56620  0.04980  0.25130  Biso   1.000  C
  C5       1.0000 0.31860  0.43500  0.28150  Biso   1.000  C
  C6       1.0000 0.18140  0.56500  0.78150  Biso   1.000  C
  C7       1.0000 0.81860  0.06500  0.71850  Biso   1.000  C
  C8       1.0000 0.68140  0.93500  0.21850  Biso   1.000  C
  O5       1.0000 0.29700  0.48020  0.45360  Biso   1.000  O
  O6       1.0000 0.20300  0.51980  0.95360  Biso   1.000  O
  O7       1.0000 0.79700  0.01980  0.54640  Biso   1.000  O
  O8       1.0000 0.70300  0.98020  0.04640  Biso   1.000  O
  N5       1.0000 0.27780  0.34970  0.20830  Biso   1.000  N
  N6       1.0000 0.22220  0.65030  0.70830  Biso   1.000  N
  N7       1.0000 0.77780  0.15030  0.79170  Biso   1.000  N
  N8       1.0000 0.72220  0.84970  0.29170  Biso   1.000  N
  C9       1.0000 0.20080  0.32290  0.32240  Biso   1.000  C
  C10      1.0000 0.29920  0.67710  0.82240  Biso   1.000  C
  C11      1.0000 0.70080  0.17710  0.67760  Biso   1.000  C
  C12      1.0000 0.79920  0.82290  0.17760  Biso   1.000  C
  C13      1.0000 0.30480  0.30190  0.01620  Biso   1.000  C
  C14      1.0000 0.19520  0.69810  0.51620  Biso   1.000  C
  C15      1.0000 0.80480  0.19810  0.98380  Biso   1.000  C
  C16      1.0000 0.69520  0.80190  0.48380  Biso   1.000  C
  C17      1.0000 0.36930  0.33580  0.88850  Biso   1.000  C
  C18      1.0000 0.13070  0.66420  0.38850  Biso   1.000  C
  C19      1.0000 0.86930  0.16420  0.11150  Biso   1.000  C
  C20      1.0000 0.63070  0.83580  0.61150  Biso   1.000  C
  C21      1.0000 0.41160  0.42630  0.94420  Biso   1.000  C
  C22      1.0000 0.08840  0.57370  0.44420  Biso   1.000  C
  C23      1.0000 0.91160  0.07370  0.05580  Biso   1.000  C
  C24      1.0000 0.58840  0.92630  0.55580  Biso   1.000  C
  O9       1.0000 0.46350  0.46790  0.82640  Biso   1.000  O
  O10      1.0000 0.03650  0.53210  0.32640  Biso   1.000  O
  O11      1.0000 0.96350  0.03210  0.17360  Biso   1.000  O
  O12      1.0000 0.53650  0.96790  0.67360  Biso   1.000  O
  N9       1.0000 0.38000  0.26810  0.71450  Biso   1.000  N
  N10      1.0000 0.12000  0.73190  0.21450  Biso   1.000  N
  N11      1.0000 0.88000  0.23190  0.28550  Biso   1.000  N
  N12      1.0000 0.62000  0.76810  0.78550  Biso   1.000  N
  C25      1.0000 0.44700  0.26430  0.54330  Biso   1.000  C
  C26      1.0000 0.05300  0.73570  0.04330  Biso   1.000  C
  C27      1.0000 0.94700  0.23570  0.45670  Biso   1.000  C
  C28      1.0000 0.55300  0.76430  0.95670  Biso   1.000  C
  C29      1.0000 0.32340  0.19840  0.73950  Biso   1.000  C
  C30      1.0000 0.17660  0.80160  0.23950  Biso   1.000  C
  C31      1.0000 0.82340  0.30160  0.26050  Biso   1.000  C
  C32      1.0000 0.67660  0.69840  0.76050  Biso   1.000  C
  N13      1.0000 0.27410  0.21500  0.92510  Biso   1.000  N
  N14      1.0000 0.22590  0.78500  0.42510  Biso   1.000  N
  N15      1.0000 0.77410  0.28500  0.07490  Biso   1.000  N
  N16      1.0000 0.72590  0.71500  0.57490  Biso   1.000  N
  H1       1.0000 0.48600  0.53400  0.20600  Biso   1.000  H
  H2       1.0000 0.01400  0.46600  0.70600  Biso   1.000  H
  H3       1.0000 0.98600  0.96600  0.79400  Biso   1.000  H
  H4       1.0000 0.51400  0.03400  0.29400  Biso   1.000  H
  H5       1.0000 0.44000  0.53800  0.40100  Biso   1.000  H
  H6       1.0000 0.06000  0.46200  0.90100  Biso   1.000  H
  H7       1.0000 0.94000  0.96200  0.59900  Biso   1.000  H
  H8       1.0000 0.56000  0.03800  0.09900  Biso   1.000  H
  H9       1.0000 0.41000  0.59100  0.22800  Biso   1.000  H
  H10      1.0000 0.09000  0.40900  0.72800  Biso   1.000  H
  H11      1.0000 0.91000  0.90900  0.77200  Biso   1.000  H
  H12      1.0000 0.59000  0.09100  0.27200  Biso   1.000  H
  H13      1.0000 0.21000  0.25800  0.37500  Biso   1.000  H
  H14      1.0000 0.29000  0.74200  0.87500  Biso   1.000  H
  H15      1.0000 0.71000  0.24200  0.62500  Biso   1.000  H
  H16      1.0000 0.79000  0.75800  0.12500  Biso   1.000  H
  H17      1.0000 0.20200  0.36200  0.46000  Biso   1.000  H
  H18      1.0000 0.29800  0.63800  0.96000  Biso   1.000  H
  H19      1.0000 0.70200  0.13800  0.54000  Biso   1.000  H
  H20      1.0000 0.79800  0.86200  0.04000  Biso   1.000  H
  H21      1.0000 0.15000  0.34600  0.24000  Biso   1.000  H
  H22      1.0000 0.35000  0.65400  0.74000  Biso   1.000  H
  H23      1.0000 0.65000  0.15400  0.76000  Biso   1.000  H
  H24      1.0000 0.85000  0.84600  0.26000  Biso   1.000  H
  H25      1.0000 0.49600  0.26100  0.64800  Biso   1.000  H
  H26      1.0000 0.00400  0.73900  0.14800  Biso   1.000  H
  H27      1.0000 0.99600  0.23900  0.35200  Biso   1.000  H
  H28      1.0000 0.50400  0.76100  0.85200  Biso   1.000  H
  H29      1.0000 0.45300  0.31000  0.48100  Biso   1.000  H
  H30      1.0000 0.04700  0.69000  0.98100  Biso   1.000  H
  H31      1.0000 0.95300  0.19000  0.51900  Biso   1.000  H
  H32      1.0000 0.54700  0.81000  0.01900  Biso   1.000  H
  H33      1.0000 0.43200  0.20200  0.41900  Biso   1.000  H
  H34      1.0000 0.06800  0.79800  0.91900  Biso   1.000  H
  H35      1.0000 0.93200  0.29800  0.58100  Biso   1.000  H
  H36      1.0000 0.56800  0.70200  0.08100  Biso   1.000  H
  H37      1.0000 0.31100  0.13900  0.62200  Biso   1.000  H
  H38      1.0000 0.18900  0.86100  0.12200  Biso   1.000  H
  H39      1.0000 0.81100  0.36100  0.37800  Biso   1.000  H
  H40      1.0000 0.68900  0.63900  0.87800  Biso   1.000  H
  H41      1.0000 0.13300  0.03100  0.35900  Biso   1.000  H
  H42      1.0000 0.36700  0.96900  0.85900  Biso   1.000  H
  H43      1.0000 0.63300  0.46900  0.64100  Biso   1.000  H
  H44      1.0000 0.86700  0.53100  0.14100  Biso   1.000  H
  H45      1.0000 0.09600  0.06300  0.26300  Biso   1.000  H
  H46      1.0000 0.40400  0.93700  0.76300  Biso   1.000  H
  H47      1.0000 0.59600  0.43700  0.73700  Biso   1.000  H
  H48      1.0000 0.90400  0.56300  0.23700  Biso   1.000  H
