data_image0
_cell_length_a       5.7841
_cell_length_b       13.342
_cell_length_c       16.26
_cell_angle_alpha    90
_cell_angle_beta     90
_cell_angle_gamma    90

_symmetry_space_group_name_H-M    "P 1"
_symmetry_int_tables_number       1

loop_
  _symmetry_equiv_pos_as_xyz
  'x, y, z'

loop_
  _atom_site_label
  _atom_site_occupancy
  _atom_site_fract_x
  _atom_site_fract_y
  _atom_site_fract_z
  _atom_site_thermal_displace_type
  _atom_site_B_iso_or_equiv
  _atom_site_type_symbol
  C1       1.0000 0.49090  0.94840  0.92768  Biso   1.000  C
  C2       1.0000 0.00910  0.05160  0.42768  Biso   1.000  C
  C3       1.0000 0.99090  0.55160  0.07232  Biso   1.000  C
  C4       1.0000 0.50910  0.44840  0.57232  Biso   1.000  C
  H1       1.0000 0.39310  0.89360  0.93380  Biso   1.000  H
  H2       1.0000 0.10690  0.10640  0.43380  Biso   1.000  H
  H3       1.0000 0.89310  0.60640  0.06620  Biso   1.000  H
  H4       1.0000 0.60690  0.39360  0.56620  Biso   1.000  H
  C5       1.0000 0.63950  0.08580  0.88088  Biso   1.000  C
  C6       1.0000 0.86050  0.91420  0.38088  Biso   1.000  C
  C7       1.0000 0.13950  0.41420  0.11912  Biso   1.000  C
  C8       1.0000 0.36050  0.58580  0.61912  Biso   1.000  C
  C9       1.0000 0.76700  0.05166  0.94548  Biso   1.000  C
  C10      1.0000 0.73300  0.94834  0.44548  Biso   1.000  C
  C11      1.0000 0.26700  0.44834  0.05452  Biso   1.000  C
  C12      1.0000 0.23300  0.55166  0.55452  Biso   1.000  C
  C13      1.0000 0.03400  0.18480  0.93133  Biso   1.000  C
  C14      1.0000 0.46600  0.81520  0.43133  Biso   1.000  C
  C15      1.0000 0.53400  0.31520  0.06867  Biso   1.000  C
  C16      1.0000 0.96600  0.68480  0.56867  Biso   1.000  C
  C17      1.0000 0.69220  0.17660  0.83860  Biso   1.000  C
  C18      1.0000 0.80780  0.82340  0.33860  Biso   1.000  C
  C19      1.0000 0.19220  0.32340  0.16140  Biso   1.000  C
  C20      1.0000 0.30780  0.67660  0.66140  Biso   1.000  C
  C21      1.0000 0.00070  0.30030  0.81630  Biso   1.000  C
  C22      1.0000 0.49930  0.69970  0.31630  Biso   1.000  C
  C23      1.0000 0.50070  0.19970  0.18370  Biso   1.000  C
  C24      1.0000 0.99930  0.80030  0.68370  Biso   1.000  C
  H5       1.0000 0.16630  0.29930  0.81990  Biso   1.000  H
  H6       1.0000 0.33370  0.70070  0.31990  Biso   1.000  H
  H7       1.0000 0.66630  0.20070  0.18010  Biso   1.000  H
  H8       1.0000 0.83370  0.79930  0.68010  Biso   1.000  H
  H9       1.0000 0.94350  0.36210  0.83870  Biso   1.000  H
  H10      1.0000 0.55650  0.63790  0.33870  Biso   1.000  H
  H11      1.0000 0.44350  0.13790  0.16130  Biso   1.000  H
  H12      1.0000 0.05650  0.86210  0.66130  Biso   1.000  H
  H13      1.0000 0.95480  0.29490  0.75970  Biso   1.000  H
  H14      1.0000 0.54520  0.70510  0.25970  Biso   1.000  H
  H15      1.0000 0.45480  0.20510  0.24030  Biso   1.000  H
  H16      1.0000 0.04520  0.79490  0.74030  Biso   1.000  H
  C25      1.0000 0.29580  0.01550  0.80250  Biso   1.000  C
  C26      1.0000 0.20420  0.98450  0.30250  Biso   1.000  C
  C27      1.0000 0.79580  0.48450  0.19750  Biso   1.000  C
  C28      1.0000 0.70420  0.51550  0.69750  Biso   1.000  C
  H17      1.0000 0.22270  0.07980  0.79760  Biso   1.000  H
  H18      1.0000 0.27730  0.92020  0.29760  Biso   1.000  H
  H19      1.0000 0.72270  0.42020  0.20240  Biso   1.000  H
  H20      1.0000 0.77730  0.57980  0.70240  Biso   1.000  H
  H21      1.0000 0.18090  0.96540  0.81360  Biso   1.000  H
  H22      1.0000 0.31910  0.03460  0.31360  Biso   1.000  H
  H23      1.0000 0.68090  0.53460  0.18640  Biso   1.000  H
  H24      1.0000 0.81910  0.46540  0.68640  Biso   1.000  H
  H25      1.0000 0.37410  0.99970  0.75210  Biso   1.000  H
  H26      1.0000 0.12590  0.00030  0.25210  Biso   1.000  H
  H27      1.0000 0.87410  0.50030  0.24790  Biso   1.000  H
  H28      1.0000 0.62590  0.49970  0.74790  Biso   1.000  H
  C29      1.0000 0.07570  0.07390  0.04890  Biso   1.000  C
  C30      1.0000 0.42430  0.92610  0.54890  Biso   1.000  C
  C31      1.0000 0.57570  0.42610  0.95110  Biso   1.000  C
  C32      1.0000 0.92430  0.57390  0.45110  Biso   1.000  C
  H29      1.0000 0.20640  0.11720  0.05670  Biso   1.000  H
  H30      1.0000 0.29360  0.88280  0.55670  Biso   1.000  H
  H31      1.0000 0.70640  0.38280  0.94330  Biso   1.000  H
  H32      1.0000 0.79360  0.61720  0.44330  Biso   1.000  H
  H33      1.0000 0.12690  0.00550  0.04660  Biso   1.000  H
  H34      1.0000 0.37310  0.99450  0.54660  Biso   1.000  H
  H35      1.0000 0.62690  0.49450  0.95340  Biso   1.000  H
  H36      1.0000 0.87310  0.50550  0.45340  Biso   1.000  H
  H37      1.0000 0.96990  0.08200  0.09390  Biso   1.000  H
  H38      1.0000 0.53010  0.91800  0.59390  Biso   1.000  H
  H39      1.0000 0.46990  0.41800  0.90610  Biso   1.000  H
  H40      1.0000 0.03010  0.58200  0.40610  Biso   1.000  H
  N1       1.0000 0.67210  0.96540  0.97536  Biso   1.000  N
  N2       1.0000 0.82790  0.03460  0.47536  Biso   1.000  N
  N3       1.0000 0.17210  0.53460  0.02464  Biso   1.000  N
  N4       1.0000 0.32790  0.46540  0.52464  Biso   1.000  N
  N5       1.0000 0.46360  0.01799  0.87017  Biso   1.000  N
  N6       1.0000 0.03640  0.98201  0.37017  Biso   1.000  N
  N7       1.0000 0.96360  0.48201  0.12983  Biso   1.000  N
  N8       1.0000 0.53640  0.51799  0.62983  Biso   1.000  N
  N9       1.0000 0.95980  0.09973  0.97208  Biso   1.000  N
  N10      1.0000 0.54020  0.90027  0.47208  Biso   1.000  N
  N11      1.0000 0.45980  0.40027  0.02792  Biso   1.000  N
  N12      1.0000 0.04020  0.59973  0.52792  Biso   1.000  N
  N13      1.0000 0.90470  0.21550  0.86306  Biso   1.000  N
  N14      1.0000 0.59530  0.78450  0.36306  Biso   1.000  N
  N15      1.0000 0.40470  0.28450  0.13694  Biso   1.000  N
  N16      1.0000 0.09530  0.71550  0.63694  Biso   1.000  N
  O1       1.0000 0.00980  0.79450  0.12706  Biso   1.000  O
  O2       1.0000 0.49020  0.20550  0.62706  Biso   1.000  O
  O3       1.0000 0.50980  0.70550  0.87294  Biso   1.000  O
  O4       1.0000 0.99020  0.29450  0.37294  Biso   1.000  O
  O5       1.0000 0.57670  0.21829  0.78614  Biso   1.000  O
  O6       1.0000 0.92330  0.78171  0.28614  Biso   1.000  O
  O7       1.0000 0.07670  0.28171  0.21386  Biso   1.000  O
  O8       1.0000 0.42330  0.71829  0.71386  Biso   1.000  O
  O9       1.0000 0.20570  0.22988  0.95262  Biso   1.000  O
  O10      1.0000 0.29430  0.77012  0.45262  Biso   1.000  O
  O11      1.0000 0.70570  0.27012  0.04738  Biso   1.000  O
  O12      1.0000 0.79430  0.72988  0.54738  Biso   1.000  O
  Cl1      1.0000 0.98534  0.79206  0.94441  Biso   1.000  Cl
  Cl2      1.0000 0.51466  0.20794  0.44441  Biso   1.000  Cl
  Cl3      1.0000 0.48534  0.70794  0.05559  Biso   1.000  Cl
  Cl4      1.0000 0.01466  0.29206  0.55559  Biso   1.000  Cl
  Cl5      1.0000 0.61622  0.93403  0.16147  Biso   1.000  Cl
  Cl6      1.0000 0.88378  0.06597  0.66147  Biso   1.000  Cl
  Cl7      1.0000 0.11622  0.56597  0.83853  Biso   1.000  Cl
  Cl8      1.0000 0.38378  0.43403  0.33853  Biso   1.000  Cl
  Cu1      1.0000 0.79706  0.86571  0.05366  Biso   1.000  Cu
  Cu2      1.0000 0.70294  0.13429  0.55366  Biso   1.000  Cu
  Cu3      1.0000 0.29706  0.63429  0.94634  Biso   1.000  Cu
  Cu4      1.0000 0.20294  0.36571  0.44634  Biso   1.000  Cu
