data_image0
_cell_length_a       14.3826
_cell_length_b       22.7555
_cell_length_c       8.9757
_cell_angle_alpha    90
_cell_angle_beta     90
_cell_angle_gamma    90

_symmetry_space_group_name_H-M    "P 1"
_symmetry_int_tables_number       1

loop_
  _symmetry_equiv_pos_as_xyz
  'x, y, z'

loop_
  _atom_site_label
  _atom_site_occupancy
  _atom_site_fract_x
  _atom_site_fract_y
  _atom_site_fract_z
  _atom_site_thermal_displace_type
  _atom_site_B_iso_or_equiv
  _atom_site_type_symbol
  Cu1      1.0000 0.00000  0.22010  0.25000  Biso   1.000  Cu
  Cu2      1.0000 0.00000  0.77990  0.75000  Biso   1.000  Cu
  Cu3      1.0000 0.50000  0.72010  0.25000  Biso   1.000  Cu
  Cu4      1.0000 0.50000  0.27990  0.75000  Biso   1.000  Cu
  C1       1.0000 0.92525  0.28159  0.98090  Biso   1.000  C
  C2       1.0000 0.07475  0.71841  0.48090  Biso   1.000  C
  C3       1.0000 0.07475  0.28159  0.51910  Biso   1.000  C
  C4       1.0000 0.92525  0.71841  0.01910  Biso   1.000  C
  C5       1.0000 0.42525  0.78159  0.98090  Biso   1.000  C
  C6       1.0000 0.57475  0.21841  0.48090  Biso   1.000  C
  C7       1.0000 0.57475  0.78159  0.51910  Biso   1.000  C
  C8       1.0000 0.42525  0.21841  0.01910  Biso   1.000  C
  H1       1.0000 0.95550  0.25190  0.92870  Biso   1.000  H
  H2       1.0000 0.04450  0.74810  0.42870  Biso   1.000  H
  H3       1.0000 0.04450  0.25190  0.57130  Biso   1.000  H
  H4       1.0000 0.95550  0.74810  0.07130  Biso   1.000  H
  H5       1.0000 0.45550  0.75190  0.92870  Biso   1.000  H
  H6       1.0000 0.54450  0.24810  0.42870  Biso   1.000  H
  H7       1.0000 0.54450  0.75190  0.57130  Biso   1.000  H
  H8       1.0000 0.45550  0.24810  0.07130  Biso   1.000  H
  C9       1.0000 0.87540  0.32311  0.90200  Biso   1.000  C
  C10      1.0000 0.12460  0.67689  0.40200  Biso   1.000  C
  C11      1.0000 0.12460  0.32311  0.59800  Biso   1.000  C
  C12      1.0000 0.87540  0.67689  0.09800  Biso   1.000  C
  C13      1.0000 0.37540  0.82311  0.90200  Biso   1.000  C
  C14      1.0000 0.62460  0.17689  0.40200  Biso   1.000  C
  C15      1.0000 0.62460  0.82311  0.59800  Biso   1.000  C
  C16      1.0000 0.37540  0.17689  0.09800  Biso   1.000  C
  H9       1.0000 0.87180  0.32110  0.79870  Biso   1.000  H
  H10      1.0000 0.12820  0.67890  0.29870  Biso   1.000  H
  H11      1.0000 0.12820  0.32110  0.70130  Biso   1.000  H
  H12      1.0000 0.87180  0.67890  0.20130  Biso   1.000  H
  H13      1.0000 0.37180  0.82110  0.79870  Biso   1.000  H
  H14      1.0000 0.62820  0.17890  0.29870  Biso   1.000  H
  H15      1.0000 0.62820  0.82110  0.70130  Biso   1.000  H
  H16      1.0000 0.37180  0.17890  0.20130  Biso   1.000  H
  C17      1.0000 0.83090  0.36782  0.97890  Biso   1.000  C
  C18      1.0000 0.16910  0.63218  0.47890  Biso   1.000  C
  C19      1.0000 0.16910  0.36782  0.52110  Biso   1.000  C
  C20      1.0000 0.83090  0.63218  0.02110  Biso   1.000  C
  C21      1.0000 0.33090  0.86782  0.97890  Biso   1.000  C
  C22      1.0000 0.66910  0.13218  0.47890  Biso   1.000  C
  C23      1.0000 0.66910  0.86782  0.52110  Biso   1.000  C
  C24      1.0000 0.33090  0.13218  0.02110  Biso   1.000  C
  C25      1.0000 0.83760  0.36851  0.13230  Biso   1.000  C
  C26      1.0000 0.16240  0.63149  0.63230  Biso   1.000  C
  C27      1.0000 0.16240  0.36851  0.36770  Biso   1.000  C
  C28      1.0000 0.83760  0.63149  0.86770  Biso   1.000  C
  C29      1.0000 0.33760  0.86851  0.13230  Biso   1.000  C
  C30      1.0000 0.66240  0.13149  0.63230  Biso   1.000  C
  C31      1.0000 0.66240  0.86851  0.36770  Biso   1.000  C
  C32      1.0000 0.33760  0.13149  0.86770  Biso   1.000  C
  H17      1.0000 0.80850  0.39790  0.18710  Biso   1.000  H
  H18      1.0000 0.19150  0.60210  0.68710  Biso   1.000  H
  H19      1.0000 0.19150  0.39790  0.31290  Biso   1.000  H
  H20      1.0000 0.80850  0.60210  0.81290  Biso   1.000  H
  H21      1.0000 0.30850  0.89790  0.18710  Biso   1.000  H
  H22      1.0000 0.69150  0.10210  0.68710  Biso   1.000  H
  H23      1.0000 0.69150  0.89790  0.31290  Biso   1.000  H
  H24      1.0000 0.30850  0.10210  0.81290  Biso   1.000  H
  C33      1.0000 0.88770  0.32509  0.20350  Biso   1.000  C
  C34      1.0000 0.11230  0.67491  0.70350  Biso   1.000  C
  C35      1.0000 0.11230  0.32509  0.29650  Biso   1.000  C
  C36      1.0000 0.88770  0.67491  0.79650  Biso   1.000  C
  C37      1.0000 0.38770  0.82509  0.20350  Biso   1.000  C
  C38      1.0000 0.61230  0.17491  0.70350  Biso   1.000  C
  C39      1.0000 0.61230  0.82509  0.29650  Biso   1.000  C
  C40      1.0000 0.38770  0.17491  0.79650  Biso   1.000  C
  H25      1.0000 0.89100  0.32560  0.30700  Biso   1.000  H
  H26      1.0000 0.10900  0.67440  0.80700  Biso   1.000  H
  H27      1.0000 0.10900  0.32560  0.19300  Biso   1.000  H
  H28      1.0000 0.89100  0.67440  0.69300  Biso   1.000  H
  H29      1.0000 0.39100  0.82560  0.30700  Biso   1.000  H
  H30      1.0000 0.60900  0.17440  0.80700  Biso   1.000  H
  H31      1.0000 0.60900  0.82560  0.19300  Biso   1.000  H
  H32      1.0000 0.39100  0.17440  0.69300  Biso   1.000  H
  C41      1.0000 0.78070  0.41269  0.90160  Biso   1.000  C
  C42      1.0000 0.21930  0.58731  0.40160  Biso   1.000  C
  C43      1.0000 0.21930  0.41269  0.59840  Biso   1.000  C
  C44      1.0000 0.78070  0.58731  0.09840  Biso   1.000  C
  C45      1.0000 0.28070  0.91269  0.90160  Biso   1.000  C
  C46      1.0000 0.71930  0.08731  0.40160  Biso   1.000  C
  C47      1.0000 0.71930  0.91269  0.59840  Biso   1.000  C
  C48      1.0000 0.28070  0.08731  0.09840  Biso   1.000  C
  C49      1.0000 0.74120  0.45147  0.83730  Biso   1.000  C
  C50      1.0000 0.25880  0.54853  0.33730  Biso   1.000  C
  C51      1.0000 0.25880  0.45147  0.66270  Biso   1.000  C
  C52      1.0000 0.74120  0.54853  0.16270  Biso   1.000  C
  C53      1.0000 0.24120  0.95147  0.83730  Biso   1.000  C
  C54      1.0000 0.75880  0.04853  0.33730  Biso   1.000  C
  C55      1.0000 0.75880  0.95147  0.66270  Biso   1.000  C
  C56      1.0000 0.24120  0.04853  0.16270  Biso   1.000  C
  C57      1.0000 0.69960  0.49507  0.75670  Biso   1.000  C
  C58      1.0000 0.30040  0.50493  0.25670  Biso   1.000  C
  C59      1.0000 0.30040  0.49507  0.74330  Biso   1.000  C
  C60      1.0000 0.69960  0.50493  0.24330  Biso   1.000  C
  C61      1.0000 0.19960  0.99507  0.75670  Biso   1.000  C
  C62      1.0000 0.80040  0.00493  0.25670  Biso   1.000  C
  C63      1.0000 0.80040  0.99507  0.74330  Biso   1.000  C
  C64      1.0000 0.19960  0.00493  0.24330  Biso   1.000  C
  C65      1.0000 0.66580  0.53250  0.67930  Biso   1.000  C
  C66      1.0000 0.33420  0.46750  0.17930  Biso   1.000  C
  C67      1.0000 0.33420  0.53250  0.82070  Biso   1.000  C
  C68      1.0000 0.66580  0.46750  0.32070  Biso   1.000  C
  C69      1.0000 0.16580  0.03250  0.67930  Biso   1.000  C
  C70      1.0000 0.83420  0.96750  0.17930  Biso   1.000  C
  C71      1.0000 0.83420  0.03250  0.82070  Biso   1.000  C
  C72      1.0000 0.16580  0.96750  0.32070  Biso   1.000  C
  C73      1.0000 0.64679  0.65503  0.41010  Biso   1.000  C
  C74      1.0000 0.35321  0.34497  0.91010  Biso   1.000  C
  C75      1.0000 0.35321  0.65503  0.08990  Biso   1.000  C
  C76      1.0000 0.64679  0.34497  0.58990  Biso   1.000  C
  C77      1.0000 0.14679  0.15503  0.41010  Biso   1.000  C
  C78      1.0000 0.85321  0.84497  0.91010  Biso   1.000  C
  C79      1.0000 0.85321  0.15503  0.08990  Biso   1.000  C
  C80      1.0000 0.14679  0.84497  0.58990  Biso   1.000  C
  H33      1.0000 0.68580  0.68140  0.36140  Biso   1.000  H
  H34      1.0000 0.31420  0.31860  0.86140  Biso   1.000  H
  H35      1.0000 0.31420  0.68140  0.13860  Biso   1.000  H
  H36      1.0000 0.68580  0.31860  0.63860  Biso   1.000  H
  H37      1.0000 0.18580  0.18140  0.36140  Biso   1.000  H
  H38      1.0000 0.81420  0.81860  0.86140  Biso   1.000  H
  H39      1.0000 0.81420  0.18140  0.13860  Biso   1.000  H
  H40      1.0000 0.18580  0.81860  0.63860  Biso   1.000  H
  C81      1.0000 0.68480  0.61561  0.50930  Biso   1.000  C
  C82      1.0000 0.31520  0.38439  0.00930  Biso   1.000  C
  C83      1.0000 0.31520  0.61561  0.99070  Biso   1.000  C
  C84      1.0000 0.68480  0.38439  0.49070  Biso   1.000  C
  C85      1.0000 0.18480  0.11561  0.50930  Biso   1.000  C
  C86      1.0000 0.81520  0.88439  0.00930  Biso   1.000  C
  C87      1.0000 0.81520  0.11561  0.99070  Biso   1.000  C
  C88      1.0000 0.18480  0.88439  0.49070  Biso   1.000  C
  H41      1.0000 0.74840  0.61590  0.52790  Biso   1.000  H
  H42      1.0000 0.25160  0.38410  0.02790  Biso   1.000  H
  H43      1.0000 0.25160  0.61590  0.97210  Biso   1.000  H
  H44      1.0000 0.74840  0.38410  0.47210  Biso   1.000  H
  H45      1.0000 0.24840  0.11590  0.52790  Biso   1.000  H
  H46      1.0000 0.75160  0.88410  0.02790  Biso   1.000  H
  H47      1.0000 0.75160  0.11590  0.97210  Biso   1.000  H
  H48      1.0000 0.24840  0.88410  0.47210  Biso   1.000  H
  C89      1.0000 0.62820  0.57566  0.58110  Biso   1.000  C
  C90      1.0000 0.37180  0.42434  0.08110  Biso   1.000  C
  C91      1.0000 0.37180  0.57566  0.91890  Biso   1.000  C
  C92      1.0000 0.62820  0.42434  0.41890  Biso   1.000  C
  C93      1.0000 0.12820  0.07566  0.58110  Biso   1.000  C
  C94      1.0000 0.87180  0.92434  0.08110  Biso   1.000  C
  C95      1.0000 0.87180  0.07566  0.91890  Biso   1.000  C
  C96      1.0000 0.12820  0.92434  0.41890  Biso   1.000  C
  C97      1.0000 0.53320  0.57688  0.55040  Biso   1.000  C
  C98      1.0000 0.46680  0.42312  0.05040  Biso   1.000  C
  C99      1.0000 0.46680  0.57688  0.94960  Biso   1.000  C
  C100     1.0000 0.53320  0.42312  0.44960  Biso   1.000  C
  C101     1.0000 0.03320  0.07688  0.55040  Biso   1.000  C
  C102     1.0000 0.96680  0.92312  0.05040  Biso   1.000  C
  C103     1.0000 0.96680  0.07688  0.94960  Biso   1.000  C
  C104     1.0000 0.03320  0.92312  0.44960  Biso   1.000  C
  H49      1.0000 0.49280  0.55050  0.59620  Biso   1.000  H
  H50      1.0000 0.50720  0.44950  0.09620  Biso   1.000  H
  H51      1.0000 0.50720  0.55050  0.90380  Biso   1.000  H
  H52      1.0000 0.49280  0.44950  0.40380  Biso   1.000  H
  H53      1.0000 0.99280  0.05050  0.59620  Biso   1.000  H
  H54      1.0000 0.00720  0.94950  0.09620  Biso   1.000  H
  H55      1.0000 0.00720  0.05050  0.90380  Biso   1.000  H
  H56      1.0000 0.99280  0.94950  0.40380  Biso   1.000  H
  C105     1.0000 0.50040  0.61817  0.45030  Biso   1.000  C
  C106     1.0000 0.49960  0.38183  0.95030  Biso   1.000  C
  C107     1.0000 0.49960  0.61817  0.04970  Biso   1.000  C
  C108     1.0000 0.50040  0.38183  0.54970  Biso   1.000  C
  C109     1.0000 0.00040  0.11817  0.45030  Biso   1.000  C
  C110     1.0000 0.99960  0.88183  0.95030  Biso   1.000  C
  C111     1.0000 0.99960  0.11817  0.04970  Biso   1.000  C
  C112     1.0000 0.00040  0.88183  0.54970  Biso   1.000  C
  H57      1.0000 0.43700  0.61910  0.43010  Biso   1.000  H
  H58      1.0000 0.56300  0.38090  0.93010  Biso   1.000  H
  H59      1.0000 0.56300  0.61910  0.06990  Biso   1.000  H
  H60      1.0000 0.43700  0.38090  0.56990  Biso   1.000  H
  H61      1.0000 0.93700  0.11910  0.43010  Biso   1.000  H
  H62      1.0000 0.06300  0.88090  0.93010  Biso   1.000  H
  H63      1.0000 0.06300  0.11910  0.06990  Biso   1.000  H
  H64      1.0000 0.93700  0.88090  0.56990  Biso   1.000  H
  N1       1.0000 0.93174  0.28241  0.13010  Biso   1.000  N
  N2       1.0000 0.06826  0.71759  0.63010  Biso   1.000  N
  N3       1.0000 0.06826  0.28241  0.36990  Biso   1.000  N
  N4       1.0000 0.93174  0.71759  0.86990  Biso   1.000  N
  N5       1.0000 0.43174  0.78241  0.13010  Biso   1.000  N
  N6       1.0000 0.56826  0.21759  0.63010  Biso   1.000  N
  N7       1.0000 0.56826  0.78241  0.36990  Biso   1.000  N
  N8       1.0000 0.43174  0.21759  0.86990  Biso   1.000  N
  N9       1.0000 0.55552  0.65667  0.38150  Biso   1.000  N
  N10      1.0000 0.44448  0.34333  0.88150  Biso   1.000  N
  N11      1.0000 0.44448  0.65667  0.11850  Biso   1.000  N
  N12      1.0000 0.55552  0.34333  0.61850  Biso   1.000  N
  N13      1.0000 0.05552  0.15667  0.38150  Biso   1.000  N
  N14      1.0000 0.94448  0.84333  0.88150  Biso   1.000  N
  N15      1.0000 0.94448  0.15667  0.11850  Biso   1.000  N
  N16      1.0000 0.05552  0.84333  0.61850  Biso   1.000  N
  N17      1.0000 0.14225  0.23726  0.96440  Biso   1.000  N
  N18      1.0000 0.85775  0.76274  0.46440  Biso   1.000  N
  N19      1.0000 0.85775  0.23726  0.53560  Biso   1.000  N
  N20      1.0000 0.14225  0.76274  0.03560  Biso   1.000  N
  N21      1.0000 0.64225  0.73726  0.96440  Biso   1.000  N
  N22      1.0000 0.35775  0.26274  0.46440  Biso   1.000  N
  N23      1.0000 0.35775  0.73726  0.53560  Biso   1.000  N
  N24      1.0000 0.64225  0.26274  0.03560  Biso   1.000  N
  O1       1.0000 0.13628  0.21587  0.09370  Biso   1.000  O
  O2       1.0000 0.86372  0.78413  0.59370  Biso   1.000  O
  O3       1.0000 0.86372  0.21587  0.40630  Biso   1.000  O
  O4       1.0000 0.13628  0.78413  0.90630  Biso   1.000  O
  O5       1.0000 0.63628  0.71587  0.09370  Biso   1.000  O
  O6       1.0000 0.36372  0.28413  0.59370  Biso   1.000  O
  O7       1.0000 0.36372  0.71587  0.40630  Biso   1.000  O
  O8       1.0000 0.63628  0.28413  0.90630  Biso   1.000  O
  O9       1.0000 0.13320  0.20476  0.85700  Biso   1.000  O
  O10      1.0000 0.86680  0.79524  0.35700  Biso   1.000  O
  O11      1.0000 0.86680  0.20476  0.64300  Biso   1.000  O
  O12      1.0000 0.13320  0.79524  0.14300  Biso   1.000  O
  O13      1.0000 0.63320  0.70476  0.85700  Biso   1.000  O
  O14      1.0000 0.36680  0.29524  0.35700  Biso   1.000  O
  O15      1.0000 0.36680  0.70476  0.64300  Biso   1.000  O
  O16      1.0000 0.63320  0.29524  0.14300  Biso   1.000  O
  O17      1.0000 0.14980  0.29117  0.94920  Biso   1.000  O
  O18      1.0000 0.85020  0.70883  0.44920  Biso   1.000  O
  O19      1.0000 0.85020  0.29117  0.55080  Biso   1.000  O
  O20      1.0000 0.14980  0.70883  0.05080  Biso   1.000  O
  O21      1.0000 0.64980  0.79117  0.94920  Biso   1.000  O
  O22      1.0000 0.35020  0.20883  0.44920  Biso   1.000  O
  O23      1.0000 0.35020  0.79117  0.55080  Biso   1.000  O
  O24      1.0000 0.64980  0.20883  0.05080  Biso   1.000  O
  C113     1.0000 0.00400  0.50000  0.00000  Biso   1.000  C
  C114     1.0000 0.99600  0.50000  0.50000  Biso   1.000  C
  C115     1.0000 0.50400  0.00000  0.00000  Biso   1.000  C
  C116     1.0000 0.49600  0.00000  0.50000  Biso   1.000  C
  H65      1.0000 0.96340  0.50440  0.91390  Biso   1.000  H
  H66      1.0000 0.03660  0.49560  0.41390  Biso   1.000  H
  H67      1.0000 0.03660  0.50440  0.58610  Biso   1.000  H
  H68      1.0000 0.96340  0.49560  0.08610  Biso   1.000  H
  H69      1.0000 0.46340  0.00440  0.91390  Biso   1.000  H
  H70      1.0000 0.53660  0.99560  0.41390  Biso   1.000  H
  H71      1.0000 0.53660  0.00440  0.58610  Biso   1.000  H
  H72      1.0000 0.46340  0.99560  0.08610  Biso   1.000  H
  Cl1      1.0000 0.06170  0.43746  0.97940  Biso   1.000  Cl
  Cl2      1.0000 0.93830  0.56254  0.47940  Biso   1.000  Cl
  Cl3      1.0000 0.93830  0.43746  0.52060  Biso   1.000  Cl
  Cl4      1.0000 0.06170  0.56254  0.02060  Biso   1.000  Cl
  Cl5      1.0000 0.56170  0.93746  0.97940  Biso   1.000  Cl
  Cl6      1.0000 0.43830  0.06254  0.47940  Biso   1.000  Cl
  Cl7      1.0000 0.43830  0.93746  0.52060  Biso   1.000  Cl
  Cl8      1.0000 0.56170  0.06254  0.02060  Biso   1.000  Cl
