data_image0
_cell_length_a       17.91
_cell_length_b       10.406
_cell_length_c       14.841
_cell_angle_alpha    90
_cell_angle_beta     90
_cell_angle_gamma    90

_symmetry_space_group_name_H-M    "P 1"
_symmetry_int_tables_number       1

loop_
  _symmetry_equiv_pos_as_xyz
  'x, y, z'

loop_
  _atom_site_label
  _atom_site_occupancy
  _atom_site_fract_x
  _atom_site_fract_y
  _atom_site_fract_z
  _atom_site_thermal_displace_type
  _atom_site_B_iso_or_equiv
  _atom_site_type_symbol
  Cu1      1.0000 0.50000  0.50000  0.50000  Biso   1.000  Cu
  Cu2      1.0000 0.00000  0.00000  0.00000  Biso   1.000  Cu
  Cu3      1.0000 0.00000  0.00000  0.50000  Biso   1.000  Cu
  Cu4      1.0000 0.50000  0.50000  0.00000  Biso   1.000  Cu
  Cl1      1.0000 0.33579  0.00220  0.50865  Biso   1.000  Cl
  Cl2      1.0000 0.83579  0.50220  0.99135  Biso   1.000  Cl
  Cl3      1.0000 0.16421  0.50220  0.50865  Biso   1.000  Cl
  Cl4      1.0000 0.33579  0.99780  0.00865  Biso   1.000  Cl
  Cl5      1.0000 0.66421  0.99780  0.49135  Biso   1.000  Cl
  Cl6      1.0000 0.16421  0.49780  0.00865  Biso   1.000  Cl
  Cl7      1.0000 0.83579  0.49780  0.49135  Biso   1.000  Cl
  Cl8      1.0000 0.66421  0.00220  0.99135  Biso   1.000  Cl
  O1       1.0000 0.32610  0.13200  0.53550  Biso   1.000  O
  O2       1.0000 0.82610  0.63200  0.96450  Biso   1.000  O
  O3       1.0000 0.17390  0.63200  0.53550  Biso   1.000  O
  O4       1.0000 0.32610  0.86800  0.03550  Biso   1.000  O
  O5       1.0000 0.67390  0.86800  0.46450  Biso   1.000  O
  O6       1.0000 0.17390  0.36800  0.03550  Biso   1.000  O
  O7       1.0000 0.82610  0.36800  0.46450  Biso   1.000  O
  O8       1.0000 0.67390  0.13200  0.96450  Biso   1.000  O
  O9       1.0000 0.40990  0.97450  0.50130  Biso   1.000  O
  O10      1.0000 0.90990  0.47450  0.99870  Biso   1.000  O
  O11      1.0000 0.09010  0.47450  0.50130  Biso   1.000  O
  O12      1.0000 0.40990  0.02550  0.00130  Biso   1.000  O
  O13      1.0000 0.59010  0.02550  0.49870  Biso   1.000  O
  O14      1.0000 0.09010  0.52550  0.00130  Biso   1.000  O
  O15      1.0000 0.90990  0.52550  0.49870  Biso   1.000  O
  O16      1.0000 0.59010  0.97450  0.99870  Biso   1.000  O
  O17      1.0000 0.30190  0.98680  0.42270  Biso   1.000  O
  O18      1.0000 0.80190  0.48680  0.07730  Biso   1.000  O
  O19      1.0000 0.19810  0.48680  0.42270  Biso   1.000  O
  O20      1.0000 0.30190  0.01320  0.92270  Biso   1.000  O
  O21      1.0000 0.69810  0.01320  0.57730  Biso   1.000  O
  O22      1.0000 0.19810  0.51320  0.92270  Biso   1.000  O
  O23      1.0000 0.80190  0.51320  0.57730  Biso   1.000  O
  O24      1.0000 0.69810  0.98680  0.07730  Biso   1.000  O
  O25      1.0000 0.29760  0.92420  0.56550  Biso   1.000  O
  O26      1.0000 0.79760  0.42420  0.93450  Biso   1.000  O
  O27      1.0000 0.20240  0.42420  0.56550  Biso   1.000  O
  O28      1.0000 0.29760  0.07580  0.06550  Biso   1.000  O
  O29      1.0000 0.70240  0.07580  0.43450  Biso   1.000  O
  O30      1.0000 0.20240  0.57580  0.06550  Biso   1.000  O
  O31      1.0000 0.79760  0.57580  0.43450  Biso   1.000  O
  O32      1.0000 0.70240  0.92420  0.93450  Biso   1.000  O
  N1       1.0000 0.52770  0.34370  0.57520  Biso   1.000  N
  N2       1.0000 0.02770  0.84370  0.92480  Biso   1.000  N
  N3       1.0000 0.97230  0.84370  0.57520  Biso   1.000  N
  N4       1.0000 0.52770  0.65630  0.07520  Biso   1.000  N
  N5       1.0000 0.47230  0.65630  0.42480  Biso   1.000  N
  N6       1.0000 0.97230  0.15630  0.07520  Biso   1.000  N
  N7       1.0000 0.02770  0.15630  0.42480  Biso   1.000  N
  N8       1.0000 0.47230  0.34370  0.92480  Biso   1.000  N
  N9       1.0000 0.59120  0.33070  0.62350  Biso   1.000  N
  N10      1.0000 0.09120  0.83070  0.87650  Biso   1.000  N
  N11      1.0000 0.90880  0.83070  0.62350  Biso   1.000  N
  N12      1.0000 0.59120  0.66930  0.12350  Biso   1.000  N
  N13      1.0000 0.40880  0.66930  0.37650  Biso   1.000  N
  N14      1.0000 0.90880  0.16930  0.12350  Biso   1.000  N
  N15      1.0000 0.09120  0.16930  0.37650  Biso   1.000  N
  N16      1.0000 0.40880  0.33070  0.87650  Biso   1.000  N
  N17      1.0000 0.58640  0.22870  0.67260  Biso   1.000  N
  N18      1.0000 0.08640  0.72870  0.82740  Biso   1.000  N
  N19      1.0000 0.91360  0.72870  0.67260  Biso   1.000  N
  N20      1.0000 0.58640  0.77130  0.17260  Biso   1.000  N
  N21      1.0000 0.41360  0.77130  0.32740  Biso   1.000  N
  N22      1.0000 0.91360  0.27130  0.17260  Biso   1.000  N
  N23      1.0000 0.08640  0.27130  0.32740  Biso   1.000  N
  N24      1.0000 0.41360  0.22870  0.82740  Biso   1.000  N
  N25      1.0000 0.52030  0.17530  0.65690  Biso   1.000  N
  N26      1.0000 0.02030  0.67530  0.84310  Biso   1.000  N
  N27      1.0000 0.97970  0.67530  0.65690  Biso   1.000  N
  N28      1.0000 0.52030  0.82470  0.15690  Biso   1.000  N
  N29      1.0000 0.47970  0.82470  0.34310  Biso   1.000  N
  N30      1.0000 0.97970  0.32470  0.15690  Biso   1.000  N
  N31      1.0000 0.02030  0.32470  0.34310  Biso   1.000  N
  N32      1.0000 0.47970  0.17530  0.84310  Biso   1.000  N
  C1       1.0000 0.48480  0.24570  0.59680  Biso   1.000  C
  C2       1.0000 0.98480  0.74570  0.90320  Biso   1.000  C
  C3       1.0000 0.01520  0.74570  0.59680  Biso   1.000  C
  C4       1.0000 0.48480  0.75430  0.09680  Biso   1.000  C
  C5       1.0000 0.51520  0.75430  0.40320  Biso   1.000  C
  C6       1.0000 0.01520  0.25430  0.09680  Biso   1.000  C
  C7       1.0000 0.98480  0.25430  0.40320  Biso   1.000  C
  C8       1.0000 0.51520  0.24570  0.90320  Biso   1.000  C
  C9       1.0000 0.49310  0.05730  0.70030  Biso   1.000  C
  C10      1.0000 0.99310  0.55730  0.79970  Biso   1.000  C
  C11      1.0000 0.00690  0.55730  0.70030  Biso   1.000  C
  C12      1.0000 0.49310  0.94270  0.20030  Biso   1.000  C
  C13      1.0000 0.50690  0.94270  0.29970  Biso   1.000  C
  C14      1.0000 0.00690  0.44270  0.20030  Biso   1.000  C
  C15      1.0000 0.99310  0.44270  0.29970  Biso   1.000  C
  C16      1.0000 0.50690  0.05730  0.79970  Biso   1.000  C
  N33      1.0000 0.56250  0.61670  0.58080  Biso   1.000  N
  N34      1.0000 0.06250  0.11670  0.91920  Biso   1.000  N
  N35      1.0000 0.93750  0.11670  0.58080  Biso   1.000  N
  N36      1.0000 0.56250  0.38330  0.08080  Biso   1.000  N
  N37      1.0000 0.43750  0.38330  0.41920  Biso   1.000  N
  N38      1.0000 0.93750  0.88330  0.08080  Biso   1.000  N
  N39      1.0000 0.06250  0.88330  0.41920  Biso   1.000  N
  N40      1.0000 0.43750  0.61670  0.91920  Biso   1.000  N
  N41      1.0000 0.53020  0.70380  0.63590  Biso   1.000  N
  N42      1.0000 0.03020  0.20380  0.86410  Biso   1.000  N
  N43      1.0000 0.96980  0.20380  0.63590  Biso   1.000  N
  N44      1.0000 0.53020  0.29620  0.13590  Biso   1.000  N
  N45      1.0000 0.46980  0.29620  0.36410  Biso   1.000  N
  N46      1.0000 0.96980  0.79620  0.13590  Biso   1.000  N
  N47      1.0000 0.03020  0.79620  0.36410  Biso   1.000  N
  N48      1.0000 0.46980  0.70380  0.86410  Biso   1.000  N
  N49      1.0000 0.57960  0.76310  0.68160  Biso   1.000  N
  N50      1.0000 0.07960  0.26310  0.81840  Biso   1.000  N
  N51      1.0000 0.92040  0.26310  0.68160  Biso   1.000  N
  N52      1.0000 0.57960  0.23690  0.18160  Biso   1.000  N
  N53      1.0000 0.42040  0.23690  0.31840  Biso   1.000  N
  N54      1.0000 0.92040  0.73690  0.18160  Biso   1.000  N
  N55      1.0000 0.07960  0.73690  0.31840  Biso   1.000  N
  N56      1.0000 0.42040  0.76310  0.81840  Biso   1.000  N
  N57      1.0000 0.64570  0.71570  0.65670  Biso   1.000  N
  N58      1.0000 0.14570  0.21570  0.84330  Biso   1.000  N
  N59      1.0000 0.85430  0.21570  0.65670  Biso   1.000  N
  N60      1.0000 0.64570  0.28430  0.15670  Biso   1.000  N
  N61      1.0000 0.35430  0.28430  0.34330  Biso   1.000  N
  N62      1.0000 0.85430  0.78430  0.15670  Biso   1.000  N
  N63      1.0000 0.14570  0.78430  0.34330  Biso   1.000  N
  N64      1.0000 0.35430  0.71570  0.84330  Biso   1.000  N
  C17      1.0000 0.63430  0.62620  0.59470  Biso   1.000  C
  C18      1.0000 0.13430  0.12620  0.90530  Biso   1.000  C
  C19      1.0000 0.86570  0.12620  0.59470  Biso   1.000  C
  C20      1.0000 0.63430  0.37380  0.09470  Biso   1.000  C
  C21      1.0000 0.36570  0.37380  0.40530  Biso   1.000  C
  C22      1.0000 0.86570  0.87380  0.09470  Biso   1.000  C
  C23      1.0000 0.13430  0.87380  0.40530  Biso   1.000  C
  C24      1.0000 0.36570  0.62620  0.90530  Biso   1.000  C
  C25      1.0000 0.71250  0.76600  0.70070  Biso   1.000  C
  C26      1.0000 0.21250  0.26600  0.79930  Biso   1.000  C
  C27      1.0000 0.78750  0.26600  0.70070  Biso   1.000  C
  C28      1.0000 0.71250  0.23400  0.20070  Biso   1.000  C
  C29      1.0000 0.28750  0.23400  0.29930  Biso   1.000  C
  C30      1.0000 0.78750  0.73400  0.20070  Biso   1.000  C
  C31      1.0000 0.21250  0.73400  0.29930  Biso   1.000  C
  C32      1.0000 0.28750  0.76600  0.79930  Biso   1.000  C
  N65      1.0000 0.60870  0.53160  0.90920  Biso   1.000  N
  N66      1.0000 0.10870  0.03160  0.59080  Biso   1.000  N
  N67      1.0000 0.89130  0.03160  0.90920  Biso   1.000  N
  N68      1.0000 0.60870  0.46840  0.40920  Biso   1.000  N
  N69      1.0000 0.39130  0.46840  0.09080  Biso   1.000  N
  N70      1.0000 0.89130  0.96840  0.40920  Biso   1.000  N
  N71      1.0000 0.10870  0.96840  0.09080  Biso   1.000  N
  N72      1.0000 0.39130  0.53160  0.59080  Biso   1.000  N
  N73      1.0000 0.62890  0.44210  0.84860  Biso   1.000  N
  N74      1.0000 0.12890  0.94210  0.65140  Biso   1.000  N
  N75      1.0000 0.87110  0.94210  0.84860  Biso   1.000  N
  N76      1.0000 0.62890  0.55790  0.34860  Biso   1.000  N
  N77      1.0000 0.37110  0.55790  0.15140  Biso   1.000  N
  N78      1.0000 0.87110  0.05790  0.34860  Biso   1.000  N
  N79      1.0000 0.12890  0.05790  0.15140  Biso   1.000  N
  N80      1.0000 0.37110  0.44210  0.65140  Biso   1.000  N
  N81      1.0000 0.67750  0.48700  0.79380  Biso   1.000  N
  N82      1.0000 0.17750  0.98700  0.70620  Biso   1.000  N
  N83      1.0000 0.82250  0.98700  0.79380  Biso   1.000  N
  N84      1.0000 0.67750  0.51300  0.29380  Biso   1.000  N
  N85      1.0000 0.32250  0.51300  0.20620  Biso   1.000  N
  N86      1.0000 0.82250  0.01300  0.29380  Biso   1.000  N
  N87      1.0000 0.17750  0.01300  0.20620  Biso   1.000  N
  N88      1.0000 0.32250  0.48700  0.70620  Biso   1.000  N
  N89      1.0000 0.69110  0.60680  0.81910  Biso   1.000  N
  N90      1.0000 0.19110  0.10680  0.68090  Biso   1.000  N
  N91      1.0000 0.80890  0.10680  0.81910  Biso   1.000  N
  N92      1.0000 0.69110  0.39320  0.31910  Biso   1.000  N
  N93      1.0000 0.30890  0.39320  0.18090  Biso   1.000  N
  N94      1.0000 0.80890  0.89320  0.31910  Biso   1.000  N
  N95      1.0000 0.19110  0.89320  0.18090  Biso   1.000  N
  N96      1.0000 0.30890  0.60680  0.68090  Biso   1.000  N
  C33      1.0000 0.64850  0.63320  0.89000  Biso   1.000  C
  C34      1.0000 0.14850  0.13320  0.61000  Biso   1.000  C
  C35      1.0000 0.85150  0.13320  0.89000  Biso   1.000  C
  C36      1.0000 0.64850  0.36680  0.39000  Biso   1.000  C
  C37      1.0000 0.35150  0.36680  0.11000  Biso   1.000  C
  C38      1.0000 0.85150  0.86680  0.39000  Biso   1.000  C
  C39      1.0000 0.14850  0.86680  0.11000  Biso   1.000  C
  C40      1.0000 0.35150  0.63320  0.61000  Biso   1.000  C
  C41      1.0000 0.74550  0.67960  0.76660  Biso   1.000  C
  C42      1.0000 0.24550  0.17960  0.73340  Biso   1.000  C
  C43      1.0000 0.75450  0.17960  0.76660  Biso   1.000  C
  C44      1.0000 0.74550  0.32040  0.26660  Biso   1.000  C
  C45      1.0000 0.25450  0.32040  0.23340  Biso   1.000  C
  C46      1.0000 0.75450  0.82040  0.26660  Biso   1.000  C
  C47      1.0000 0.24550  0.82040  0.23340  Biso   1.000  C
  C48      1.0000 0.25450  0.67960  0.73340  Biso   1.000  C
  H1       1.0000 0.42900  0.22700  0.57400  Biso   1.000  H
  H2       1.0000 0.92900  0.72700  0.92600  Biso   1.000  H
  H3       1.0000 0.07100  0.72700  0.57400  Biso   1.000  H
  H4       1.0000 0.42900  0.77300  0.07400  Biso   1.000  H
  H5       1.0000 0.57100  0.77300  0.42600  Biso   1.000  H
  H6       1.0000 0.07100  0.27300  0.07400  Biso   1.000  H
  H7       1.0000 0.92900  0.27300  0.42600  Biso   1.000  H
  H8       1.0000 0.57100  0.22700  0.92600  Biso   1.000  H
  H9       1.0000 0.51500  0.98300  0.66900  Biso   1.000  H
  H10      1.0000 0.01500  0.48300  0.83100  Biso   1.000  H
  H11      1.0000 0.98500  0.48300  0.66900  Biso   1.000  H
  H12      1.0000 0.51500  0.01700  0.16900  Biso   1.000  H
  H13      1.0000 0.48500  0.01700  0.33100  Biso   1.000  H
  H14      1.0000 0.98500  0.51700  0.16900  Biso   1.000  H
  H15      1.0000 0.01500  0.51700  0.33100  Biso   1.000  H
  H16      1.0000 0.48500  0.98300  0.83100  Biso   1.000  H
  H17      1.0000 0.43400  0.04400  0.68200  Biso   1.000  H
  H18      1.0000 0.93400  0.54400  0.81800  Biso   1.000  H
  H19      1.0000 0.06600  0.54400  0.68200  Biso   1.000  H
  H20      1.0000 0.43400  0.95600  0.18200  Biso   1.000  H
  H21      1.0000 0.56600  0.95600  0.31800  Biso   1.000  H
  H22      1.0000 0.06600  0.45600  0.18200  Biso   1.000  H
  H23      1.0000 0.93400  0.45600  0.31800  Biso   1.000  H
  H24      1.0000 0.56600  0.04400  0.81800  Biso   1.000  H
  H25      1.0000 0.66900  0.58100  0.56800  Biso   1.000  H
  H26      1.0000 0.16900  0.08100  0.93200  Biso   1.000  H
  H27      1.0000 0.83100  0.08100  0.56800  Biso   1.000  H
  H28      1.0000 0.66900  0.41900  0.06800  Biso   1.000  H
  H29      1.0000 0.33100  0.41900  0.43200  Biso   1.000  H
  H30      1.0000 0.83100  0.91900  0.06800  Biso   1.000  H
  H31      1.0000 0.16900  0.91900  0.43200  Biso   1.000  H
  H32      1.0000 0.33100  0.58100  0.93200  Biso   1.000  H
  H33      1.0000 0.73900  0.80800  0.66000  Biso   1.000  H
  H34      1.0000 0.23900  0.30800  0.84000  Biso   1.000  H
  H35      1.0000 0.76100  0.30800  0.66000  Biso   1.000  H
  H36      1.0000 0.73900  0.19200  0.16000  Biso   1.000  H
  H37      1.0000 0.26100  0.19200  0.34000  Biso   1.000  H
  H38      1.0000 0.76100  0.69200  0.16000  Biso   1.000  H
  H39      1.0000 0.23900  0.69200  0.34000  Biso   1.000  H
  H40      1.0000 0.26100  0.80800  0.84000  Biso   1.000  H
  H41      1.0000 0.70500  0.86800  0.74500  Biso   1.000  H
  H42      1.0000 0.20500  0.36800  0.75500  Biso   1.000  H
  H43      1.0000 0.79500  0.36800  0.74500  Biso   1.000  H
  H44      1.0000 0.70500  0.13200  0.24500  Biso   1.000  H
  H45      1.0000 0.29500  0.13200  0.25500  Biso   1.000  H
  H46      1.0000 0.79500  0.63200  0.24500  Biso   1.000  H
  H47      1.0000 0.20500  0.63200  0.25500  Biso   1.000  H
  H48      1.0000 0.29500  0.86800  0.75500  Biso   1.000  H
  H49      1.0000 0.65200  0.71200  0.91700  Biso   1.000  H
  H50      1.0000 0.15200  0.21200  0.58300  Biso   1.000  H
  H51      1.0000 0.84800  0.21200  0.91700  Biso   1.000  H
  H52      1.0000 0.65200  0.28800  0.41700  Biso   1.000  H
  H53      1.0000 0.34800  0.28800  0.08300  Biso   1.000  H
  H54      1.0000 0.84800  0.78800  0.41700  Biso   1.000  H
  H55      1.0000 0.15200  0.78800  0.08300  Biso   1.000  H
  H56      1.0000 0.34800  0.71200  0.58300  Biso   1.000  H
  H57      1.0000 0.78500  0.71600  0.80500  Biso   1.000  H
  H58      1.0000 0.28500  0.21600  0.69500  Biso   1.000  H
  H59      1.0000 0.71500  0.21600  0.80500  Biso   1.000  H
  H60      1.0000 0.78500  0.28400  0.30500  Biso   1.000  H
  H61      1.0000 0.21500  0.28400  0.19500  Biso   1.000  H
  H62      1.0000 0.71500  0.78400  0.30500  Biso   1.000  H
  H63      1.0000 0.28500  0.78400  0.19500  Biso   1.000  H
  H64      1.0000 0.21500  0.71600  0.69500  Biso   1.000  H
  H65      1.0000 0.77900  0.60300  0.72200  Biso   1.000  H
  H66      1.0000 0.27900  0.10300  0.77800  Biso   1.000  H
  H67      1.0000 0.72100  0.10300  0.72200  Biso   1.000  H
  H68      1.0000 0.77900  0.39700  0.22200  Biso   1.000  H
  H69      1.0000 0.22100  0.39700  0.27800  Biso   1.000  H
  H70      1.0000 0.72100  0.89700  0.22200  Biso   1.000  H
  H71      1.0000 0.27900  0.89700  0.27800  Biso   1.000  H
  H72      1.0000 0.22100  0.60300  0.77800  Biso   1.000  H
