data_image0
_cell_length_a       10.4805
_cell_length_b       13.4316
_cell_length_c       14.7788
_cell_angle_alpha    90
_cell_angle_beta     108.109
_cell_angle_gamma    90

_symmetry_space_group_name_H-M    "P 1"
_symmetry_int_tables_number       1

loop_
  _symmetry_equiv_pos_as_xyz
  'x, y, z'

loop_
  _atom_site_label
  _atom_site_occupancy
  _atom_site_fract_x
  _atom_site_fract_y
  _atom_site_fract_z
  _atom_site_thermal_displace_type
  _atom_site_B_iso_or_equiv
  _atom_site_type_symbol
  Cu1      1.0000 0.47061  0.34788  0.61677  Biso   1.000  Cu
  Cu2      1.0000 0.02939  0.84788  0.88323  Biso   1.000  Cu
  Cu3      1.0000 0.52939  0.65212  0.38323  Biso   1.000  Cu
  Cu4      1.0000 0.97061  0.15212  0.11677  Biso   1.000  Cu
  O1       1.0000 0.35020  0.50291  0.55331  Biso   1.000  O
  O2       1.0000 0.14980  0.00291  0.94669  Biso   1.000  O
  O3       1.0000 0.64980  0.49709  0.44669  Biso   1.000  O
  O4       1.0000 0.85020  0.99709  0.05331  Biso   1.000  O
  O5       1.0000 0.28720  0.34584  0.52600  Biso   1.000  O
  O6       1.0000 0.21280  0.84584  0.97400  Biso   1.000  O
  O7       1.0000 0.71280  0.65416  0.47400  Biso   1.000  O
  O8       1.0000 0.78720  0.15416  0.02600  Biso   1.000  O
  O9       1.0000 0.94850  0.32109  0.16207  Biso   1.000  O
  O10      1.0000 0.55150  0.82109  0.33793  Biso   1.000  O
  O11      1.0000 0.05150  0.67891  0.83793  Biso   1.000  O
  O12      1.0000 0.44850  0.17891  0.66207  Biso   1.000  O
  O13      1.0000 0.89190  0.18440  0.22222  Biso   1.000  O
  O14      1.0000 0.60810  0.68440  0.27778  Biso   1.000  O
  O15      1.0000 0.10810  0.81560  0.77778  Biso   1.000  O
  O16      1.0000 0.39190  0.31560  0.72222  Biso   1.000  O
  O17      1.0000 0.54340  0.34399  0.50878  Biso   1.000  O
  O18      1.0000 0.95660  0.84399  0.99122  Biso   1.000  O
  O19      1.0000 0.45660  0.65601  0.49122  Biso   1.000  O
  O20      1.0000 0.04340  0.15601  0.00878  Biso   1.000  O
  H1       1.0000 0.58200  0.39000  0.48900  Biso   1.000  H
  H2       1.0000 0.91800  0.89000  0.01100  Biso   1.000  H
  H3       1.0000 0.41800  0.61000  0.51100  Biso   1.000  H
  H4       1.0000 0.08200  0.11000  0.98900  Biso   1.000  H
  H5       1.0000 0.56800  0.28670  0.49800  Biso   1.000  H
  H6       1.0000 0.93200  0.78670  0.00200  Biso   1.000  H
  H7       1.0000 0.43200  0.71330  0.50200  Biso   1.000  H
  H8       1.0000 0.06800  0.21330  0.99800  Biso   1.000  H
  N1       1.0000 0.65150  0.37050  0.71060  Biso   1.000  N
  N2       1.0000 0.84850  0.87050  0.78940  Biso   1.000  N
  N3       1.0000 0.34850  0.62950  0.28940  Biso   1.000  N
  N4       1.0000 0.15150  0.12950  0.21060  Biso   1.000  N
  N5       1.0000 0.10800  0.50030  0.92310  Biso   1.000  N
  N6       1.0000 0.39200  0.00030  0.57690  Biso   1.000  N
  N7       1.0000 0.89200  0.49970  0.07690  Biso   1.000  N
  N8       1.0000 0.60800  0.99970  0.42310  Biso   1.000  N
  H9       1.0000 0.08700  0.55730  0.89300  Biso   1.000  H
  H10      1.0000 0.41300  0.05730  0.60700  Biso   1.000  H
  H11      1.0000 0.91300  0.44270  0.10700  Biso   1.000  H
  H12      1.0000 0.58700  0.94270  0.39300  Biso   1.000  H
  N9       1.0000 0.10710  0.34278  0.97190  Biso   1.000  N
  N10      1.0000 0.39290  0.84278  0.52810  Biso   1.000  N
  N11      1.0000 0.89290  0.65722  0.02810  Biso   1.000  N
  N12      1.0000 0.60710  0.15722  0.47190  Biso   1.000  N
  C1       1.0000 0.26450  0.43840  0.51110  Biso   1.000  C
  C2       1.0000 0.23550  0.93840  0.98890  Biso   1.000  C
  C3       1.0000 0.73550  0.56160  0.48890  Biso   1.000  C
  C4       1.0000 0.76450  0.06160  0.01110  Biso   1.000  C
  C5       1.0000 0.13220  0.46880  0.44240  Biso   1.000  C
  C6       1.0000 0.36780  0.96880  0.05760  Biso   1.000  C
  C7       1.0000 0.86780  0.53120  0.55760  Biso   1.000  C
  C8       1.0000 0.63220  0.03120  0.94240  Biso   1.000  C
  C9       1.0000 0.09500  0.56840  0.43100  Biso   1.000  C
  C10      1.0000 0.40500  0.06840  0.06900  Biso   1.000  C
  C11      1.0000 0.90500  0.43160  0.56900  Biso   1.000  C
  C12      1.0000 0.59500  0.93160  0.93100  Biso   1.000  C
  H13      1.0000 0.15480  0.61820  0.46560  Biso   1.000  H
  H14      1.0000 0.34520  0.11820  0.03440  Biso   1.000  H
  H15      1.0000 0.84520  0.38180  0.53440  Biso   1.000  H
  H16      1.0000 0.65480  0.88180  0.96560  Biso   1.000  H
  C13      1.0000 0.97130  0.59510  0.36950  Biso   1.000  C
  C14      1.0000 0.52870  0.09510  0.13050  Biso   1.000  C
  C15      1.0000 0.02870  0.40490  0.63050  Biso   1.000  C
  C16      1.0000 0.47130  0.90490  0.86950  Biso   1.000  C
  H17      1.0000 0.94560  0.66320  0.36290  Biso   1.000  H
  H18      1.0000 0.55440  0.16320  0.13710  Biso   1.000  H
  H19      1.0000 0.05440  0.33680  0.63710  Biso   1.000  H
  H20      1.0000 0.44560  0.83680  0.86290  Biso   1.000  H
  C17      1.0000 0.88390  0.52310  0.31710  Biso   1.000  C
  C18      1.0000 0.61610  0.02310  0.18290  Biso   1.000  C
  C19      1.0000 0.11610  0.47690  0.68290  Biso   1.000  C
  C20      1.0000 0.38390  0.97690  0.81710  Biso   1.000  C
  H21      1.0000 0.79920  0.54230  0.27450  Biso   1.000  H
  H22      1.0000 0.70080  0.04230  0.22550  Biso   1.000  H
  H23      1.0000 0.20080  0.45770  0.72550  Biso   1.000  H
  H24      1.0000 0.29920  0.95770  0.77450  Biso   1.000  H
  C21      1.0000 0.92020  0.42220  0.32670  Biso   1.000  C
  C22      1.0000 0.57980  0.92220  0.17330  Biso   1.000  C
  C23      1.0000 0.07980  0.57780  0.67330  Biso   1.000  C
  C24      1.0000 0.42020  0.07780  0.82670  Biso   1.000  C
  C25      1.0000 0.04390  0.39620  0.39010  Biso   1.000  C
  C26      1.0000 0.45610  0.89620  0.10990  Biso   1.000  C
  C27      1.0000 0.95610  0.60380  0.60990  Biso   1.000  C
  C28      1.0000 0.54390  0.10380  0.89010  Biso   1.000  C
  H25      1.0000 0.06910  0.32800  0.39810  Biso   1.000  H
  H26      1.0000 0.43090  0.82800  0.10190  Biso   1.000  H
  H27      1.0000 0.93090  0.67200  0.60190  Biso   1.000  H
  H28      1.0000 0.56910  0.17200  0.89810  Biso   1.000  H
  C29      1.0000 0.82260  0.34330  0.27040  Biso   1.000  C
  C30      1.0000 0.67740  0.84330  0.22960  Biso   1.000  C
  C31      1.0000 0.17740  0.65670  0.72960  Biso   1.000  C
  C32      1.0000 0.32260  0.15670  0.77040  Biso   1.000  C
  H29      1.0000 0.74860  0.37920  0.22210  Biso   1.000  H
  H30      1.0000 0.75140  0.87920  0.27790  Biso   1.000  H
  H31      1.0000 0.25140  0.62080  0.77790  Biso   1.000  H
  H32      1.0000 0.24860  0.12080  0.72210  Biso   1.000  H
  C33      1.0000 0.75910  0.28440  0.33200  Biso   1.000  C
  C34      1.0000 0.74090  0.78440  0.16800  Biso   1.000  C
  C35      1.0000 0.24090  0.71560  0.66800  Biso   1.000  C
  C36      1.0000 0.25910  0.21560  0.83200  Biso   1.000  C
  H33      1.0000 0.82350  0.27720  0.39590  Biso   1.000  H
  H34      1.0000 0.67650  0.77720  0.10410  Biso   1.000  H
  H35      1.0000 0.17650  0.72280  0.60410  Biso   1.000  H
  H36      1.0000 0.32350  0.22280  0.89590  Biso   1.000  H
  H37      1.0000 0.73370  0.21830  0.30390  Biso   1.000  H
  H38      1.0000 0.76630  0.71830  0.19610  Biso   1.000  H
  H39      1.0000 0.26630  0.78170  0.69610  Biso   1.000  H
  H40      1.0000 0.23370  0.28170  0.80390  Biso   1.000  H
  H41      1.0000 0.67900  0.31930  0.33610  Biso   1.000  H
  H42      1.0000 0.82100  0.81930  0.16390  Biso   1.000  H
  H43      1.0000 0.32100  0.68070  0.66390  Biso   1.000  H
  H44      1.0000 0.17900  0.18070  0.83610  Biso   1.000  H
  C37      1.0000 0.89330  0.27800  0.21540  Biso   1.000  C
  C38      1.0000 0.60670  0.77800  0.28460  Biso   1.000  C
  C39      1.0000 0.10670  0.72200  0.78460  Biso   1.000  C
  C40      1.0000 0.39330  0.22200  0.71540  Biso   1.000  C
  C41      1.0000 0.71400  0.45920  0.72060  Biso   1.000  C
  C42      1.0000 0.78600  0.95920  0.77940  Biso   1.000  C
  C43      1.0000 0.28600  0.54080  0.27940  Biso   1.000  C
  C44      1.0000 0.21400  0.04080  0.22060  Biso   1.000  C
  H45      1.0000 0.66960  0.51260  0.68120  Biso   1.000  H
  H46      1.0000 0.83040  0.01260  0.81880  Biso   1.000  H
  H47      1.0000 0.33040  0.48740  0.31880  Biso   1.000  H
  H48      1.0000 0.16960  0.98740  0.18120  Biso   1.000  H
  C45      1.0000 0.83840  0.47650  0.78460  Biso   1.000  C
  C46      1.0000 0.66160  0.97650  0.71540  Biso   1.000  C
  C47      1.0000 0.16160  0.52350  0.21540  Biso   1.000  C
  C48      1.0000 0.33840  0.02350  0.28460  Biso   1.000  C
  H49      1.0000 0.87800  0.54060  0.78910  Biso   1.000  H
  H50      1.0000 0.62200  0.04060  0.71090  Biso   1.000  H
  H51      1.0000 0.12200  0.45940  0.21090  Biso   1.000  H
  H52      1.0000 0.37800  0.95940  0.28910  Biso   1.000  H
  C49      1.0000 0.90670  0.39920  0.84310  Biso   1.000  C
  C50      1.0000 0.59330  0.89920  0.65690  Biso   1.000  C
  C51      1.0000 0.09330  0.60080  0.15690  Biso   1.000  C
  C52      1.0000 0.40670  0.10080  0.34310  Biso   1.000  C
  C53      1.0000 0.84140  0.30670  0.83420  Biso   1.000  C
  C54      1.0000 0.65860  0.80670  0.66580  Biso   1.000  C
  C55      1.0000 0.15860  0.69330  0.16580  Biso   1.000  C
  C56      1.0000 0.34140  0.19330  0.33420  Biso   1.000  C
  H53      1.0000 0.88280  0.25240  0.87350  Biso   1.000  H
  H54      1.0000 0.61720  0.75240  0.62650  Biso   1.000  H
  H55      1.0000 0.11720  0.74760  0.12650  Biso   1.000  H
  H56      1.0000 0.38280  0.24760  0.37350  Biso   1.000  H
  C57      1.0000 0.71690  0.29570  0.76780  Biso   1.000  C
  C58      1.0000 0.78310  0.79570  0.73220  Biso   1.000  C
  C59      1.0000 0.28310  0.70430  0.23220  Biso   1.000  C
  C60      1.0000 0.21690  0.20430  0.26780  Biso   1.000  C
  H57      1.0000 0.67460  0.23240  0.76180  Biso   1.000  H
  H58      1.0000 0.82540  0.73240  0.73820  Biso   1.000  H
  H59      1.0000 0.32540  0.76760  0.23820  Biso   1.000  H
  H60      1.0000 0.17460  0.26760  0.26180  Biso   1.000  H
  C61      1.0000 0.03900  0.41290  0.91200  Biso   1.000  C
  C62      1.0000 0.46100  0.91290  0.58800  Biso   1.000  C
  C63      1.0000 0.96100  0.58710  0.08800  Biso   1.000  C
  C64      1.0000 0.53900  0.08710  0.41200  Biso   1.000  C
  C65      1.0000 0.22740  0.48630  0.99440  Biso   1.000  C
  C66      1.0000 0.27260  0.98630  0.50560  Biso   1.000  C
  C67      1.0000 0.77260  0.51370  0.00560  Biso   1.000  C
  C68      1.0000 0.72740  0.01370  0.49440  Biso   1.000  C
  C69      1.0000 0.33560  0.55050  0.03690  Biso   1.000  C
  C70      1.0000 0.16440  0.05050  0.46310  Biso   1.000  C
  C71      1.0000 0.66440  0.44950  0.96310  Biso   1.000  C
  C72      1.0000 0.83560  0.94950  0.53690  Biso   1.000  C
  H61      1.0000 0.33710  0.61720  0.01590  Biso   1.000  H
  H62      1.0000 0.16290  0.11720  0.48410  Biso   1.000  H
  H63      1.0000 0.66290  0.38280  0.98410  Biso   1.000  H
  H64      1.0000 0.83710  0.88280  0.51590  Biso   1.000  H
  C73      1.0000 0.43890  0.51200  0.11030  Biso   1.000  C
  C74      1.0000 0.06110  0.01200  0.38970  Biso   1.000  C
  C75      1.0000 0.56110  0.48800  0.88970  Biso   1.000  C
  C76      1.0000 0.93890  0.98800  0.61030  Biso   1.000  C
  H65      1.0000 0.51350  0.55320  0.14100  Biso   1.000  H
  H66      1.0000 0.98650  0.05320  0.35900  Biso   1.000  H
  H67      1.0000 0.48650  0.44680  0.85900  Biso   1.000  H
  H68      1.0000 0.01350  0.94680  0.64100  Biso   1.000  H
  C77      1.0000 0.43690  0.41310  0.14110  Biso   1.000  C
  C78      1.0000 0.06310  0.91310  0.35890  Biso   1.000  C
  C79      1.0000 0.56310  0.58690  0.85890  Biso   1.000  C
  C80      1.0000 0.93690  0.08690  0.64110  Biso   1.000  C
  H69      1.0000 0.51040  0.38960  0.19220  Biso   1.000  H
  H70      1.0000 0.98960  0.88960  0.30780  Biso   1.000  H
  H71      1.0000 0.48960  0.61040  0.80780  Biso   1.000  H
  H72      1.0000 0.01040  0.11040  0.69220  Biso   1.000  H
  C81      1.0000 0.33240  0.34930  0.10000  Biso   1.000  C
  C82      1.0000 0.16760  0.84930  0.40000  Biso   1.000  C
  C83      1.0000 0.66760  0.65070  0.90000  Biso   1.000  C
  C84      1.0000 0.83240  0.15070  0.60000  Biso   1.000  C
  H73      1.0000 0.33240  0.28260  0.12140  Biso   1.000  H
  H74      1.0000 0.16760  0.78260  0.37860  Biso   1.000  H
  H75      1.0000 0.66760  0.71740  0.87860  Biso   1.000  H
  H76      1.0000 0.83240  0.21740  0.62140  Biso   1.000  H
  C85      1.0000 0.22450  0.38760  0.02420  Biso   1.000  C
  C86      1.0000 0.27550  0.88760  0.47580  Biso   1.000  C
  C87      1.0000 0.77550  0.61240  0.97580  Biso   1.000  C
  C88      1.0000 0.72450  0.11240  0.52420  Biso   1.000  C
