data_image0
_cell_length_a       8.5753
_cell_length_b       8.6217
_cell_length_c       16.064
_cell_angle_alpha    90
_cell_angle_beta     101.452
_cell_angle_gamma    90

_symmetry_space_group_name_H-M    "P 1"
_symmetry_int_tables_number       1

loop_
  _symmetry_equiv_pos_as_xyz
  'x, y, z'

loop_
  _atom_site_label
  _atom_site_occupancy
  _atom_site_fract_x
  _atom_site_fract_y
  _atom_site_fract_z
  _atom_site_thermal_displace_type
  _atom_site_B_iso_or_equiv
  _atom_site_type_symbol
  Cu1      1.0000 0.50000  0.50000  0.00000  Biso   1.000  Cu
  Cu2      1.0000 0.00000  0.00000  0.50000  Biso   1.000  Cu
  Cl1      1.0000 0.95828  0.82731  0.85814  Biso   1.000  Cl
  Cl2      1.0000 0.45828  0.67269  0.35814  Biso   1.000  Cl
  Cl3      1.0000 0.04172  0.17269  0.14186  Biso   1.000  Cl
  Cl4      1.0000 0.54172  0.32731  0.64186  Biso   1.000  Cl
  N1       1.0000 0.79130  0.68030  0.13080  Biso   1.000  N
  N2       1.0000 0.29130  0.81970  0.63080  Biso   1.000  N
  N3       1.0000 0.20870  0.31970  0.86920  Biso   1.000  N
  N4       1.0000 0.70870  0.18030  0.36920  Biso   1.000  N
  N5       1.0000 0.66230  0.42470  0.10085  Biso   1.000  N
  N6       1.0000 0.16230  0.07530  0.60085  Biso   1.000  N
  N7       1.0000 0.33770  0.57530  0.89915  Biso   1.000  N
  N8       1.0000 0.83770  0.92470  0.39915  Biso   1.000  N
  N9       1.0000 0.38810  0.29540  0.00699  Biso   1.000  N
  N10      1.0000 0.88810  0.20460  0.50699  Biso   1.000  N
  N11      1.0000 0.61190  0.70460  0.99301  Biso   1.000  N
  N12      1.0000 0.11190  0.79540  0.49301  Biso   1.000  N
  N13      1.0000 0.32850  0.61500  0.09410  Biso   1.000  N
  N14      1.0000 0.82850  0.88500  0.59410  Biso   1.000  N
  N15      1.0000 0.67150  0.38500  0.90590  Biso   1.000  N
  N16      1.0000 0.17150  0.11500  0.40590  Biso   1.000  N
  C1       1.0000 0.72570  0.54820  0.16540  Biso   1.000  C
  C2       1.0000 0.22570  0.95180  0.66540  Biso   1.000  C
  C3       1.0000 0.27430  0.45180  0.83460  Biso   1.000  C
  C4       1.0000 0.77430  0.04820  0.33460  Biso   1.000  C
  H1       1.0000 0.64000  0.58270  0.19230  Biso   1.000  H
  H2       1.0000 0.14000  0.91730  0.69230  Biso   1.000  H
  H3       1.0000 0.36000  0.41730  0.80770  Biso   1.000  H
  H4       1.0000 0.86000  0.08270  0.30770  Biso   1.000  H
  H5       1.0000 0.80730  0.50270  0.20910  Biso   1.000  H
  H6       1.0000 0.30730  0.99730  0.70910  Biso   1.000  H
  H7       1.0000 0.19270  0.49730  0.79090  Biso   1.000  H
  H8       1.0000 0.69270  0.00270  0.29090  Biso   1.000  H
  C5       1.0000 0.22490  0.63710  0.12680  Biso   1.000  C
  C6       1.0000 0.72490  0.86290  0.62680  Biso   1.000  C
  C7       1.0000 0.77510  0.36290  0.87320  Biso   1.000  C
  C8       1.0000 0.27510  0.13710  0.37320  Biso   1.000  C
  C9       1.0000 0.93820  0.65550  0.09790  Biso   1.000  C
  C10      1.0000 0.43820  0.84450  0.59790  Biso   1.000  C
  C11      1.0000 0.06180  0.34450  0.90210  Biso   1.000  C
  C12      1.0000 0.56180  0.15550  0.40210  Biso   1.000  C
  H9       1.0000 0.94660  0.73590  0.05680  Biso   1.000  H
  H10      1.0000 0.44660  0.76410  0.55680  Biso   1.000  H
  H11      1.0000 0.05340  0.26410  0.94320  Biso   1.000  H
  H12      1.0000 0.55340  0.23590  0.44320  Biso   1.000  H
  H13      1.0000 0.93110  0.55650  0.06870  Biso   1.000  H
  H14      1.0000 0.43110  0.94350  0.56870  Biso   1.000  H
  H15      1.0000 0.06890  0.44350  0.93130  Biso   1.000  H
  H16      1.0000 0.56890  0.05650  0.43130  Biso   1.000  H
  C13      1.0000 0.58680  0.29430  0.13840  Biso   1.000  C
  C14      1.0000 0.08680  0.20570  0.63840  Biso   1.000  C
  C15      1.0000 0.41320  0.70570  0.86160  Biso   1.000  C
  C16      1.0000 0.91320  0.79430  0.36160  Biso   1.000  C
  H17      1.0000 0.51010  0.33320  0.17030  Biso   1.000  H
  H18      1.0000 0.01010  0.16680  0.67030  Biso   1.000  H
  H19      1.0000 0.48990  0.66680  0.82970  Biso   1.000  H
  H20      1.0000 0.98990  0.83320  0.32970  Biso   1.000  H
  H21      1.0000 0.66650  0.23440  0.17640  Biso   1.000  H
  H22      1.0000 0.16650  0.26560  0.67640  Biso   1.000  H
  H23      1.0000 0.33350  0.76560  0.82360  Biso   1.000  H
  H24      1.0000 0.83350  0.73440  0.32360  Biso   1.000  H
  C17      1.0000 0.08630  0.65720  0.16630  Biso   1.000  C
  C18      1.0000 0.58630  0.84280  0.66630  Biso   1.000  C
  C19      1.0000 0.91370  0.34280  0.83370  Biso   1.000  C
  C20      1.0000 0.41370  0.15720  0.33370  Biso   1.000  C
  H25      1.0000 0.09410  0.75490  0.19680  Biso   1.000  H
  H26      1.0000 0.59410  0.74510  0.69680  Biso   1.000  H
  H27      1.0000 0.90590  0.24510  0.80320  Biso   1.000  H
  H28      1.0000 0.40590  0.25490  0.30320  Biso   1.000  H
  H29      1.0000 0.08210  0.57400  0.20640  Biso   1.000  H
  H30      1.0000 0.58210  0.92600  0.70640  Biso   1.000  H
  H31      1.0000 0.91790  0.42600  0.79360  Biso   1.000  H
  H32      1.0000 0.41790  0.07400  0.29360  Biso   1.000  H
  C21      1.0000 0.50430  0.19410  0.06440  Biso   1.000  C
  C22      1.0000 0.00430  0.30590  0.56440  Biso   1.000  C
  C23      1.0000 0.49570  0.80590  0.93560  Biso   1.000  C
  C24      1.0000 0.99570  0.69410  0.43560  Biso   1.000  C
  H33      1.0000 0.44920  0.10850  0.08520  Biso   1.000  H
  H34      1.0000 0.94920  0.39150  0.58520  Biso   1.000  H
  H35      1.0000 0.55080  0.89150  0.91480  Biso   1.000  H
  H36      1.0000 0.05080  0.60850  0.41480  Biso   1.000  H
  H37      1.0000 0.58180  0.15210  0.03400  Biso   1.000  H
  H38      1.0000 0.08180  0.34790  0.53400  Biso   1.000  H
  H39      1.0000 0.41820  0.84790  0.96600  Biso   1.000  H
  H40      1.0000 0.91820  0.65210  0.46600  Biso   1.000  H
  C25      1.0000 0.67940  0.77590  0.07630  Biso   1.000  C
  C26      1.0000 0.17940  0.72410  0.57630  Biso   1.000  C
  C27      1.0000 0.32060  0.22410  0.92370  Biso   1.000  C
  C28      1.0000 0.82060  0.27590  0.42370  Biso   1.000  C
  H41      1.0000 0.73110  0.87250  0.06670  Biso   1.000  H
  H42      1.0000 0.23110  0.62750  0.56670  Biso   1.000  H
  H43      1.0000 0.26890  0.12750  0.93330  Biso   1.000  H
  H44      1.0000 0.76890  0.37250  0.43330  Biso   1.000  H
  H45      1.0000 0.59300  0.80070  0.10490  Biso   1.000  H
  H46      1.0000 0.09300  0.69930  0.60490  Biso   1.000  H
  H47      1.0000 0.40700  0.19930  0.89510  Biso   1.000  H
  H48      1.0000 0.90700  0.30070  0.39510  Biso   1.000  H
  O1       1.0000 0.08130  0.80870  0.92610  Biso   1.000  O
  O2       1.0000 0.58130  0.69130  0.42610  Biso   1.000  O
  O3       1.0000 0.91870  0.19130  0.07390  Biso   1.000  O
  O4       1.0000 0.41870  0.30870  0.57390  Biso   1.000  O
  O5       1.0000 0.82860  0.75530  0.87080  Biso   1.000  O
  O6       1.0000 0.32860  0.74470  0.37080  Biso   1.000  O
  O7       1.0000 0.17140  0.24470  0.12920  Biso   1.000  O
  O8       1.0000 0.67140  0.25530  0.62920  Biso   1.000  O
  O9       1.0000 0.99460  0.72970  0.78370  Biso   1.000  O
  O10      1.0000 0.49460  0.77030  0.28370  Biso   1.000  O
  O11      1.0000 0.00540  0.27030  0.21630  Biso   1.000  O
  O12      1.0000 0.50540  0.22970  0.71630  Biso   1.000  O
  O13      1.0000 0.98300  0.95990  0.82090  Biso   1.000  O
  O14      1.0000 0.48300  0.54010  0.32090  Biso   1.000  O
  O15      1.0000 0.01700  0.04010  0.17910  Biso   1.000  O
  O16      1.0000 0.51700  0.45990  0.67910  Biso   1.000  O
  O17      1.0000 0.86000  0.93700  0.85300  Biso   1.000  O
  O18      1.0000 0.36000  0.56300  0.35300  Biso   1.000  O
  O19      1.0000 0.14000  0.06300  0.14700  Biso   1.000  O
  O20      1.0000 0.64000  0.43700  0.64700  Biso   1.000  O
