data_image0
_cell_length_a       11.817
_cell_length_b       9.871
_cell_length_c       14.106
_cell_angle_alpha    90
_cell_angle_beta     95.305
_cell_angle_gamma    90

_symmetry_space_group_name_H-M    "P 1"
_symmetry_int_tables_number       1

loop_
  _symmetry_equiv_pos_as_xyz
  'x, y, z'

loop_
  _atom_site_label
  _atom_site_occupancy
  _atom_site_fract_x
  _atom_site_fract_y
  _atom_site_fract_z
  _atom_site_thermal_displace_type
  _atom_site_B_iso_or_equiv
  _atom_site_type_symbol
  Cu1      1.0000 0.05825  0.59104  0.40651  Biso   1.000  Cu
  Cu2      1.0000 0.94175  0.09104  0.09349  Biso   1.000  Cu
  Cu3      1.0000 0.94175  0.40896  0.59349  Biso   1.000  Cu
  Cu4      1.0000 0.05825  0.90896  0.90651  Biso   1.000  Cu
  N1       1.0000 0.96321  0.75800  0.41391  Biso   1.000  N
  N2       1.0000 0.03679  0.25800  0.08609  Biso   1.000  N
  N3       1.0000 0.03679  0.24200  0.58609  Biso   1.000  N
  N4       1.0000 0.96321  0.74200  0.91391  Biso   1.000  N
  C1       1.0000 0.98900  0.87810  0.37880  Biso   1.000  C
  C2       1.0000 0.01100  0.37810  0.12120  Biso   1.000  C
  C3       1.0000 0.01100  0.12190  0.62120  Biso   1.000  C
  C4       1.0000 0.98900  0.62190  0.87880  Biso   1.000  C
  H1       1.0000 0.05900  0.89880  0.35730  Biso   1.000  H
  H2       1.0000 0.94100  0.39880  0.14270  Biso   1.000  H
  H3       1.0000 0.94100  0.10120  0.64270  Biso   1.000  H
  H4       1.0000 0.05900  0.60120  0.85730  Biso   1.000  H
  N5       1.0000 0.90340  0.96470  0.37823  Biso   1.000  N
  N6       1.0000 0.09660  0.46470  0.12177  Biso   1.000  N
  N7       1.0000 0.09660  0.03530  0.62177  Biso   1.000  N
  N8       1.0000 0.90340  0.53530  0.87823  Biso   1.000  N
  H5       1.0000 0.89600  0.04100  0.35200  Biso   1.000  H
  H6       1.0000 0.10400  0.54100  0.14800  Biso   1.000  H
  H7       1.0000 0.10400  0.95900  0.64800  Biso   1.000  H
  H8       1.0000 0.89600  0.45900  0.85200  Biso   1.000  H
  C5       1.0000 0.81570  0.89870  0.41450  Biso   1.000  C
  C6       1.0000 0.18430  0.39870  0.08550  Biso   1.000  C
  C7       1.0000 0.18430  0.10130  0.58550  Biso   1.000  C
  C8       1.0000 0.81570  0.60130  0.91450  Biso   1.000  C
  H9       1.0000 0.74410  0.93360  0.42270  Biso   1.000  H
  H10      1.0000 0.25590  0.43360  0.07730  Biso   1.000  H
  H11      1.0000 0.25590  0.06640  0.57730  Biso   1.000  H
  H12      1.0000 0.74410  0.56640  0.92270  Biso   1.000  H
  C9       1.0000 0.85350  0.77240  0.43600  Biso   1.000  C
  C10      1.0000 0.14650  0.27240  0.06400  Biso   1.000  C
  C11      1.0000 0.14650  0.22760  0.56400  Biso   1.000  C
  C12      1.0000 0.85350  0.72760  0.93600  Biso   1.000  C
  H13      1.0000 0.81110  0.70490  0.46210  Biso   1.000  H
  H14      1.0000 0.18890  0.20490  0.03790  Biso   1.000  H
  H15      1.0000 0.18890  0.29510  0.53790  Biso   1.000  H
  H16      1.0000 0.81110  0.79510  0.96210  Biso   1.000  H
  N9       1.0000 0.15042  0.43200  0.37451  Biso   1.000  N
  N10      1.0000 0.84958  0.93200  0.12549  Biso   1.000  N
  N11      1.0000 0.84958  0.56800  0.62549  Biso   1.000  N
  N12      1.0000 0.15042  0.06800  0.87451  Biso   1.000  N
  C13      1.0000 0.11260  0.31390  0.33940  Biso   1.000  C
  C14      1.0000 0.88740  0.81390  0.16060  Biso   1.000  C
  C15      1.0000 0.88740  0.68610  0.66060  Biso   1.000  C
  C16      1.0000 0.11260  0.18610  0.83940  Biso   1.000  C
  H17      1.0000 0.03620  0.29180  0.32690  Biso   1.000  H
  H18      1.0000 0.96380  0.79180  0.17310  Biso   1.000  H
  H19      1.0000 0.96380  0.70820  0.67310  Biso   1.000  H
  H20      1.0000 0.03620  0.20820  0.82690  Biso   1.000  H
  N13      1.0000 0.19810  0.23140  0.32436  Biso   1.000  N
  N14      1.0000 0.80190  0.73140  0.17564  Biso   1.000  N
  N15      1.0000 0.80190  0.76860  0.67564  Biso   1.000  N
  N16      1.0000 0.19810  0.26860  0.82436  Biso   1.000  N
  H21      1.0000 0.18500  0.15100  0.30100  Biso   1.000  H
  H22      1.0000 0.81500  0.65100  0.19900  Biso   1.000  H
  H23      1.0000 0.81500  0.84900  0.69900  Biso   1.000  H
  H24      1.0000 0.18500  0.34900  0.80100  Biso   1.000  H
  C17      1.0000 0.29660  0.29780  0.35010  Biso   1.000  C
  C18      1.0000 0.70340  0.79780  0.14990  Biso   1.000  C
  C19      1.0000 0.70340  0.70220  0.64990  Biso   1.000  C
  C20      1.0000 0.29660  0.20220  0.85010  Biso   1.000  C
  H25      1.0000 0.37000  0.26500  0.34700  Biso   1.000  H
  H26      1.0000 0.63000  0.76500  0.15300  Biso   1.000  H
  H27      1.0000 0.63000  0.73500  0.65300  Biso   1.000  H
  H28      1.0000 0.37000  0.23500  0.84700  Biso   1.000  H
  C21      1.0000 0.26720  0.42070  0.38110  Biso   1.000  C
  C22      1.0000 0.73280  0.92070  0.11890  Biso   1.000  C
  C23      1.0000 0.73280  0.57930  0.61890  Biso   1.000  C
  C24      1.0000 0.26720  0.07930  0.88110  Biso   1.000  C
  H29      1.0000 0.31790  0.48790  0.40360  Biso   1.000  H
  H30      1.0000 0.68210  0.98790  0.09640  Biso   1.000  H
  H31      1.0000 0.68210  0.51210  0.59640  Biso   1.000  H
  H32      1.0000 0.31790  0.01210  0.90360  Biso   1.000  H
  O1       1.0000 0.19108  0.70647  0.39250  Biso   1.000  O
  O2       1.0000 0.80892  0.20647  0.10750  Biso   1.000  O
  O3       1.0000 0.80892  0.29353  0.60750  Biso   1.000  O
  O4       1.0000 0.19108  0.79353  0.89250  Biso   1.000  O
  O5       1.0000 0.15831  0.69392  0.23474  Biso   1.000  O
  O6       1.0000 0.84169  0.19392  0.26526  Biso   1.000  O
  O7       1.0000 0.84169  0.30608  0.76526  Biso   1.000  O
  O8       1.0000 0.15831  0.80608  0.73474  Biso   1.000  O
  O9       1.0000 0.12550  0.00886  0.22560  Biso   1.000  O
  O10      1.0000 0.87450  0.50886  0.27440  Biso   1.000  O
  O11      1.0000 0.87450  0.99114  0.77440  Biso   1.000  O
  O12      1.0000 0.12550  0.49114  0.72560  Biso   1.000  O
  O13      1.0000 0.07498  0.97182  0.07356  Biso   1.000  O
  O14      1.0000 0.92502  0.47182  0.42644  Biso   1.000  O
  O15      1.0000 0.92502  0.02818  0.92644  Biso   1.000  O
  O16      1.0000 0.07498  0.52818  0.57356  Biso   1.000  O
  C25      1.0000 0.32040  0.81740  0.30251  Biso   1.000  C
  C26      1.0000 0.67960  0.31740  0.19749  Biso   1.000  C
  C27      1.0000 0.67960  0.18260  0.69749  Biso   1.000  C
  C28      1.0000 0.32040  0.68260  0.80251  Biso   1.000  C
  C29      1.0000 0.39910  0.82370  0.38220  Biso   1.000  C
  C30      1.0000 0.60090  0.32370  0.11780  Biso   1.000  C
  C31      1.0000 0.60090  0.17630  0.61780  Biso   1.000  C
  C32      1.0000 0.39910  0.67630  0.88220  Biso   1.000  C
  H33      1.0000 0.38610  0.77400  0.43620  Biso   1.000  H
  H34      1.0000 0.61390  0.27400  0.06380  Biso   1.000  H
  H35      1.0000 0.61390  0.22600  0.56380  Biso   1.000  H
  H36      1.0000 0.38610  0.72600  0.93620  Biso   1.000  H
  C33      1.0000 0.49520  0.90140  0.38310  Biso   1.000  C
  C34      1.0000 0.50480  0.40140  0.11690  Biso   1.000  C
  C35      1.0000 0.50480  0.09860  0.61690  Biso   1.000  C
  C36      1.0000 0.49520  0.59860  0.88310  Biso   1.000  C
  H37      1.0000 0.54700  0.90310  0.43680  Biso   1.000  H
  H38      1.0000 0.45300  0.40310  0.06320  Biso   1.000  H
  H39      1.0000 0.45300  0.09690  0.56320  Biso   1.000  H
  H40      1.0000 0.54700  0.59690  0.93680  Biso   1.000  H
  C37      1.0000 0.51510  0.97700  0.30420  Biso   1.000  C
  C38      1.0000 0.48490  0.47700  0.19580  Biso   1.000  C
  C39      1.0000 0.48490  0.02300  0.69580  Biso   1.000  C
  C40      1.0000 0.51510  0.52300  0.80420  Biso   1.000  C
  H41      1.0000 0.57980  0.03070  0.30470  Biso   1.000  H
  H42      1.0000 0.42020  0.53070  0.19530  Biso   1.000  H
  H43      1.0000 0.42020  0.96930  0.69530  Biso   1.000  H
  H44      1.0000 0.57980  0.46930  0.80470  Biso   1.000  H
  C41      1.0000 0.43800  0.97220  0.22440  Biso   1.000  C
  C42      1.0000 0.56200  0.47220  0.27560  Biso   1.000  C
  C43      1.0000 0.56200  0.02780  0.77560  Biso   1.000  C
  C44      1.0000 0.43800  0.52780  0.72440  Biso   1.000  C
  H45      1.0000 0.45180  0.02380  0.17150  Biso   1.000  H
  H46      1.0000 0.54820  0.52380  0.32850  Biso   1.000  H
  H47      1.0000 0.54820  0.97620  0.82850  Biso   1.000  H
  H48      1.0000 0.45180  0.47620  0.67150  Biso   1.000  H
  C45      1.0000 0.34090  0.89330  0.22070  Biso   1.000  C
  C46      1.0000 0.65910  0.39330  0.27930  Biso   1.000  C
  C47      1.0000 0.65910  0.10670  0.77930  Biso   1.000  C
  C48      1.0000 0.34090  0.60670  0.72070  Biso   1.000  C
  C49      1.0000 0.21520  0.73240  0.30784  Biso   1.000  C
  C50      1.0000 0.78480  0.23240  0.19216  Biso   1.000  C
  C51      1.0000 0.78480  0.26760  0.69216  Biso   1.000  C
  C52      1.0000 0.21520  0.76760  0.80784  Biso   1.000  C
  C53      1.0000 0.25910  0.89850  0.13245  Biso   1.000  C
  C54      1.0000 0.74090  0.39850  0.36755  Biso   1.000  C
  C55      1.0000 0.74090  0.10150  0.86755  Biso   1.000  C
  C56      1.0000 0.25910  0.60150  0.63245  Biso   1.000  C
  H49      1.0000 0.24550  0.80690  0.10930  Biso   1.000  H
  H50      1.0000 0.75450  0.30690  0.39070  Biso   1.000  H
  H51      1.0000 0.75450  0.19310  0.89070  Biso   1.000  H
  H52      1.0000 0.24550  0.69310  0.60930  Biso   1.000  H
  H53      1.0000 0.29420  0.94830  0.08370  Biso   1.000  H
  H54      1.0000 0.70580  0.44830  0.41630  Biso   1.000  H
  H55      1.0000 0.70580  0.05170  0.91630  Biso   1.000  H
  H56      1.0000 0.29420  0.55170  0.58370  Biso   1.000  H
  C57      1.0000 0.14580  0.96380  0.14671  Biso   1.000  C
  C58      1.0000 0.85420  0.46380  0.35329  Biso   1.000  C
  C59      1.0000 0.85420  0.03620  0.85329  Biso   1.000  C
  C60      1.0000 0.14580  0.53620  0.64671  Biso   1.000  C
