data_image0
_cell_length_a       11.8066
_cell_length_b       9.8601
_cell_length_c       13.8923
_cell_angle_alpha    90
_cell_angle_beta     94.462
_cell_angle_gamma    90

_symmetry_space_group_name_H-M    "P 1"
_symmetry_int_tables_number       1

loop_
  _symmetry_equiv_pos_as_xyz
  'x, y, z'

loop_
  _atom_site_label
  _atom_site_occupancy
  _atom_site_fract_x
  _atom_site_fract_y
  _atom_site_fract_z
  _atom_site_thermal_displace_type
  _atom_site_B_iso_or_equiv
  _atom_site_type_symbol
  C1       1.0000 0.28497  0.73384  0.19389  Biso   1.000  C
  C2       1.0000 0.71503  0.23384  0.30611  Biso   1.000  C
  C3       1.0000 0.71503  0.26616  0.80611  Biso   1.000  C
  C4       1.0000 0.28497  0.76616  0.69389  Biso   1.000  C
  C5       1.0000 0.17936  0.81925  0.19928  Biso   1.000  C
  C6       1.0000 0.82064  0.31925  0.30072  Biso   1.000  C
  C7       1.0000 0.82064  0.18075  0.80072  Biso   1.000  C
  C8       1.0000 0.17936  0.68075  0.69928  Biso   1.000  C
  C9       1.0000 0.10266  0.82517  0.11776  Biso   1.000  C
  C10      1.0000 0.89734  0.32517  0.38224  Biso   1.000  C
  C11      1.0000 0.89734  0.17483  0.88224  Biso   1.000  C
  C12      1.0000 0.10266  0.67483  0.61776  Biso   1.000  C
  H1       1.0000 0.11700  0.77500  0.06330  Biso   1.000  H
  H2       1.0000 0.88300  0.27500  0.43670  Biso   1.000  H
  H3       1.0000 0.88300  0.22500  0.93670  Biso   1.000  H
  H4       1.0000 0.11700  0.72500  0.56330  Biso   1.000  H
  C13      1.0000 0.00560  0.90430  0.11632  Biso   1.000  C
  C14      1.0000 0.99440  0.40430  0.38368  Biso   1.000  C
  C15      1.0000 0.99440  0.09570  0.88368  Biso   1.000  C
  C16      1.0000 0.00560  0.59570  0.61632  Biso   1.000  C
  H5       1.0000 0.95460  0.90560  0.06180  Biso   1.000  H
  H6       1.0000 0.04540  0.40560  0.43820  Biso   1.000  H
  H7       1.0000 0.04540  0.09440  0.93820  Biso   1.000  H
  H8       1.0000 0.95460  0.59440  0.56180  Biso   1.000  H
  C17      1.0000 0.98476  0.98160  0.19642  Biso   1.000  C
  C18      1.0000 0.01524  0.48160  0.30358  Biso   1.000  C
  C19      1.0000 0.01524  0.01840  0.80358  Biso   1.000  C
  C20      1.0000 0.98476  0.51840  0.69642  Biso   1.000  C
  H9       1.0000 0.92030  0.03590  0.19580  Biso   1.000  H
  H10      1.0000 0.07970  0.53590  0.30420  Biso   1.000  H
  H11      1.0000 0.07970  0.96410  0.80420  Biso   1.000  H
  H12      1.0000 0.92030  0.46410  0.69580  Biso   1.000  H
  C21      1.0000 0.06113  0.97708  0.27763  Biso   1.000  C
  C22      1.0000 0.93887  0.47708  0.22237  Biso   1.000  C
  C23      1.0000 0.93887  0.02292  0.72237  Biso   1.000  C
  C24      1.0000 0.06113  0.52292  0.77763  Biso   1.000  C
  H13      1.0000 0.04710  0.02960  0.33100  Biso   1.000  H
  H14      1.0000 0.95290  0.52960  0.16900  Biso   1.000  H
  H15      1.0000 0.95290  0.97040  0.66900  Biso   1.000  H
  H16      1.0000 0.04710  0.47040  0.83100  Biso   1.000  H
  C25      1.0000 0.15808  0.89619  0.28141  Biso   1.000  C
  C26      1.0000 0.84192  0.39619  0.21859  Biso   1.000  C
  C27      1.0000 0.84192  0.10381  0.71859  Biso   1.000  C
  C28      1.0000 0.15808  0.60381  0.78141  Biso   1.000  C
  C29      1.0000 0.23859  0.90138  0.37107  Biso   1.000  C
  C30      1.0000 0.76141  0.40138  0.12893  Biso   1.000  C
  C31      1.0000 0.76141  0.09862  0.62893  Biso   1.000  C
  C32      1.0000 0.23859  0.59862  0.87107  Biso   1.000  C
  H17      1.0000 0.25040  0.81000  0.39560  Biso   1.000  H
  H18      1.0000 0.74960  0.31000  0.10440  Biso   1.000  H
  H19      1.0000 0.74960  0.19000  0.60440  Biso   1.000  H
  H20      1.0000 0.25040  0.69000  0.89560  Biso   1.000  H
  H21      1.0000 0.20380  0.95360  0.42010  Biso   1.000  H
  H22      1.0000 0.79620  0.45360  0.07990  Biso   1.000  H
  H23      1.0000 0.79620  0.04640  0.57990  Biso   1.000  H
  H24      1.0000 0.20380  0.54640  0.92010  Biso   1.000  H
  C33      1.0000 0.35326  0.96369  0.35437  Biso   1.000  C
  C34      1.0000 0.64674  0.46369  0.14563  Biso   1.000  C
  C35      1.0000 0.64674  0.03631  0.64563  Biso   1.000  C
  C36      1.0000 0.35326  0.53631  0.85437  Biso   1.000  C
  C37      1.0000 0.65071  0.76840  0.06380  Biso   1.000  C
  C38      1.0000 0.34929  0.26840  0.43620  Biso   1.000  C
  C39      1.0000 0.34929  0.23160  0.93620  Biso   1.000  C
  C40      1.0000 0.65071  0.73160  0.56380  Biso   1.000  C
  H25      1.0000 0.69300  0.70000  0.03760  Biso   1.000  H
  H26      1.0000 0.30700  0.20000  0.46240  Biso   1.000  H
  H27      1.0000 0.30700  0.30000  0.96240  Biso   1.000  H
  H28      1.0000 0.69300  0.80000  0.53760  Biso   1.000  H
  C41      1.0000 0.68898  0.89532  0.08651  Biso   1.000  C
  C42      1.0000 0.31102  0.39532  0.41349  Biso   1.000  C
  C43      1.0000 0.31102  0.10468  0.91349  Biso   1.000  C
  C44      1.0000 0.68898  0.60468  0.58651  Biso   1.000  C
  H29      1.0000 0.76120  0.92960  0.07900  Biso   1.000  H
  H30      1.0000 0.23880  0.42960  0.42100  Biso   1.000  H
  H31      1.0000 0.23880  0.07040  0.92100  Biso   1.000  H
  H32      1.0000 0.76120  0.57040  0.57900  Biso   1.000  H
  C45      1.0000 0.51248  0.87703  0.12124  Biso   1.000  C
  C46      1.0000 0.48752  0.37703  0.37876  Biso   1.000  C
  C47      1.0000 0.48752  0.12297  0.87876  Biso   1.000  C
  C48      1.0000 0.51248  0.62297  0.62124  Biso   1.000  C
  H33      1.0000 0.44190  0.89860  0.14240  Biso   1.000  H
  H34      1.0000 0.55810  0.39860  0.35760  Biso   1.000  H
  H35      1.0000 0.55810  0.10140  0.85760  Biso   1.000  H
  H36      1.0000 0.44190  0.60140  0.64240  Biso   1.000  H
  C49      1.0000 0.23257  0.42469  0.12357  Biso   1.000  C
  C50      1.0000 0.76743  0.92469  0.37643  Biso   1.000  C
  C51      1.0000 0.76743  0.57531  0.87643  Biso   1.000  C
  C52      1.0000 0.23257  0.07531  0.62357  Biso   1.000  C
  H37      1.0000 0.18250  0.49340  0.10270  Biso   1.000  H
  H38      1.0000 0.81750  0.99340  0.39730  Biso   1.000  H
  H39      1.0000 0.81750  0.50660  0.89730  Biso   1.000  H
  H40      1.0000 0.18250  0.00660  0.60270  Biso   1.000  H
  C53      1.0000 0.20220  0.30007  0.15476  Biso   1.000  C
  C54      1.0000 0.79780  0.80007  0.34524  Biso   1.000  C
  C55      1.0000 0.79780  0.69993  0.84524  Biso   1.000  C
  C56      1.0000 0.20220  0.19993  0.65476  Biso   1.000  C
  H41      1.0000 0.12880  0.26770  0.15920  Biso   1.000  H
  H42      1.0000 0.87120  0.76770  0.34080  Biso   1.000  H
  H43      1.0000 0.87120  0.73230  0.84080  Biso   1.000  H
  H44      1.0000 0.12880  0.23230  0.65920  Biso   1.000  H
  C57      1.0000 0.38794  0.31417  0.16142  Biso   1.000  C
  C58      1.0000 0.61206  0.81417  0.33858  Biso   1.000  C
  C59      1.0000 0.61206  0.68583  0.83858  Biso   1.000  C
  C60      1.0000 0.38794  0.18583  0.66142  Biso   1.000  C
  H45      1.0000 0.46430  0.29120  0.17190  Biso   1.000  H
  H46      1.0000 0.53570  0.79120  0.32810  Biso   1.000  H
  H47      1.0000 0.53570  0.70880  0.82810  Biso   1.000  H
  H48      1.0000 0.46430  0.20880  0.67190  Biso   1.000  H
  N1       1.0000 0.53919  0.75716  0.08581  Biso   1.000  N
  N2       1.0000 0.46081  0.25716  0.41419  Biso   1.000  N
  N3       1.0000 0.46081  0.24284  0.91419  Biso   1.000  N
  N4       1.0000 0.53919  0.74284  0.58581  Biso   1.000  N
  N5       1.0000 0.60031  0.96264  0.12252  Biso   1.000  N
  N6       1.0000 0.39969  0.46264  0.37748  Biso   1.000  N
  N7       1.0000 0.39969  0.03736  0.87748  Biso   1.000  N
  N8       1.0000 0.60031  0.53736  0.62252  Biso   1.000  N
  N9       1.0000 0.34986  0.43302  0.12780  Biso   1.000  N
  N10      1.0000 0.65014  0.93302  0.37220  Biso   1.000  N
  N11      1.0000 0.65014  0.56698  0.87220  Biso   1.000  N
  N12      1.0000 0.34986  0.06698  0.62780  Biso   1.000  N
  N13      1.0000 0.30165  0.23188  0.17823  Biso   1.000  N
  N14      1.0000 0.69835  0.73188  0.32177  Biso   1.000  N
  N15      1.0000 0.69835  0.76812  0.82177  Biso   1.000  N
  N16      1.0000 0.30165  0.26812  0.67823  Biso   1.000  N
  O1       1.0000 0.31038  0.70733  0.10796  Biso   1.000  O
  O2       1.0000 0.68962  0.20733  0.39204  Biso   1.000  O
  O3       1.0000 0.68962  0.29267  0.89204  Biso   1.000  O
  O4       1.0000 0.31038  0.79267  0.60796  Biso   1.000  O
  O5       1.0000 0.34063  0.69608  0.26873  Biso   1.000  O
  O6       1.0000 0.65937  0.19608  0.23127  Biso   1.000  O
  O7       1.0000 0.65937  0.30392  0.73127  Biso   1.000  O
  O8       1.0000 0.34063  0.80392  0.76873  Biso   1.000  O
  O9       1.0000 0.42476  0.97052  0.42800  Biso   1.000  O
  O10      1.0000 0.57524  0.47052  0.07200  Biso   1.000  O
  O11      1.0000 0.57524  0.02948  0.57200  Biso   1.000  O
  O12      1.0000 0.42476  0.52948  0.92800  Biso   1.000  O
  O13      1.0000 0.37394  0.00833  0.27386  Biso   1.000  O
  O14      1.0000 0.62606  0.50833  0.22614  Biso   1.000  O
  O15      1.0000 0.62606  0.99167  0.72614  Biso   1.000  O
  O16      1.0000 0.37394  0.49167  0.77386  Biso   1.000  O
  Cu1      1.0000 0.44273  0.59118  0.09319  Biso   1.000  Cu
  Cu2      1.0000 0.55727  0.09118  0.40681  Biso   1.000  Cu
  Cu3      1.0000 0.55727  0.40882  0.90682  Biso   1.000  Cu
  Cu4      1.0000 0.44273  0.90882  0.59318  Biso   1.000  Cu
  H49      1.0000 0.31400  0.15500  0.20380  Biso   1.000  H
  H50      1.0000 0.68600  0.65500  0.29620  Biso   1.000  H
  H51      1.0000 0.68600  0.84500  0.79620  Biso   1.000  H
  H52      1.0000 0.31400  0.34500  0.70380  Biso   1.000  H
  H53      1.0000 0.60800  0.03400  0.14970  Biso   1.000  H
  H54      1.0000 0.39200  0.53400  0.35030  Biso   1.000  H
  H55      1.0000 0.39200  0.96600  0.85030  Biso   1.000  H
  H56      1.0000 0.60800  0.46600  0.64970  Biso   1.000  H
