data_image0
_cell_length_a       6.41
_cell_length_b       7.512
_cell_length_c       22.879
_cell_angle_alpha    90
_cell_angle_beta     90
_cell_angle_gamma    90

_symmetry_space_group_name_H-M    "P 1"
_symmetry_int_tables_number       1

loop_
  _symmetry_equiv_pos_as_xyz
  'x, y, z'

loop_
  _atom_site_label
  _atom_site_occupancy
  _atom_site_fract_x
  _atom_site_fract_y
  _atom_site_fract_z
  _atom_site_thermal_displace_type
  _atom_site_B_iso_or_equiv
  _atom_site_type_symbol
  Cu1      1.0000 0.11023  0.25163  0.99871  Biso   1.000  Cu
  Cu2      1.0000 0.38977  0.74837  0.49871  Biso   1.000  Cu
  Cu3      1.0000 0.88977  0.75163  0.50129  Biso   1.000  Cu
  Cu4      1.0000 0.61023  0.24837  0.00129  Biso   1.000  Cu
  N1       1.0000 0.36010  0.40340  0.01358  Biso   1.000  N
  N2       1.0000 0.13990  0.59660  0.51358  Biso   1.000  N
  N3       1.0000 0.63990  0.90340  0.48642  Biso   1.000  N
  N4       1.0000 0.86010  0.09660  0.98642  Biso   1.000  N
  O1       1.0000 0.03510  0.39990  0.93145  Biso   1.000  O
  O2       1.0000 0.46490  0.60010  0.43145  Biso   1.000  O
  O3       1.0000 0.96490  0.89990  0.56855  Biso   1.000  O
  O4       1.0000 0.53510  0.10010  0.06855  Biso   1.000  O
  O5       1.0000 0.87080  0.43860  0.05666  Biso   1.000  O
  O6       1.0000 0.62920  0.56140  0.55666  Biso   1.000  O
  O7       1.0000 0.12920  0.93860  0.44334  Biso   1.000  O
  O8       1.0000 0.37080  0.06140  0.94334  Biso   1.000  O
  O9       1.0000 0.18530  0.10050  0.06477  Biso   1.000  O
  O10      1.0000 0.31470  0.89950  0.56477  Biso   1.000  O
  O11      1.0000 0.81470  0.60050  0.43523  Biso   1.000  O
  O12      1.0000 0.68530  0.39950  0.93523  Biso   1.000  O
  C1       1.0000 0.85670  0.44160  0.91337  Biso   1.000  C
  C2       1.0000 0.64330  0.55840  0.41337  Biso   1.000  C
  C3       1.0000 0.14330  0.94160  0.58663  Biso   1.000  C
  C4       1.0000 0.35670  0.05840  0.08663  Biso   1.000  C
  H1       1.0000 0.86990  0.55720  0.04100  Biso   1.000  H
  H2       1.0000 0.63010  0.44280  0.54100  Biso   1.000  H
  H3       1.0000 0.13010  0.05720  0.45900  Biso   1.000  H
  H4       1.0000 0.36990  0.94280  0.95900  Biso   1.000  H
  C5       1.0000 0.89920  0.44310  0.11740  Biso   1.000  C
  C6       1.0000 0.60080  0.55690  0.61740  Biso   1.000  C
  C7       1.0000 0.10080  0.94310  0.38260  Biso   1.000  C
  C8       1.0000 0.39920  0.05690  0.88260  Biso   1.000  C
  N5       1.0000 0.86240  0.94220  0.00086  Biso   1.000  N
  N6       1.0000 0.63760  0.05780  0.50086  Biso   1.000  N
  N7       1.0000 0.13760  0.44220  0.49914  Biso   1.000  N
  N8       1.0000 0.36240  0.55780  0.99914  Biso   1.000  N
  C9       1.0000 0.84950  0.55810  0.85973  Biso   1.000  C
  C10      1.0000 0.65050  0.44190  0.35973  Biso   1.000  C
  C11      1.0000 0.15050  0.05810  0.64027  Biso   1.000  C
  C12      1.0000 0.34950  0.94190  0.14027  Biso   1.000  C
  H5       1.0000 0.02810  0.50220  0.12630  Biso   1.000  H
  H6       1.0000 0.47190  0.49780  0.62630  Biso   1.000  H
  H7       1.0000 0.97190  0.00220  0.37370  Biso   1.000  H
  H8       1.0000 0.52810  0.99780  0.87370  Biso   1.000  H
  H9       1.0000 0.90330  0.32370  0.13230  Biso   1.000  H
  H10      1.0000 0.59670  0.67630  0.63230  Biso   1.000  H
  H11      1.0000 0.09670  0.82370  0.36770  Biso   1.000  H
  H12      1.0000 0.40330  0.17630  0.86770  Biso   1.000  H
  H13      1.0000 0.78560  0.50640  0.13510  Biso   1.000  H
  H14      1.0000 0.71440  0.49360  0.63510  Biso   1.000  H
  H15      1.0000 0.21440  0.00640  0.36490  Biso   1.000  H
  H16      1.0000 0.28560  0.99360  0.86490  Biso   1.000  H
  N9       1.0000 0.86440  0.79610  0.01310  Biso   1.000  N
  N10      1.0000 0.63560  0.20390  0.51310  Biso   1.000  N
  N11      1.0000 0.13560  0.29610  0.48690  Biso   1.000  N
  N12      1.0000 0.36440  0.70390  0.98690  Biso   1.000  N
  C13      1.0000 0.67560  0.56940  0.82330  Biso   1.000  C
  C14      1.0000 0.82440  0.43060  0.32330  Biso   1.000  C
  C15      1.0000 0.32440  0.06940  0.67670  Biso   1.000  C
  C16      1.0000 0.17560  0.93060  0.17670  Biso   1.000  C
  C17      1.0000 0.01650  0.65860  0.84320  Biso   1.000  C
  C18      1.0000 0.48350  0.34140  0.34320  Biso   1.000  C
  C19      1.0000 0.98350  0.15860  0.65680  Biso   1.000  C
  C20      1.0000 0.51650  0.84140  0.15680  Biso   1.000  C
  C21      1.0000 0.66890  0.67790  0.77511  Biso   1.000  C
  C22      1.0000 0.83110  0.32210  0.27511  Biso   1.000  C
  C23      1.0000 0.33110  0.17790  0.72489  Biso   1.000  C
  C24      1.0000 0.16890  0.82210  0.22489  Biso   1.000  C
  F1       1.0000 0.50940  0.46850  0.83278  Biso   1.000  F
  F2       1.0000 0.99060  0.53150  0.33278  Biso   1.000  F
  F3       1.0000 0.49060  0.96850  0.66722  Biso   1.000  F
  F4       1.0000 0.00940  0.03150  0.16722  Biso   1.000  F
  C25      1.0000 0.01200  0.76760  0.79450  Biso   1.000  C
  C26      1.0000 0.48800  0.23240  0.29450  Biso   1.000  C
  C27      1.0000 0.98800  0.26760  0.70550  Biso   1.000  C
  C28      1.0000 0.51200  0.73240  0.20550  Biso   1.000  C
  H17      1.0000 0.13780  0.65360  0.86540  Biso   1.000  H
  H18      1.0000 0.36220  0.34640  0.36540  Biso   1.000  H
  H19      1.0000 0.86220  0.15360  0.63460  Biso   1.000  H
  H20      1.0000 0.63780  0.84640  0.13460  Biso   1.000  H
  H21      1.0000 0.54970  0.68130  0.75190  Biso   1.000  H
  H22      1.0000 0.95030  0.31870  0.25190  Biso   1.000  H
  H23      1.0000 0.45030  0.18130  0.74810  Biso   1.000  H
  H24      1.0000 0.04970  0.81870  0.24810  Biso   1.000  H
  C29      1.0000 0.83480  0.77930  0.76140  Biso   1.000  C
  C30      1.0000 0.66520  0.22070  0.26140  Biso   1.000  C
  C31      1.0000 0.16520  0.27930  0.73860  Biso   1.000  C
  C32      1.0000 0.33480  0.72070  0.23860  Biso   1.000  C
  H25      1.0000 0.12950  0.83310  0.78430  Biso   1.000  H
  H26      1.0000 0.37050  0.16690  0.28430  Biso   1.000  H
  H27      1.0000 0.87050  0.33310  0.71570  Biso   1.000  H
  H28      1.0000 0.62950  0.66690  0.21570  Biso   1.000  H
  H29      1.0000 0.82910  0.85660  0.72970  Biso   1.000  H
  H30      1.0000 0.67090  0.14340  0.22970  Biso   1.000  H
  H31      1.0000 0.17090  0.35660  0.77030  Biso   1.000  H
  H32      1.0000 0.32910  0.64340  0.27030  Biso   1.000  H
  H33      1.0000 0.55920  0.50050  0.83210  Biso   1.000  H
  H34      1.0000 0.94080  0.49950  0.33210  Biso   1.000  H
  H35      1.0000 0.44080  0.00050  0.66790  Biso   1.000  H
  H36      1.0000 0.05920  0.99950  0.16790  Biso   1.000  H
  F5       1.0000 0.17900  0.66500  0.86790  Biso   1.000  F
  F6       1.0000 0.32100  0.33500  0.36790  Biso   1.000  F
  F7       1.0000 0.82100  0.16500  0.63210  Biso   1.000  F
  F8       1.0000 0.67900  0.83500  0.13210  Biso   1.000  F
