data_image0
_cell_length_a       7.7839
_cell_length_b       6.5316
_cell_length_c       10.911
_cell_angle_alpha    90
_cell_angle_beta     104.846
_cell_angle_gamma    90

_symmetry_space_group_name_H-M    "P 1"
_symmetry_int_tables_number       1

loop_
  _symmetry_equiv_pos_as_xyz
  'x, y, z'

loop_
  _atom_site_label
  _atom_site_occupancy
  _atom_site_fract_x
  _atom_site_fract_y
  _atom_site_fract_z
  _atom_site_thermal_displace_type
  _atom_site_B_iso_or_equiv
  _atom_site_type_symbol
  Cu1      1.0000 0.50000  0.50000  0.50000  Biso   1.000  Cu
  Cu2      1.0000 0.50000  0.00000  0.50000  Biso   1.000  Cu
  F1       1.0000 0.91460  0.25000  0.29500  Biso   1.000  F
  F2       1.0000 0.08540  0.75000  0.70500  Biso   1.000  F
  F3       1.0000 0.32960  0.25000  0.05480  Biso   1.000  F
  F4       1.0000 0.67040  0.75000  0.94520  Biso   1.000  F
  O1       1.0000 0.32620  0.42210  0.34288  Biso   1.000  O
  O2       1.0000 0.67380  0.92210  0.65712  Biso   1.000  O
  O3       1.0000 0.67380  0.57790  0.65712  Biso   1.000  O
  O4       1.0000 0.32620  0.07790  0.34288  Biso   1.000  O
  O5       1.0000 0.33220  0.25000  0.60750  Biso   1.000  O
  O6       1.0000 0.66780  0.75000  0.39250  Biso   1.000  O
  N1       1.0000 0.64310  0.25000  0.49280  Biso   1.000  N
  N2       1.0000 0.35690  0.75000  0.50720  Biso   1.000  N
  N3       1.0000 0.80250  0.25000  0.54400  Biso   1.000  N
  N4       1.0000 0.19750  0.75000  0.45600  Biso   1.000  N
  N5       1.0000 0.95010  0.25000  0.58820  Biso   1.000  N
  N6       1.0000 0.04990  0.75000  0.41180  Biso   1.000  N
  C1       1.0000 0.27390  0.25000  0.29920  Biso   1.000  C
  C2       1.0000 0.72610  0.75000  0.70080  Biso   1.000  C
  C3       1.0000 0.12500  0.25000  0.17870  Biso   1.000  C
  C4       1.0000 0.87500  0.75000  0.82130  Biso   1.000  C
  C5       1.0000 0.95080  0.25000  0.18000  Biso   1.000  C
  C6       1.0000 0.04920  0.75000  0.82000  Biso   1.000  C
  C7       1.0000 0.81280  0.25000  0.07010  Biso   1.000  C
  C8       1.0000 0.18720  0.75000  0.92990  Biso   1.000  C
  H1       1.0000 0.69470  0.25000  0.07360  Biso   1.000  H
  H2       1.0000 0.30530  0.75000  0.92640  Biso   1.000  H
  C9       1.0000 0.85690  0.25000  0.95690  Biso   1.000  C
  C10      1.0000 0.14310  0.75000  0.04310  Biso   1.000  C
  H3       1.0000 0.76650  0.25000  0.88220  Biso   1.000  H
  H4       1.0000 0.23350  0.75000  0.11780  Biso   1.000  H
  C11      1.0000 0.02840  0.25000  0.94970  Biso   1.000  C
  C12      1.0000 0.97160  0.75000  0.05030  Biso   1.000  C
  H5       1.0000 0.05620  0.25000  0.87180  Biso   1.000  H
  H6       1.0000 0.94380  0.75000  0.12820  Biso   1.000  H
  C13      1.0000 0.15870  0.25000  0.06040  Biso   1.000  C
  C14      1.0000 0.84130  0.75000  0.93960  Biso   1.000  C
  C15      1.0000 0.37210  0.25000  0.74020  Biso   1.000  C
  C16      1.0000 0.62790  0.75000  0.25980  Biso   1.000  C
  H7       1.0000 0.28430  0.32830  0.76750  Biso   1.000  H
  H8       1.0000 0.71570  0.82830  0.23250  Biso   1.000  H
  H9       1.0000 0.71570  0.67170  0.23250  Biso   1.000  H
  H10      1.0000 0.28430  0.17170  0.76750  Biso   1.000  H
  H11      1.0000 0.48720  0.30990  0.77380  Biso   1.000  H
  H12      1.0000 0.51280  0.80990  0.22620  Biso   1.000  H
  H13      1.0000 0.51280  0.69010  0.22620  Biso   1.000  H
  H14      1.0000 0.48720  0.19010  0.77380  Biso   1.000  H
  H15      1.0000 0.37220  0.11180  0.77020  Biso   1.000  H
  H16      1.0000 0.62780  0.61180  0.22980  Biso   1.000  H
  H17      1.0000 0.62780  0.88820  0.22980  Biso   1.000  H
  H18      1.0000 0.37220  0.38820  0.77020  Biso   1.000  H
  H19      1.0000 0.22870  0.28570  0.57860  Biso   1.000  H
  H20      1.0000 0.77130  0.78570  0.42140  Biso   1.000  H
  H21      1.0000 0.77130  0.71430  0.42140  Biso   1.000  H
  H22      1.0000 0.22870  0.21430  0.57860  Biso   1.000  H
