data_image0
_cell_length_a       9.618
_cell_length_b       9.933
_cell_length_c       12.782
_cell_angle_alpha    70.88
_cell_angle_beta     73.7
_cell_angle_gamma    75.6

_symmetry_space_group_name_H-M    "P 1"
_symmetry_int_tables_number       1

loop_
  _symmetry_equiv_pos_as_xyz
  'x, y, z'

loop_
  _atom_site_label
  _atom_site_occupancy
  _atom_site_fract_x
  _atom_site_fract_y
  _atom_site_fract_z
  _atom_site_thermal_displace_type
  _atom_site_B_iso_or_equiv
  _atom_site_type_symbol
  Cu1      1.0000 0.70658  0.83710  0.66541  Biso   1.000  Cu
  Cu2      1.0000 0.29342  0.16290  0.33459  Biso   1.000  Cu
  N1       1.0000 0.75490  0.01357  0.53928  Biso   1.000  N
  N2       1.0000 0.24510  0.98643  0.46072  Biso   1.000  N
  N3       1.0000 0.82870  0.90410  0.73532  Biso   1.000  N
  N4       1.0000 0.17130  0.09590  0.26468  Biso   1.000  N
  C1       1.0000 0.71160  0.06100  0.44090  Biso   1.000  C
  C2       1.0000 0.28840  0.93900  0.55910  Biso   1.000  C
  H1       1.0000 0.65460  0.00820  0.42700  Biso   1.000  H
  H2       1.0000 0.34540  0.99180  0.57300  Biso   1.000  H
  C3       1.0000 0.74790  0.18470  0.35950  Biso   1.000  C
  C4       1.0000 0.25210  0.81530  0.64050  Biso   1.000  C
  H3       1.0000 0.71580  0.21530  0.29190  Biso   1.000  H
  H4       1.0000 0.28420  0.78470  0.70810  Biso   1.000  H
  C5       1.0000 0.83300  0.26280  0.38000  Biso   1.000  C
  C6       1.0000 0.16700  0.73720  0.62000  Biso   1.000  C
  H5       1.0000 0.86060  0.34600  0.32570  Biso   1.000  H
  H6       1.0000 0.13940  0.65400  0.67430  Biso   1.000  H
  C7       1.0000 0.87690  0.21550  0.48270  Biso   1.000  C
  C8       1.0000 0.12310  0.78450  0.51730  Biso   1.000  C
  H7       1.0000 0.93320  0.26720  0.49840  Biso   1.000  H
  H8       1.0000 0.06680  0.73280  0.50160  Biso   1.000  H
  C9       1.0000 0.83550  0.09050  0.56124  Biso   1.000  C
  C10      1.0000 0.16450  0.90950  0.43876  Biso   1.000  C
  C11      1.0000 0.87440  0.02980  0.67366  Biso   1.000  C
  C12      1.0000 0.12560  0.97020  0.32634  Biso   1.000  C
  C13      1.0000 0.94980  0.09630  0.71460  Biso   1.000  C
  C14      1.0000 0.05020  0.90370  0.28540  Biso   1.000  C
  H9       1.0000 0.97970  0.18380  0.67140  Biso   1.000  H
  H10      1.0000 0.02030  0.81620  0.32860  Biso   1.000  H
  C15      1.0000 0.97990  0.02970  0.82140  Biso   1.000  C
  C16      1.0000 0.02010  0.97030  0.17860  Biso   1.000  C
  H11      1.0000 0.02970  0.07270  0.85100  Biso   1.000  H
  H12      1.0000 0.97030  0.92730  0.14900  Biso   1.000  H
  C17      1.0000 0.93590  0.90000  0.88310  Biso   1.000  C
  C18      1.0000 0.06410  0.10000  0.11690  Biso   1.000  C
  H13      1.0000 0.95670  0.85340  0.95440  Biso   1.000  H
  H14      1.0000 0.04330  0.14660  0.04560  Biso   1.000  H
  C19      1.0000 0.86040  0.83950  0.83790  Biso   1.000  C
  C20      1.0000 0.13960  0.16050  0.16210  Biso   1.000  C
  H15      1.0000 0.83050  0.75150  0.87980  Biso   1.000  H
  H16      1.0000 0.16950  0.24850  0.12020  Biso   1.000  H
  O1       1.0000 0.69880  0.65412  0.78248  Biso   1.000  O
  O2       1.0000 0.30120  0.34588  0.21752  Biso   1.000  O
  O3       1.0000 0.46140  0.64265  0.85668  Biso   1.000  O
  O4       1.0000 0.53860  0.35735  0.14332  Biso   1.000  O
  C21      1.0000 0.58990  0.58700  0.82203  Biso   1.000  C
  C22      1.0000 0.41010  0.41300  0.17797  Biso   1.000  C
  C23      1.0000 0.62600  0.42900  0.82480  Biso   1.000  C
  C24      1.0000 0.37400  0.57100  0.17520  Biso   1.000  C
  H17      1.0000 0.68590  0.37740  0.88030  Biso   1.000  H
  H18      1.0000 0.31410  0.62260  0.11970  Biso   1.000  H
  H19      1.0000 0.68470  0.42040  0.75130  Biso   1.000  H
  H20      1.0000 0.31530  0.57960  0.24870  Biso   1.000  H
  C25      1.0000 0.49350  0.35580  0.85344  Biso   1.000  C
  C26      1.0000 0.50650  0.64420  0.14656  Biso   1.000  C
  H21      1.0000 0.44660  0.34410  0.93290  Biso   1.000  H
  H22      1.0000 0.55340  0.65590  0.06710  Biso   1.000  H
  H23      1.0000 0.42300  0.41740  0.80890  Biso   1.000  H
  H24      1.0000 0.57700  0.58260  0.19110  Biso   1.000  H
  C27      1.0000 0.53520  0.20880  0.83019  Biso   1.000  C
  C28      1.0000 0.46480  0.79120  0.16981  Biso   1.000  C
  H25      1.0000 0.61050  0.14920  0.87080  Biso   1.000  H
  H26      1.0000 0.38950  0.85080  0.12920  Biso   1.000  H
  H27      1.0000 0.57600  0.22110  0.74980  Biso   1.000  H
  H28      1.0000 0.42400  0.77890  0.25020  Biso   1.000  H
  C29      1.0000 0.40320  0.13160  0.86640  Biso   1.000  C
  C30      1.0000 0.59680  0.86840  0.13360  Biso   1.000  C
  H29      1.0000 0.37180  0.10630  0.94840  Biso   1.000  H
  H30      1.0000 0.62820  0.89370  0.05160  Biso   1.000  H
  H31      1.0000 0.32240  0.19720  0.83500  Biso   1.000  H
  H32      1.0000 0.67760  0.80280  0.16500  Biso   1.000  H
  C31      1.0000 0.43750  0.99690  0.82806  Biso   1.000  C
  C32      1.0000 0.56250  0.00310  0.17194  Biso   1.000  C
  O5       1.0000 0.49730  0.99361  0.73190  Biso   1.000  O
  O6       1.0000 0.50270  0.00639  0.26810  Biso   1.000  O
  O7       1.0000 0.39580  0.88380  0.90731  Biso   1.000  O
  O8       1.0000 0.60420  0.11620  0.09269  Biso   1.000  O
  O9       1.0000 0.60890  0.77797  0.57960  Biso   1.000  O
  O10      1.0000 0.39110  0.22203  0.42040  Biso   1.000  O
  O11      1.0000 0.82800  0.66940  0.50632  Biso   1.000  O
  O12      1.0000 0.17200  0.33060  0.49368  Biso   1.000  O
  C33      1.0000 0.69270  0.70350  0.51511  Biso   1.000  C
  C34      1.0000 0.30730  0.29650  0.48489  Biso   1.000  C
  C35      1.0000 0.61670  0.65240  0.45010  Biso   1.000  C
  C36      1.0000 0.38330  0.34760  0.54990  Biso   1.000  C
  H33      1.0000 0.68790  0.62280  0.38750  Biso   1.000  H
  H34      1.0000 0.31210  0.37720  0.61250  Biso   1.000  H
  H35      1.0000 0.54340  0.73070  0.41910  Biso   1.000  H
  H36      1.0000 0.45660  0.26930  0.58090  Biso   1.000  H
  C37      1.0000 0.54320  0.52530  0.52932  Biso   1.000  C
  C38      1.0000 0.45680  0.47470  0.47068  Biso   1.000  C
  H37      1.0000 0.61790  0.44570  0.55680  Biso   1.000  H
  H38      1.0000 0.38210  0.55430  0.44320  Biso   1.000  H
  H39      1.0000 0.47740  0.55380  0.59430  Biso   1.000  H
  H40      1.0000 0.52260  0.44620  0.40570  Biso   1.000  H
  H41      1.0000 0.42750  0.82220  0.87790  Biso   1.000  H
  H42      1.0000 0.57250  0.17780  0.12210  Biso   1.000  H
  O13      1.0000 0.04870  0.37450  0.88110  Biso   1.000  O
  O14      1.0000 0.95130  0.62550  0.11890  Biso   1.000  O
  H43      1.0000 0.97890  0.41490  0.91260  Biso   1.000  H
  H44      1.0000 0.02110  0.58510  0.08740  Biso   1.000  H
  H45      1.0000 0.05130  0.39830  0.82320  Biso   1.000  H
  H46      1.0000 0.94870  0.60170  0.17680  Biso   1.000  H
  O15      1.0000 0.00280  0.54740  0.33610  Biso   1.000  O
  O16      1.0000 0.99720  0.45260  0.66390  Biso   1.000  O
  H47      1.0000 0.05840  0.49830  0.34450  Biso   1.000  H
  H48      1.0000 0.94160  0.50170  0.65550  Biso   1.000  H
  H49      1.0000 0.95250  0.57170  0.40040  Biso   1.000  H
  H50      1.0000 0.04750  0.42830  0.59960  Biso   1.000  H
  O17      1.0000 0.16950  0.56600  0.93280  Biso   1.000  O
  O18      1.0000 0.83050  0.43400  0.06720  Biso   1.000  O
  H51      1.0000 0.23890  0.58060  0.91410  Biso   1.000  H
  H52      1.0000 0.76110  0.41940  0.08590  Biso   1.000  H
  H53      1.0000 0.12820  0.60100  0.97940  Biso   1.000  H
  H54      1.0000 0.87180  0.39900  0.02060  Biso   1.000  H
