data_image0
_cell_length_a       9.509
_cell_length_b       9.912
_cell_length_c       12.656
_cell_angle_alpha    70.486
_cell_angle_beta     73.604
_cell_angle_gamma    75.162

_symmetry_space_group_name_H-M    "P 1"
_symmetry_int_tables_number       1

loop_
  _symmetry_equiv_pos_as_xyz
  'x, y, z'

loop_
  _atom_site_label
  _atom_site_occupancy
  _atom_site_fract_x
  _atom_site_fract_y
  _atom_site_fract_z
  _atom_site_thermal_displace_type
  _atom_site_B_iso_or_equiv
  _atom_site_type_symbol
  Cu1      1.0000 0.20714  0.33925  0.66661  Biso   1.000  Cu
  Cu2      1.0000 0.79286  0.66075  0.33339  Biso   1.000  Cu
  O1       1.0000 0.96010  0.14180  0.86026  Biso   1.000  O
  O2       1.0000 0.03990  0.85820  0.13974  Biso   1.000  O
  O3       1.0000 0.32830  0.16810  0.50818  Biso   1.000  O
  O4       1.0000 0.67170  0.83190  0.49182  Biso   1.000  O
  O5       1.0000 0.99720  0.49420  0.73240  Biso   1.000  O
  O6       1.0000 0.00280  0.50580  0.26760  Biso   1.000  O
  O7       1.0000 0.20120  0.15490  0.78608  Biso   1.000  O
  O8       1.0000 0.79880  0.84510  0.21392  Biso   1.000  O
  O9       1.0000 0.10600  0.28070  0.58140  Biso   1.000  O
  O10      1.0000 0.89400  0.71930  0.41860  Biso   1.000  O
  O11      1.0000 0.89450  0.38180  0.91158  Biso   1.000  O
  O12      1.0000 0.10550  0.61820  0.08842  Biso   1.000  O
  N1       1.0000 0.25580  0.51480  0.53735  Biso   1.000  N
  N2       1.0000 0.74420  0.48520  0.46265  Biso   1.000  N
  C1       1.0000 0.90310  0.63140  0.86940  Biso   1.000  C
  C2       1.0000 0.09690  0.36860  0.13060  Biso   1.000  C
  H1       1.0000 0.87350  0.60560  0.95250  Biso   1.000  H
  H2       1.0000 0.12650  0.39440  0.04750  Biso   1.000  H
  H3       1.0000 0.82030  0.69770  0.83870  Biso   1.000  H
  H4       1.0000 0.17970  0.30230  0.16130  Biso   1.000  H
  N3       1.0000 0.33110  0.40630  0.73585  Biso   1.000  N
  N4       1.0000 0.66890  0.59370  0.26415  Biso   1.000  N
  C3       1.0000 0.19080  0.20510  0.51590  Biso   1.000  C
  C4       1.0000 0.80920  0.79490  0.48410  Biso   1.000  C
  C5       1.0000 0.93640  0.49640  0.83110  Biso   1.000  C
  C6       1.0000 0.06360  0.50360  0.16890  Biso   1.000  C
  C7       1.0000 0.37600  0.53360  0.67260  Biso   1.000  C
  C8       1.0000 0.62400  0.46640  0.32740  Biso   1.000  C
  C9       1.0000 0.21240  0.56190  0.43690  Biso   1.000  C
  C10      1.0000 0.78760  0.43810  0.56310  Biso   1.000  C
  H5       1.0000 0.15580  0.50820  0.42320  Biso   1.000  H
  H6       1.0000 0.84420  0.49180  0.57680  Biso   1.000  H
  C11      1.0000 0.99550  0.85550  0.85410  Biso   1.000  C
  C12      1.0000 0.00450  0.14450  0.14590  Biso   1.000  C
  H7       1.0000 0.94870  0.84290  0.93470  Biso   1.000  H
  H8       1.0000 0.05130  0.15710  0.06530  Biso   1.000  H
  H9       1.0000 0.92340  0.91840  0.80960  Biso   1.000  H
  H10      1.0000 0.07660  0.08160  0.19040  Biso   1.000  H
  C13      1.0000 0.37700  0.71930  0.47840  Biso   1.000  C
  C14      1.0000 0.62300  0.28070  0.52160  Biso   1.000  C
  H11      1.0000 0.43280  0.77190  0.49420  Biso   1.000  H
  H12      1.0000 0.56720  0.22810  0.50580  Biso   1.000  H
  C15      1.0000 0.33300  0.76610  0.37390  Biso   1.000  C
  C16      1.0000 0.66700  0.23390  0.62610  Biso   1.000  C
  H13      1.0000 0.36010  0.84990  0.31870  Biso   1.000  H
  H14      1.0000 0.63990  0.15010  0.68130  Biso   1.000  H
  C17      1.0000 0.03720  0.70820  0.83010  Biso   1.000  C
  C18      1.0000 0.96280  0.29180  0.16990  Biso   1.000  C
  H15      1.0000 0.11510  0.64760  0.86970  Biso   1.000  H
  H16      1.0000 0.88490  0.35240  0.13030  Biso   1.000  H
  H17      1.0000 0.07610  0.72140  0.74840  Biso   1.000  H
  H18      1.0000 0.92390  0.27860  0.25160  Biso   1.000  H
  C19      1.0000 0.04380  0.02520  0.52950  Biso   1.000  C
  C20      1.0000 0.95620  0.97480  0.47050  Biso   1.000  C
  H19      1.0000 0.12210  0.94600  0.55480  Biso   1.000  H
  H20      1.0000 0.87790  0.05400  0.44520  Biso   1.000  H
  H21      1.0000 0.97800  0.05030  0.59680  Biso   1.000  H
  H22      1.0000 0.02200  0.94970  0.40320  Biso   1.000  H
  C21      1.0000 0.11300  0.15690  0.44980  Biso   1.000  C
  C22      1.0000 0.88700  0.84310  0.55020  Biso   1.000  C
  H23      1.0000 0.18380  0.13110  0.38450  Biso   1.000  H
  H24      1.0000 0.81620  0.86890  0.61550  Biso   1.000  H
  H25      1.0000 0.03600  0.23550  0.42160  Biso   1.000  H
  H26      1.0000 0.96400  0.76450  0.57840  Biso   1.000  H
  C23      1.0000 0.33620  0.59340  0.55820  Biso   1.000  C
  C24      1.0000 0.66380  0.40660  0.44180  Biso   1.000  C
  C25      1.0000 0.24850  0.68660  0.35320  Biso   1.000  C
  C26      1.0000 0.75150  0.31340  0.64680  Biso   1.000  C
  H27      1.0000 0.21680  0.71660  0.28450  Biso   1.000  H
  H28      1.0000 0.78320  0.28340  0.71550  Biso   1.000  H
  C27      1.0000 0.45160  0.60000  0.71400  Biso   1.000  C
  C28      1.0000 0.54840  0.40000  0.28600  Biso   1.000  C
  H29      1.0000 0.48130  0.68810  0.66980  Biso   1.000  H
  H30      1.0000 0.51870  0.31190  0.33020  Biso   1.000  H
  C29      1.0000 0.36460  0.34190  0.83980  Biso   1.000  C
  C30      1.0000 0.63540  0.65810  0.16020  Biso   1.000  C
  H31      1.0000 0.33570  0.25310  0.88250  Biso   1.000  H
  H32      1.0000 0.66430  0.74690  0.11750  Biso   1.000  H
  C31      1.0000 0.48290  0.53390  0.82240  Biso   1.000  C
  C32      1.0000 0.51710  0.46610  0.17760  Biso   1.000  C
  H33      1.0000 0.53230  0.57800  0.85200  Biso   1.000  H
  H34      1.0000 0.46770  0.42200  0.14800  Biso   1.000  H
  C33      1.0000 0.44010  0.40260  0.88550  Biso   1.000  C
  C34      1.0000 0.55990  0.59740  0.11450  Biso   1.000  C
  H35      1.0000 0.46170  0.35560  0.95760  Biso   1.000  H
  H36      1.0000 0.53830  0.64440  0.04240  Biso   1.000  H
  C35      1.0000 0.09170  0.08640  0.82460  Biso   1.000  C
  C36      1.0000 0.90830  0.91360  0.17540  Biso   1.000  C
  C37      1.0000 0.12960  0.92880  0.82480  Biso   1.000  C
  C38      1.0000 0.87040  0.07120  0.17520  Biso   1.000  C
  H37      1.0000 0.19180  0.87520  0.87980  Biso   1.000  H
  H38      1.0000 0.80820  0.12480  0.12020  Biso   1.000  H
  H39      1.0000 0.18760  0.92250  0.74960  Biso   1.000  H
  H40      1.0000 0.81240  0.07750  0.25040  Biso   1.000  H
  O13      1.0000 0.50060  0.04490  0.33691  Biso   1.000  O
  O14      1.0000 0.49940  0.95510  0.66309  Biso   1.000  O
  H41      1.0000 0.45200  0.08400  0.40100  Biso   1.000  H
  H42      1.0000 0.54800  0.91600  0.59900  Biso   1.000  H
  H43      1.0000 0.56900  0.96700  0.37200  Biso   1.000  H
  H44      1.0000 0.43100  0.03300  0.62800  Biso   1.000  H
  O15      1.0000 0.45240  0.12700  0.11750  Biso   1.000  O
  O16      1.0000 0.54760  0.87300  0.88250  Biso   1.000  O
  H45      1.0000 0.47300  0.10100  0.19000  Biso   1.000  H
  H46      1.0000 0.52700  0.89900  0.81000  Biso   1.000  H
  H47      1.0000 0.42700  0.04800  0.10800  Biso   1.000  H
  H48      1.0000 0.57300  0.95200  0.89200  Biso   1.000  H
  O17      1.0000 0.66900  0.06840  0.93000  Biso   1.000  O
  O18      1.0000 0.33100  0.93160  0.07000  Biso   1.000  O
  H49      1.0000 0.59900  0.06400  0.00100  Biso   1.000  H
  H50      1.0000 0.40100  0.93600  0.99900  Biso   1.000  H
  H51      1.0000 0.77200  0.04300  0.93800  Biso   1.000  H
  H52      1.0000 0.22800  0.95700  0.06200  Biso   1.000  H
