data_image0
_cell_length_a       9.5058
_cell_length_b       9.9341
_cell_length_c       12.646
_cell_angle_alpha    70.508
_cell_angle_beta     73.574
_cell_angle_gamma    75.072

_symmetry_space_group_name_H-M    "P 1"
_symmetry_int_tables_number       1

loop_
  _symmetry_equiv_pos_as_xyz
  'x, y, z'

loop_
  _atom_site_label
  _atom_site_occupancy
  _atom_site_fract_x
  _atom_site_fract_y
  _atom_site_fract_z
  _atom_site_thermal_displace_type
  _atom_site_B_iso_or_equiv
  _atom_site_type_symbol
  Cu1      1.0000 0.20709  0.33931  0.16669  Biso   1.000  Cu
  Cu2      1.0000 0.79291  0.66069  0.83331  Biso   1.000  Cu
  O1       1.0000 0.32888  0.16822  0.00779  Biso   1.000  O
  O2       1.0000 0.67112  0.83178  0.99221  Biso   1.000  O
  O3       1.0000 0.10628  0.28065  0.08118  Biso   1.000  O
  O4       1.0000 0.89372  0.71935  0.91882  Biso   1.000  O
  O5       1.0000 0.96018  0.14196  0.36014  Biso   1.000  O
  O6       1.0000 0.03982  0.85804  0.63986  Biso   1.000  O
  O7       1.0000 0.20109  0.15511  0.28623  Biso   1.000  O
  O8       1.0000 0.79891  0.84489  0.71377  Biso   1.000  O
  O9       1.0000 0.99763  0.49439  0.23215  Biso   1.000  O
  O10      1.0000 0.00237  0.50561  0.76785  Biso   1.000  O
  C1       1.0000 0.99470  0.85557  0.35444  Biso   1.000  C
  C2       1.0000 0.00530  0.14443  0.64556  Biso   1.000  C
  H1       1.0000 0.94800  0.84270  0.43510  Biso   1.000  H
  H2       1.0000 0.05200  0.15730  0.56490  Biso   1.000  H
  H3       1.0000 0.92250  0.91840  0.31000  Biso   1.000  H
  H4       1.0000 0.07750  0.08160  0.69000  Biso   1.000  H
  O11      1.0000 0.89392  0.38236  0.41179  Biso   1.000  O
  O12      1.0000 0.10608  0.61764  0.58821  Biso   1.000  O
  N1       1.0000 0.25601  0.51476  0.03724  Biso   1.000  N
  N2       1.0000 0.74399  0.48524  0.96276  Biso   1.000  N
  N3       1.0000 0.33109  0.40606  0.23608  Biso   1.000  N
  N4       1.0000 0.66891  0.59394  0.76392  Biso   1.000  N
  C3       1.0000 0.19110  0.20535  0.01569  Biso   1.000  C
  C4       1.0000 0.80890  0.79465  0.98431  Biso   1.000  C
  C5       1.0000 0.09192  0.08685  0.32442  Biso   1.000  C
  C6       1.0000 0.90808  0.91315  0.67558  Biso   1.000  C
  C7       1.0000 0.37612  0.53319  0.17268  Biso   1.000  C
  C8       1.0000 0.62388  0.46681  0.82732  Biso   1.000  C
  C9       1.0000 0.33311  0.76575  0.87377  Biso   1.000  C
  C10      1.0000 0.66689  0.23425  0.12623  Biso   1.000  C
  H5       1.0000 0.36040  0.84910  0.81830  Biso   1.000  H
  H6       1.0000 0.63960  0.15090  0.18170  Biso   1.000  H
  C11      1.0000 0.45182  0.60034  0.21358  Biso   1.000  C
  C12      1.0000 0.54818  0.39966  0.78642  Biso   1.000  C
  H7       1.0000 0.48110  0.68820  0.16920  Biso   1.000  H
  H8       1.0000 0.51890  0.31180  0.83080  Biso   1.000  H
  C13      1.0000 0.04382  0.02515  0.02947  Biso   1.000  C
  C14      1.0000 0.95618  0.97485  0.97053  Biso   1.000  C
  H9       1.0000 0.12220  0.94610  0.05490  Biso   1.000  H
  H10      1.0000 0.87780  0.05390  0.94510  Biso   1.000  H
  H11      1.0000 0.97800  0.05050  0.09680  Biso   1.000  H
  H12      1.0000 0.02200  0.94950  0.90320  Biso   1.000  H
  C15      1.0000 0.37714  0.71917  0.97853  Biso   1.000  C
  C16      1.0000 0.62286  0.28083  0.02147  Biso   1.000  C
  H13      1.0000 0.43290  0.77170  0.99430  Biso   1.000  H
  H14      1.0000 0.56710  0.22830  0.00570  Biso   1.000  H
  C17      1.0000 0.33646  0.59334  0.05860  Biso   1.000  C
  C18      1.0000 0.66354  0.40666  0.94140  Biso   1.000  C
  C19      1.0000 0.11332  0.15657  0.94955  Biso   1.000  C
  C20      1.0000 0.88668  0.84343  0.05045  Biso   1.000  C
  H15      1.0000 0.18440  0.13050  0.88430  Biso   1.000  H
  H16      1.0000 0.81560  0.86950  0.11570  Biso   1.000  H
  H17      1.0000 0.03630  0.23490  0.92100  Biso   1.000  H
  H18      1.0000 0.96370  0.76510  0.07900  Biso   1.000  H
  C21      1.0000 0.21206  0.56165  0.93730  Biso   1.000  C
  C22      1.0000 0.78794  0.43835  0.06270  Biso   1.000  C
  H19      1.0000 0.15500  0.50840  0.92370  Biso   1.000  H
  H20      1.0000 0.84500  0.49160  0.07630  Biso   1.000  H
  C23      1.0000 0.12933  0.92848  0.32518  Biso   1.000  C
  C24      1.0000 0.87067  0.07152  0.67482  Biso   1.000  C
  H21      1.0000 0.19130  0.87500  0.38040  Biso   1.000  H
  H22      1.0000 0.80870  0.12500  0.61960  Biso   1.000  H
  H23      1.0000 0.18770  0.92170  0.25000  Biso   1.000  H
  H24      1.0000 0.81230  0.07830  0.75000  Biso   1.000  H
  C25      1.0000 0.36395  0.34135  0.34005  Biso   1.000  C
  C26      1.0000 0.63605  0.65865  0.65995  Biso   1.000  C
  H25      1.0000 0.33460  0.25290  0.38270  Biso   1.000  H
  H26      1.0000 0.66540  0.74710  0.61730  Biso   1.000  H
  C27      1.0000 0.44040  0.40246  0.38581  Biso   1.000  C
  C28      1.0000 0.55960  0.59754  0.61419  Biso   1.000  C
  H27      1.0000 0.46230  0.35570  0.45790  Biso   1.000  H
  H28      1.0000 0.53770  0.64430  0.54210  Biso   1.000  H
  C29      1.0000 0.24852  0.68667  0.85342  Biso   1.000  C
  C30      1.0000 0.75148  0.31333  0.14658  Biso   1.000  C
  H29      1.0000 0.21660  0.71670  0.78470  Biso   1.000  H
  H30      1.0000 0.78340  0.28330  0.21530  Biso   1.000  H
  C31      1.0000 0.48331  0.53419  0.32213  Biso   1.000  C
  C32      1.0000 0.51669  0.46581  0.67787  Biso   1.000  C
  H31      1.0000 0.53280  0.57810  0.35160  Biso   1.000  H
  H32      1.0000 0.46720  0.42190  0.64840  Biso   1.000  H
  C33      1.0000 0.03735  0.70832  0.32976  Biso   1.000  C
  C34      1.0000 0.96265  0.29168  0.67024  Biso   1.000  C
  H33      1.0000 0.11570  0.64800  0.36910  Biso   1.000  H
  H34      1.0000 0.88430  0.35200  0.63090  Biso   1.000  H
  H35      1.0000 0.07580  0.72180  0.24790  Biso   1.000  H
  H36      1.0000 0.92420  0.27820  0.75210  Biso   1.000  H
  C35      1.0000 0.93660  0.49606  0.33085  Biso   1.000  C
  C36      1.0000 0.06340  0.50394  0.66915  Biso   1.000  C
  C37      1.0000 0.90318  0.63150  0.36943  Biso   1.000  C
  C38      1.0000 0.09682  0.36850  0.63057  Biso   1.000  C
  H37      1.0000 0.87390  0.60580  0.45260  Biso   1.000  H
  H38      1.0000 0.12610  0.39420  0.54740  Biso   1.000  H
  H39      1.0000 0.82000  0.69770  0.33900  Biso   1.000  H
  H40      1.0000 0.18000  0.30230  0.66100  Biso   1.000  H
  H41      1.0000 0.91800  0.31400  0.38900  Biso   1.000  H
  H42      1.0000 0.08200  0.68600  0.61100  Biso   1.000  H
  O13      1.0000 0.49952  0.95461  0.16338  Biso   1.000  O
  O14      1.0000 0.50048  0.04539  0.83662  Biso   1.000  O
  H43      1.0000 0.44400  0.01200  0.14000  Biso   1.000  H
  H44      1.0000 0.55600  0.98800  0.86000  Biso   1.000  H
  H45      1.0000 0.55300  0.92300  0.10800  Biso   1.000  H
  H46      1.0000 0.44700  0.07700  0.89200  Biso   1.000  H
  O15      1.0000 0.45352  0.12797  0.61680  Biso   1.000  O
  O16      1.0000 0.54648  0.87203  0.38320  Biso   1.000  O
  H47      1.0000 0.46800  0.09800  0.68200  Biso   1.000  H
  H48      1.0000 0.53200  0.90200  0.31800  Biso   1.000  H
  H49      1.0000 0.42100  0.08100  0.61400  Biso   1.000  H
  H50      1.0000 0.57900  0.91900  0.38600  Biso   1.000  H
  O17      1.0000 0.66894  0.06790  0.42845  Biso   1.000  O
  O18      1.0000 0.33106  0.93210  0.57155  Biso   1.000  O
  H51      1.0000 0.74900  0.07100  0.42200  Biso   1.000  H
  H52      1.0000 0.25100  0.92900  0.57800  Biso   1.000  H
  H53      1.0000 0.62800  0.07600  0.48300  Biso   1.000  H
  H54      1.0000 0.37200  0.92400  0.51700  Biso   1.000  H
