data_image0
_cell_length_a       7.5098
_cell_length_b       8.068
_cell_length_c       22.031
_cell_angle_alpha    92.871
_cell_angle_beta     98.511
_cell_angle_gamma    99.228

_symmetry_space_group_name_H-M    "P 1"
_symmetry_int_tables_number       1

loop_
  _symmetry_equiv_pos_as_xyz
  'x, y, z'

loop_
  _atom_site_label
  _atom_site_occupancy
  _atom_site_fract_x
  _atom_site_fract_y
  _atom_site_fract_z
  _atom_site_thermal_displace_type
  _atom_site_B_iso_or_equiv
  _atom_site_type_symbol
  Cu1      1.0000 0.81059  0.18013  0.42331  Biso   1.000  Cu
  Cu2      1.0000 0.18941  0.81987  0.57669  Biso   1.000  Cu
  Cu3      1.0000 0.15974  0.71491  0.01682  Biso   1.000  Cu
  Cu4      1.0000 0.84026  0.28509  0.98318  Biso   1.000  Cu
  O1       1.0000 0.90350  0.01400  0.37808  Biso   1.000  O
  O2       1.0000 0.09650  0.98600  0.62192  Biso   1.000  O
  O3       1.0000 0.20420  0.10600  0.40437  Biso   1.000  O
  O4       1.0000 0.79580  0.89400  0.59563  Biso   1.000  O
  O5       1.0000 0.08470  0.86100  0.49206  Biso   1.000  O
  O6       1.0000 0.91530  0.13900  0.50794  Biso   1.000  O
  O7       1.0000 0.24050  0.66010  0.50930  Biso   1.000  O
  O8       1.0000 0.75950  0.33990  0.49070  Biso   1.000  O
  O9       1.0000 0.68790  0.81100  0.07216  Biso   1.000  O
  O10      1.0000 0.31210  0.18900  0.92784  Biso   1.000  O
  O11      1.0000 0.59770  0.04640  0.10467  Biso   1.000  O
  O12      1.0000 0.40230  0.95360  0.89533  Biso   1.000  O
  O13      1.0000 0.95870  0.20370  0.05878  Biso   1.000  O
  O14      1.0000 0.04130  0.79630  0.94122  Biso   1.000  O
  O15      1.0000 0.94920  0.40530  0.13073  Biso   1.000  O
  O16      1.0000 0.05080  0.59470  0.86927  Biso   1.000  O
  O17      1.0000 0.54430  0.00810  0.40880  Biso   1.000  O
  O18      1.0000 0.45570  0.99190  0.59120  Biso   1.000  O
  H1       1.0000 0.43900  0.03200  0.40900  Biso   1.000  H
  H2       1.0000 0.56100  0.96800  0.59100  Biso   1.000  H
  H3       1.0000 0.56700  0.91700  0.42300  Biso   1.000  H
  H4       1.0000 0.43300  0.08300  0.57700  Biso   1.000  H
  O19      1.0000 0.39380  0.74620  0.98505  Biso   1.000  O
  O20      1.0000 0.60620  0.25380  0.01495  Biso   1.000  O
  H5       1.0000 0.38800  0.82000  0.95900  Biso   1.000  H
  H6       1.0000 0.61200  0.18000  0.04100  Biso   1.000  H
  H7       1.0000 0.49400  0.77800  0.00900  Biso   1.000  H
  H8       1.0000 0.50600  0.22200  0.99100  Biso   1.000  H
  O21      1.0000 0.20850  0.97810  0.05910  Biso   1.000  O
  O22      1.0000 0.79150  0.02190  0.94090  Biso   1.000  O
  H9       1.0000 0.31700  0.02800  0.06800  Biso   1.000  H
  H10      1.0000 0.68300  0.97200  0.93200  Biso   1.000  H
  H11      1.0000 0.14500  0.05400  0.05200  Biso   1.000  H
  H12      1.0000 0.85500  0.94600  0.94800  Biso   1.000  H
  O23      1.0000 0.92490  0.62280  0.04302  Biso   1.000  O
  O24      1.0000 0.07510  0.37720  0.95698  Biso   1.000  O
  H13      1.0000 0.84900  0.68400  0.05200  Biso   1.000  H
  H14      1.0000 0.15100  0.31600  0.94800  Biso   1.000  H
  H15      1.0000 0.94800  0.56400  0.07270  Biso   1.000  H
  H16      1.0000 0.05200  0.43600  0.92730  Biso   1.000  H
  N1       1.0000 0.72860  0.30060  0.35200  Biso   1.000  N
  N2       1.0000 0.27140  0.69940  0.64800  Biso   1.000  N
  N3       1.0000 0.29530  0.63530  0.09150  Biso   1.000  N
  N4       1.0000 0.70470  0.36470  0.90850  Biso   1.000  N
  C1       1.0000 0.07080  0.99780  0.38430  Biso   1.000  C
  C2       1.0000 0.92920  0.00220  0.61570  Biso   1.000  C
  C3       1.0000 0.09640  0.82260  0.36120  Biso   1.000  C
  C4       1.0000 0.90360  0.17740  0.63880  Biso   1.000  C
  C5       1.0000 0.13750  0.70480  0.40370  Biso   1.000  C
  C6       1.0000 0.86250  0.29520  0.59630  Biso   1.000  C
  C7       1.0000 0.15510  0.74360  0.47150  Biso   1.000  C
  C8       1.0000 0.84490  0.25640  0.52850  Biso   1.000  C
  C9       1.0000 0.15330  0.54470  0.38170  Biso   1.000  C
  C10      1.0000 0.84670  0.45530  0.61830  Biso   1.000  C
  H17      1.0000 0.18670  0.46830  0.40970  Biso   1.000  H
  H18      1.0000 0.81330  0.53170  0.59030  Biso   1.000  H
  C11      1.0000 0.12200  0.49610  0.32110  Biso   1.000  C
  C12      1.0000 0.87800  0.50390  0.67890  Biso   1.000  C
  H19      1.0000 0.12990  0.38680  0.30780  Biso   1.000  H
  H20      1.0000 0.87010  0.61320  0.69220  Biso   1.000  H
  C13      1.0000 0.07790  0.61020  0.27900  Biso   1.000  C
  C14      1.0000 0.92210  0.38980  0.72100  Biso   1.000  C
  H21      1.0000 0.05350  0.57610  0.23720  Biso   1.000  H
  H22      1.0000 0.94650  0.42390  0.76280  Biso   1.000  H
  C15      1.0000 0.06970  0.77480  0.29810  Biso   1.000  C
  C16      1.0000 0.93030  0.22520  0.70190  Biso   1.000  C
  C17      1.0000 0.04130  0.89940  0.25140  Biso   1.000  C
  C18      1.0000 0.95870  0.10060  0.74860  Biso   1.000  C
  C19      1.0000 0.90130  0.86340  0.20050  Biso   1.000  C
  C20      1.0000 0.09870  0.13660  0.79950  Biso   1.000  C
  H23      1.0000 0.82610  0.75860  0.19560  Biso   1.000  H
  H24      1.0000 0.17390  0.24140  0.80440  Biso   1.000  H
  C21      1.0000 0.87150  0.97910  0.15700  Biso   1.000  C
  C22      1.0000 0.12850  0.02090  0.84300  Biso   1.000  C
  C23      1.0000 0.70690  0.94190  0.10640  Biso   1.000  C
  C24      1.0000 0.29310  0.05810  0.89360  Biso   1.000  C
  C25      1.0000 0.98680  0.13410  0.16260  Biso   1.000  C
  C26      1.0000 0.01320  0.86590  0.83740  Biso   1.000  C
  C27      1.0000 0.96200  0.26010  0.11480  Biso   1.000  C
  C28      1.0000 0.03800  0.73990  0.88520  Biso   1.000  C
  C29      1.0000 0.13020  0.16810  0.21100  Biso   1.000  C
  C30      1.0000 0.86980  0.83190  0.78900  Biso   1.000  C
  H25      1.0000 0.21000  0.27010  0.21440  Biso   1.000  H
  H26      1.0000 0.79000  0.72990  0.78560  Biso   1.000  H
  C31      1.0000 0.15730  0.05330  0.25450  Biso   1.000  C
  C32      1.0000 0.84270  0.94670  0.74550  Biso   1.000  C
  H27      1.0000 0.25530  0.07960  0.28640  Biso   1.000  H
  H28      1.0000 0.74470  0.92040  0.71360  Biso   1.000  H
  C33      1.0000 0.70610  0.22410  0.29540  Biso   1.000  C
  C34      1.0000 0.29390  0.77590  0.70460  Biso   1.000  C
  H29      1.0000 0.73930  0.11850  0.29080  Biso   1.000  H
  H30      1.0000 0.26070  0.88150  0.70920  Biso   1.000  H
  C35      1.0000 0.68280  0.45370  0.35740  Biso   1.000  C
  C36      1.0000 0.31720  0.54630  0.64260  Biso   1.000  C
  H31      1.0000 0.69940  0.50920  0.39630  Biso   1.000  H
  H32      1.0000 0.30060  0.49080  0.60370  Biso   1.000  H
  C37      1.0000 0.63620  0.29540  0.24410  Biso   1.000  C
  C38      1.0000 0.36380  0.70460  0.75590  Biso   1.000  C
  H33      1.0000 0.62300  0.23820  0.20550  Biso   1.000  H
  H34      1.0000 0.37700  0.76180  0.79450  Biso   1.000  H
  C39      1.0000 0.61190  0.53240  0.30750  Biso   1.000  C
  C40      1.0000 0.38810  0.46760  0.69250  Biso   1.000  C
  H35      1.0000 0.58250  0.63920  0.31320  Biso   1.000  H
  H36      1.0000 0.41750  0.36080  0.68680  Biso   1.000  H
  C41      1.0000 0.58480  0.45260  0.24920  Biso   1.000  C
  C42      1.0000 0.41520  0.54740  0.75080  Biso   1.000  C
  C43      1.0000 0.49380  0.52400  0.19440  Biso   1.000  C
  C44      1.0000 0.50620  0.47600  0.80560  Biso   1.000  C
  C45      1.0000 0.48020  0.44600  0.13550  Biso   1.000  C
  C46      1.0000 0.51980  0.55400  0.86450  Biso   1.000  C
  H37      1.0000 0.53800  0.35400  0.12980  Biso   1.000  H
  H38      1.0000 0.46200  0.64600  0.87020  Biso   1.000  H
  C47      1.0000 0.41120  0.66490  0.19900  Biso   1.000  C
  C48      1.0000 0.58880  0.33510  0.80100  Biso   1.000  C
  H39      1.0000 0.42110  0.72510  0.23680  Biso   1.000  H
  H40      1.0000 0.57890  0.27490  0.76320  Biso   1.000  H
  C49      1.0000 0.38190  0.50480  0.08620  Biso   1.000  C
  C50      1.0000 0.61810  0.49520  0.91380  Biso   1.000  C
  H41      1.0000 0.37530  0.45140  0.04730  Biso   1.000  H
  H42      1.0000 0.62470  0.54860  0.95270  Biso   1.000  H
  C51      1.0000 0.31540  0.71430  0.14760  Biso   1.000  C
  C52      1.0000 0.68460  0.28570  0.85240  Biso   1.000  C
  H43      1.0000 0.26060  0.80890  0.15170  Biso   1.000  H
  H44      1.0000 0.73940  0.19110  0.84830  Biso   1.000  H
  O25      1.0000 0.37330  0.26860  0.52910  Biso   1.000  O
  O26      1.0000 0.62670  0.73140  0.47090  Biso   1.000  O
  H45      1.0000 0.43800  0.31500  0.50400  Biso   1.000  H
  H46      1.0000 0.56200  0.68500  0.49600  Biso   1.000  H
  H47      1.0000 0.27200  0.22700  0.50700  Biso   1.000  H
  H48      1.0000 0.72800  0.77300  0.49300  Biso   1.000  H
