data_image0
_cell_length_a       7.709
_cell_length_b       15.49
_cell_length_c       8.172
_cell_angle_alpha    90
_cell_angle_beta     105.51
_cell_angle_gamma    90

_symmetry_space_group_name_H-M    "P 1"
_symmetry_int_tables_number       1

loop_
  _symmetry_equiv_pos_as_xyz
  'x, y, z'

loop_
  _atom_site_label
  _atom_site_occupancy
  _atom_site_fract_x
  _atom_site_fract_y
  _atom_site_fract_z
  _atom_site_thermal_displace_type
  _atom_site_B_iso_or_equiv
  _atom_site_type_symbol
  Cu1      1.0000 0.86681  0.00000  0.86019  Biso   1.000  Cu
  Cu2      1.0000 0.86681  0.50000  0.36019  Biso   1.000  Cu
  Cu3      1.0000 0.13319  0.00000  0.13981  Biso   1.000  Cu
  Cu4      1.0000 0.13319  0.50000  0.63981  Biso   1.000  Cu
  O1       1.0000 0.00690  0.90980  0.78090  Biso   1.000  O
  O2       1.0000 0.00690  0.40980  0.28090  Biso   1.000  O
  O3       1.0000 0.99310  0.90980  0.21910  Biso   1.000  O
  O4       1.0000 0.99310  0.40980  0.71910  Biso   1.000  O
  O5       1.0000 0.99310  0.09020  0.21910  Biso   1.000  O
  O6       1.0000 0.99310  0.59020  0.71910  Biso   1.000  O
  O7       1.0000 0.00690  0.09020  0.78090  Biso   1.000  O
  O8       1.0000 0.00690  0.59020  0.28090  Biso   1.000  O
  O9       1.0000 0.77190  0.09100  0.98130  Biso   1.000  O
  O10      1.0000 0.77190  0.59100  0.48130  Biso   1.000  O
  O11      1.0000 0.22810  0.09100  0.01870  Biso   1.000  O
  O12      1.0000 0.22810  0.59100  0.51870  Biso   1.000  O
  O13      1.0000 0.22810  0.90900  0.01870  Biso   1.000  O
  O14      1.0000 0.22810  0.40900  0.51870  Biso   1.000  O
  O15      1.0000 0.77190  0.90900  0.98130  Biso   1.000  O
  O16      1.0000 0.77190  0.40900  0.48130  Biso   1.000  O
  N1       1.0000 0.63750  0.00000  0.63330  Biso   1.000  N
  N2       1.0000 0.63750  0.50000  0.13330  Biso   1.000  N
  N3       1.0000 0.36250  0.00000  0.36670  Biso   1.000  N
  N4       1.0000 0.36250  0.50000  0.86670  Biso   1.000  N
  C1       1.0000 0.15070  0.88170  0.87330  Biso   1.000  C
  C2       1.0000 0.15070  0.38170  0.37330  Biso   1.000  C
  C3       1.0000 0.84930  0.88170  0.12670  Biso   1.000  C
  C4       1.0000 0.84930  0.38170  0.62670  Biso   1.000  C
  C5       1.0000 0.84930  0.11830  0.12670  Biso   1.000  C
  C6       1.0000 0.84930  0.61830  0.62670  Biso   1.000  C
  C7       1.0000 0.15070  0.11830  0.87330  Biso   1.000  C
  C8       1.0000 0.15070  0.61830  0.37330  Biso   1.000  C
  C9       1.0000 0.23140  0.80230  0.80840  Biso   1.000  C
  C10      1.0000 0.23140  0.30230  0.30840  Biso   1.000  C
  C11      1.0000 0.76860  0.80230  0.19160  Biso   1.000  C
  C12      1.0000 0.76860  0.30230  0.69160  Biso   1.000  C
  C13      1.0000 0.76860  0.19770  0.19160  Biso   1.000  C
  C14      1.0000 0.76860  0.69770  0.69160  Biso   1.000  C
  C15      1.0000 0.23140  0.19770  0.80840  Biso   1.000  C
  C16      1.0000 0.23140  0.69770  0.30840  Biso   1.000  C
  C17      1.0000 0.67810  0.04400  0.48450  Biso   1.000  C
  C18      1.0000 0.67810  0.54400  0.98450  Biso   1.000  C
  C19      1.0000 0.32190  0.04400  0.51550  Biso   1.000  C
  C20      1.0000 0.32190  0.54400  0.01550  Biso   1.000  C
  C21      1.0000 0.32190  0.95600  0.51550  Biso   1.000  C
  C22      1.0000 0.32190  0.45600  0.01550  Biso   1.000  C
  C23      1.0000 0.67810  0.95600  0.48450  Biso   1.000  C
  C24      1.0000 0.67810  0.45600  0.98450  Biso   1.000  C
  C25      1.0000 0.57960  0.08740  0.57360  Biso   1.000  C
  C26      1.0000 0.57960  0.58740  0.07360  Biso   1.000  C
  C27      1.0000 0.42040  0.08740  0.42640  Biso   1.000  C
  C28      1.0000 0.42040  0.58740  0.92640  Biso   1.000  C
  C29      1.0000 0.42040  0.91260  0.42640  Biso   1.000  C
  C30      1.0000 0.42040  0.41260  0.92640  Biso   1.000  C
  C31      1.0000 0.57960  0.91260  0.57360  Biso   1.000  C
  C32      1.0000 0.57960  0.41260  0.07360  Biso   1.000  C
  C33      1.0000 0.48120  0.04660  0.66690  Biso   1.000  C
  C34      1.0000 0.48120  0.54660  0.16690  Biso   1.000  C
  C35      1.0000 0.51880  0.04660  0.33310  Biso   1.000  C
  C36      1.0000 0.51880  0.54660  0.83310  Biso   1.000  C
  C37      1.0000 0.51880  0.95340  0.33310  Biso   1.000  C
  C38      1.0000 0.51880  0.45340  0.83310  Biso   1.000  C
  C39      1.0000 0.48120  0.95340  0.66690  Biso   1.000  C
  C40      1.0000 0.48120  0.45340  0.16690  Biso   1.000  C
