data_image0
_cell_length_a       6.4592
_cell_length_b       7.6431
_cell_length_c       25.592
_cell_angle_alpha    90
_cell_angle_beta     91.39
_cell_angle_gamma    90

_symmetry_space_group_name_H-M    "P 1"
_symmetry_int_tables_number       1

loop_
  _symmetry_equiv_pos_as_xyz
  'x, y, z'

loop_
  _atom_site_label
  _atom_site_occupancy
  _atom_site_fract_x
  _atom_site_fract_y
  _atom_site_fract_z
  _atom_site_thermal_displace_type
  _atom_site_B_iso_or_equiv
  _atom_site_type_symbol
  Cu1      1.0000 0.27614  0.72568  0.09845  Biso   1.000  Cu
  Cu2      1.0000 0.72386  0.22568  0.40155  Biso   1.000  Cu
  Cu3      1.0000 0.72386  0.27432  0.90155  Biso   1.000  Cu
  Cu4      1.0000 0.27614  0.77432  0.59845  Biso   1.000  Cu
  Cu5      1.0000 0.00000  0.50000  0.00000  Biso   1.000  Cu
  Cu6      1.0000 0.00000  0.00000  0.50000  Biso   1.000  Cu
  O1       1.0000 0.54090  0.77380  0.06524  Biso   1.000  O
  O2       1.0000 0.45910  0.27380  0.43476  Biso   1.000  O
  O3       1.0000 0.45910  0.22620  0.93476  Biso   1.000  O
  O4       1.0000 0.54090  0.72620  0.56524  Biso   1.000  O
  O5       1.0000 0.77550  0.97970  0.05058  Biso   1.000  O
  O6       1.0000 0.22450  0.47970  0.44942  Biso   1.000  O
  O7       1.0000 0.22450  0.02030  0.94942  Biso   1.000  O
  O8       1.0000 0.77550  0.52030  0.55058  Biso   1.000  O
  O9       1.0000 0.02190  0.68720  0.13247  Biso   1.000  O
  O10      1.0000 0.97810  0.18720  0.36753  Biso   1.000  O
  O11      1.0000 0.97810  0.31280  0.86753  Biso   1.000  O
  O12      1.0000 0.02190  0.81280  0.63247  Biso   1.000  O
  O13      1.0000 0.43400  0.41630  0.13660  Biso   1.000  O
  O14      1.0000 0.56600  0.91630  0.36340  Biso   1.000  O
  O15      1.0000 0.56600  0.58370  0.86340  Biso   1.000  O
  O16      1.0000 0.43400  0.08370  0.63660  Biso   1.000  O
  O17      1.0000 0.26710  0.48870  0.06480  Biso   1.000  O
  O18      1.0000 0.73290  0.98870  0.43520  Biso   1.000  O
  O19      1.0000 0.73290  0.51130  0.93520  Biso   1.000  O
  O20      1.0000 0.26710  0.01130  0.56480  Biso   1.000  O
  O21      1.0000 0.05680  0.76110  0.01013  Biso   1.000  O
  O22      1.0000 0.94320  0.26110  0.48987  Biso   1.000  O
  O23      1.0000 0.94320  0.23890  0.98987  Biso   1.000  O
  O24      1.0000 0.05680  0.73890  0.51013  Biso   1.000  O
  O25      1.0000 0.80970  0.50270  0.05719  Biso   1.000  O
  O26      1.0000 0.19030  0.00270  0.44281  Biso   1.000  O
  O27      1.0000 0.19030  0.49730  0.94281  Biso   1.000  O
  O28      1.0000 0.80970  0.99730  0.55719  Biso   1.000  O
  N1       1.0000 0.30690  0.96360  0.12240  Biso   1.000  N
  N2       1.0000 0.69310  0.46360  0.37760  Biso   1.000  N
  N3       1.0000 0.69310  0.03640  0.87760  Biso   1.000  N
  N4       1.0000 0.30690  0.53640  0.62240  Biso   1.000  N
  C1       1.0000 0.61150  0.92990  0.06980  Biso   1.000  C
  C2       1.0000 0.38850  0.42990  0.43020  Biso   1.000  C
  C3       1.0000 0.38850  0.07010  0.93020  Biso   1.000  C
  C4       1.0000 0.61150  0.57010  0.56980  Biso   1.000  C
  C5       1.0000 0.48420  0.05950  0.10070  Biso   1.000  C
  C6       1.0000 0.51580  0.55950  0.39930  Biso   1.000  C
  C7       1.0000 0.51580  0.94050  0.89930  Biso   1.000  C
  C8       1.0000 0.48420  0.44050  0.60070  Biso   1.000  C
  H1       1.0000 0.57180  0.10670  0.13020  Biso   1.000  H
  H2       1.0000 0.42820  0.60670  0.36980  Biso   1.000  H
  H3       1.0000 0.42820  0.89330  0.86980  Biso   1.000  H
  H4       1.0000 0.57180  0.39330  0.63020  Biso   1.000  H
  C9       1.0000 0.41320  0.20910  0.06650  Biso   1.000  C
  C10      1.0000 0.58680  0.70910  0.43350  Biso   1.000  C
  C11      1.0000 0.58680  0.79090  0.93350  Biso   1.000  C
  C12      1.0000 0.41320  0.29090  0.56650  Biso   1.000  C
  H5       1.0000 0.52040  0.23030  0.04030  Biso   1.000  H
  H6       1.0000 0.47960  0.73030  0.45970  Biso   1.000  H
  H7       1.0000 0.47960  0.76970  0.95970  Biso   1.000  H
  H8       1.0000 0.52040  0.26970  0.54030  Biso   1.000  H
  H9       1.0000 0.28560  0.17230  0.04730  Biso   1.000  H
  H10      1.0000 0.71440  0.67230  0.45270  Biso   1.000  H
  H11      1.0000 0.71440  0.82770  0.95270  Biso   1.000  H
  H12      1.0000 0.28560  0.32770  0.54730  Biso   1.000  H
  C13      1.0000 0.37020  0.37820  0.09330  Biso   1.000  C
  C14      1.0000 0.62980  0.87820  0.40670  Biso   1.000  C
  C15      1.0000 0.62980  0.62180  0.90670  Biso   1.000  C
  C16      1.0000 0.37020  0.12180  0.59330  Biso   1.000  C
  C17      1.0000 0.19310  0.03470  0.15690  Biso   1.000  C
  C18      1.0000 0.80690  0.53470  0.34310  Biso   1.000  C
  C19      1.0000 0.80690  0.96530  0.84310  Biso   1.000  C
  C20      1.0000 0.19310  0.46530  0.65690  Biso   1.000  C
  C21      1.0000 0.01360  0.95840  0.17990  Biso   1.000  C
  C22      1.0000 0.98640  0.45840  0.32010  Biso   1.000  C
  C23      1.0000 0.98640  0.04160  0.82010  Biso   1.000  C
  C24      1.0000 0.01360  0.54160  0.67990  Biso   1.000  C
  C25      1.0000 0.91530  0.05850  0.21860  Biso   1.000  C
  C26      1.0000 0.08470  0.55850  0.28140  Biso   1.000  C
  C27      1.0000 0.08470  0.94150  0.78140  Biso   1.000  C
  C28      1.0000 0.91530  0.44150  0.71860  Biso   1.000  C
  H13      1.0000 0.96950  0.17010  0.22790  Biso   1.000  H
  H14      1.0000 0.03050  0.67010  0.27210  Biso   1.000  H
  H15      1.0000 0.03050  0.82990  0.77210  Biso   1.000  H
  H16      1.0000 0.96950  0.32990  0.72790  Biso   1.000  H
  C29      1.0000 0.74290  0.99710  0.24290  Biso   1.000  C
  C30      1.0000 0.25710  0.49710  0.25710  Biso   1.000  C
  C31      1.0000 0.25710  0.00290  0.75710  Biso   1.000  C
  C32      1.0000 0.74290  0.50290  0.74290  Biso   1.000  C
  H17      1.0000 0.68160  0.06320  0.26990  Biso   1.000  H
  H18      1.0000 0.31840  0.56320  0.23010  Biso   1.000  H
  H19      1.0000 0.31840  0.93680  0.73010  Biso   1.000  H
  H20      1.0000 0.68160  0.43680  0.76990  Biso   1.000  H
  C33      1.0000 0.66040  0.83980  0.22780  Biso   1.000  C
  C34      1.0000 0.33960  0.33980  0.27220  Biso   1.000  C
  C35      1.0000 0.33960  0.16020  0.77220  Biso   1.000  C
  C36      1.0000 0.66040  0.66020  0.72780  Biso   1.000  C
  H21      1.0000 0.53860  0.79940  0.24400  Biso   1.000  H
  H22      1.0000 0.46140  0.29940  0.25600  Biso   1.000  H
  H23      1.0000 0.46140  0.20060  0.75600  Biso   1.000  H
  H24      1.0000 0.53860  0.70060  0.74400  Biso   1.000  H
  C37      1.0000 0.74870  0.73800  0.18980  Biso   1.000  C
  C38      1.0000 0.25130  0.23800  0.31020  Biso   1.000  C
  C39      1.0000 0.25130  0.26200  0.81020  Biso   1.000  C
  C40      1.0000 0.74870  0.76200  0.68980  Biso   1.000  C
  H25      1.0000 0.68520  0.63090  0.17950  Biso   1.000  H
  H26      1.0000 0.31480  0.13090  0.32050  Biso   1.000  H
  H27      1.0000 0.31480  0.36910  0.82050  Biso   1.000  H
  H28      1.0000 0.68520  0.86910  0.67950  Biso   1.000  H
  C41      1.0000 0.93440  0.79310  0.16600  Biso   1.000  C
  C42      1.0000 0.06560  0.29310  0.33400  Biso   1.000  C
  C43      1.0000 0.06560  0.20690  0.83400  Biso   1.000  C
  C44      1.0000 0.93440  0.70690  0.66600  Biso   1.000  C
  H29      1.0000 0.24340  0.13000  0.16720  Biso   1.000  H
  H30      1.0000 0.75660  0.63000  0.33280  Biso   1.000  H
  H31      1.0000 0.75660  0.87000  0.83280  Biso   1.000  H
  H32      1.0000 0.24340  0.37000  0.66720  Biso   1.000  H
  H33      1.0000 0.96310  0.80550  0.01620  Biso   1.000  H
  H34      1.0000 0.03690  0.30550  0.48380  Biso   1.000  H
  H35      1.0000 0.03690  0.19450  0.98380  Biso   1.000  H
  H36      1.0000 0.96310  0.69450  0.51620  Biso   1.000  H
  H37      1.0000 0.15570  0.80440  0.02730  Biso   1.000  H
  H38      1.0000 0.84430  0.30440  0.47270  Biso   1.000  H
  H39      1.0000 0.84430  0.19560  0.97270  Biso   1.000  H
  H40      1.0000 0.15570  0.69560  0.52730  Biso   1.000  H
  H41      1.0000 0.71330  0.57920  0.05420  Biso   1.000  H
  H42      1.0000 0.28670  0.07920  0.44580  Biso   1.000  H
  H43      1.0000 0.28670  0.42080  0.94580  Biso   1.000  H
  H44      1.0000 0.71330  0.92080  0.55420  Biso   1.000  H
  H45      1.0000 0.88870  0.53150  0.08560  Biso   1.000  H
  H46      1.0000 0.11130  0.03150  0.41440  Biso   1.000  H
  H47      1.0000 0.11130  0.46850  0.91440  Biso   1.000  H
  H48      1.0000 0.88870  0.96850  0.58560  Biso   1.000  H
  O29      1.0000 0.88900  0.37300  0.14180  Biso   1.000  O
  O30      1.0000 0.11100  0.87300  0.35820  Biso   1.000  O
  O31      1.0000 0.11100  0.62700  0.85820  Biso   1.000  O
  O32      1.0000 0.88900  0.12700  0.64180  Biso   1.000  O
