data_image0
_cell_length_a       10.6397
_cell_length_b       10.0825
_cell_length_c       23.8075
_cell_angle_alpha    90
_cell_angle_beta     91.022
_cell_angle_gamma    90

_symmetry_space_group_name_H-M    "P 1"
_symmetry_int_tables_number       1

loop_
  _symmetry_equiv_pos_as_xyz
  'x, y, z'

loop_
  _atom_site_label
  _atom_site_occupancy
  _atom_site_fract_x
  _atom_site_fract_y
  _atom_site_fract_z
  _atom_site_thermal_displace_type
  _atom_site_B_iso_or_equiv
  _atom_site_type_symbol
  Cu1      1.0000 0.26799  0.95065  0.90598  Biso   1.000  Cu
  Cu2      1.0000 0.73201  0.45065  0.59402  Biso   1.000  Cu
  Cu3      1.0000 0.73201  0.04935  0.09402  Biso   1.000  Cu
  Cu4      1.0000 0.26799  0.54935  0.40598  Biso   1.000  Cu
  Cu5      1.0000 0.39724  0.87914  0.11641  Biso   1.000  Cu
  Cu6      1.0000 0.60276  0.37914  0.38359  Biso   1.000  Cu
  Cu7      1.0000 0.60276  0.12086  0.88359  Biso   1.000  Cu
  Cu8      1.0000 0.39724  0.62086  0.61641  Biso   1.000  Cu
  O1       1.0000 0.28761  0.99599  0.07169  Biso   1.000  O
  O2       1.0000 0.71239  0.49599  0.42831  Biso   1.000  O
  O3       1.0000 0.71239  0.00401  0.92831  Biso   1.000  O
  O4       1.0000 0.28761  0.50401  0.57169  Biso   1.000  O
  O5       1.0000 0.41970  0.79308  0.04384  Biso   1.000  O
  O6       1.0000 0.58030  0.29308  0.45616  Biso   1.000  O
  O7       1.0000 0.58030  0.20692  0.95616  Biso   1.000  O
  O8       1.0000 0.41970  0.70692  0.54384  Biso   1.000  O
  O9       1.0000 0.34350  0.16090  0.89239  Biso   1.000  O
  O10      1.0000 0.65650  0.66090  0.60761  Biso   1.000  O
  O11      1.0000 0.65650  0.83910  0.10761  Biso   1.000  O
  O12      1.0000 0.34350  0.33910  0.39239  Biso   1.000  O
  O13      1.0000 0.50023  0.24936  0.84525  Biso   1.000  O
  O14      1.0000 0.49977  0.74936  0.65475  Biso   1.000  O
  O15      1.0000 0.49977  0.75064  0.15475  Biso   1.000  O
  O16      1.0000 0.50023  0.25064  0.34525  Biso   1.000  O
  O17      1.0000 0.37469  0.52120  0.68372  Biso   1.000  O
  O18      1.0000 0.62531  0.02120  0.81628  Biso   1.000  O
  O19      1.0000 0.62531  0.47880  0.31628  Biso   1.000  O
  O20      1.0000 0.37469  0.97880  0.18372  Biso   1.000  O
  O21      1.0000 0.21750  0.66330  0.68992  Biso   1.000  O
  O22      1.0000 0.78250  0.16330  0.81008  Biso   1.000  O
  O23      1.0000 0.78250  0.33670  0.31008  Biso   1.000  O
  O24      1.0000 0.21750  0.83670  0.18992  Biso   1.000  O
  N1       1.0000 0.21859  0.01980  0.97921  Biso   1.000  N
  N2       1.0000 0.78141  0.51980  0.52079  Biso   1.000  N
  N3       1.0000 0.78141  0.98020  0.02079  Biso   1.000  N
  N4       1.0000 0.21859  0.48020  0.47921  Biso   1.000  N
  N5       1.0000 0.38789  0.83750  0.94912  Biso   1.000  N
  N6       1.0000 0.61211  0.33750  0.55088  Biso   1.000  N
  N7       1.0000 0.61211  0.16250  0.05088  Biso   1.000  N
  N8       1.0000 0.38789  0.66250  0.44912  Biso   1.000  N
  N9       1.0000 0.32780  0.88990  0.83328  Biso   1.000  N
  N10      1.0000 0.67220  0.38990  0.66672  Biso   1.000  N
  N11      1.0000 0.67220  0.11010  0.16672  Biso   1.000  N
  N12      1.0000 0.32780  0.61010  0.33328  Biso   1.000  N
  N13      1.0000 0.09840  0.98470  0.87444  Biso   1.000  N
  N14      1.0000 0.90160  0.48470  0.62556  Biso   1.000  N
  N15      1.0000 0.90160  0.01530  0.12556  Biso   1.000  N
  N16      1.0000 0.09840  0.51530  0.37444  Biso   1.000  N
  C1       1.0000 0.28630  0.96860  0.01983  Biso   1.000  C
  C2       1.0000 0.71370  0.46860  0.48017  Biso   1.000  C
  C3       1.0000 0.71370  0.03140  0.98017  Biso   1.000  C
  C4       1.0000 0.28630  0.53140  0.51983  Biso   1.000  C
  C5       1.0000 0.37350  0.85640  0.00303  Biso   1.000  C
  C6       1.0000 0.62650  0.35640  0.49697  Biso   1.000  C
  C7       1.0000 0.62650  0.14360  0.99697  Biso   1.000  C
  C8       1.0000 0.37350  0.64360  0.50303  Biso   1.000  C
  C9       1.0000 0.46840  0.73810  0.92764  Biso   1.000  C
  C10      1.0000 0.53160  0.23810  0.57236  Biso   1.000  C
  C11      1.0000 0.53160  0.26190  0.07236  Biso   1.000  C
  C12      1.0000 0.46840  0.76190  0.42764  Biso   1.000  C
  C13      1.0000 0.54200  0.65500  0.96088  Biso   1.000  C
  C14      1.0000 0.45800  0.15500  0.53912  Biso   1.000  C
  C15      1.0000 0.45800  0.34500  0.03912  Biso   1.000  C
  C16      1.0000 0.54200  0.84500  0.46088  Biso   1.000  C
  H1       1.0000 0.54020  0.66420  0.99970  Biso   1.000  H
  H2       1.0000 0.45980  0.16420  0.50030  Biso   1.000  H
  H3       1.0000 0.45980  0.33580  0.00030  Biso   1.000  H
  H4       1.0000 0.54020  0.83580  0.49970  Biso   1.000  H
  C17      1.0000 0.61800  0.55890  0.93785  Biso   1.000  C
  C18      1.0000 0.38200  0.05890  0.56215  Biso   1.000  C
  C19      1.0000 0.38200  0.44110  0.06215  Biso   1.000  C
  C20      1.0000 0.61800  0.94110  0.43785  Biso   1.000  C
  H5       1.0000 0.66540  0.50410  0.96140  Biso   1.000  H
  H6       1.0000 0.33460  0.00410  0.53860  Biso   1.000  H
  H7       1.0000 0.33460  0.49590  0.03860  Biso   1.000  H
  H8       1.0000 0.66540  0.99590  0.46140  Biso   1.000  H
  C21      1.0000 0.62470  0.54330  0.88095  Biso   1.000  C
  C22      1.0000 0.37530  0.04330  0.61905  Biso   1.000  C
  C23      1.0000 0.37530  0.45670  0.11905  Biso   1.000  C
  C24      1.0000 0.62470  0.95670  0.38095  Biso   1.000  C
  H9       1.0000 0.67580  0.47830  0.86560  Biso   1.000  H
  H10      1.0000 0.32420  0.97830  0.63440  Biso   1.000  H
  H11      1.0000 0.32420  0.52170  0.13440  Biso   1.000  H
  H12      1.0000 0.67580  0.02170  0.36560  Biso   1.000  H
  C25      1.0000 0.55490  0.62510  0.84714  Biso   1.000  C
  C26      1.0000 0.44510  0.12510  0.65286  Biso   1.000  C
  C27      1.0000 0.44510  0.37490  0.15286  Biso   1.000  C
  C28      1.0000 0.55490  0.87490  0.34714  Biso   1.000  C
  H13      1.0000 0.56010  0.61560  0.80840  Biso   1.000  H
  H14      1.0000 0.43990  0.11560  0.69160  Biso   1.000  H
  H15      1.0000 0.43990  0.38440  0.19160  Biso   1.000  H
  H16      1.0000 0.56010  0.88440  0.30840  Biso   1.000  H
  C29      1.0000 0.47540  0.72300  0.86868  Biso   1.000  C
  C30      1.0000 0.52460  0.22300  0.63132  Biso   1.000  C
  C31      1.0000 0.52460  0.27700  0.13132  Biso   1.000  C
  C32      1.0000 0.47540  0.77700  0.36868  Biso   1.000  C
  C33      1.0000 0.40960  0.80060  0.82659  Biso   1.000  C
  C34      1.0000 0.59040  0.30060  0.67341  Biso   1.000  C
  C35      1.0000 0.59040  0.19940  0.17341  Biso   1.000  C
  C36      1.0000 0.40960  0.69940  0.32659  Biso   1.000  C
  H17      1.0000 0.43010  0.78240  0.78960  Biso   1.000  H
  H18      1.0000 0.56990  0.28240  0.71040  Biso   1.000  H
  H19      1.0000 0.56990  0.21760  0.21040  Biso   1.000  H
  H20      1.0000 0.43010  0.71760  0.28960  Biso   1.000  H
  C37      1.0000 0.28180  0.96030  0.78299  Biso   1.000  C
  C38      1.0000 0.71820  0.46030  0.71701  Biso   1.000  C
  C39      1.0000 0.71820  0.03970  0.21701  Biso   1.000  C
  C40      1.0000 0.28180  0.53970  0.28299  Biso   1.000  C
  H21      1.0000 0.32340  0.92450  0.75040  Biso   1.000  H
  H22      1.0000 0.67660  0.42450  0.74960  Biso   1.000  H
  H23      1.0000 0.67660  0.07550  0.24960  Biso   1.000  H
  H24      1.0000 0.32340  0.57550  0.25040  Biso   1.000  H
  H25      1.0000 0.30460  0.05310  0.78620  Biso   1.000  H
  H26      1.0000 0.69540  0.55310  0.71380  Biso   1.000  H
  H27      1.0000 0.69540  0.94690  0.21380  Biso   1.000  H
  H28      1.0000 0.30460  0.44690  0.28620  Biso   1.000  H
  C41      1.0000 0.14190  0.95000  0.77386  Biso   1.000  C
  C42      1.0000 0.85810  0.45000  0.72614  Biso   1.000  C
  C43      1.0000 0.85810  0.05000  0.22614  Biso   1.000  C
  C44      1.0000 0.14190  0.55000  0.27386  Biso   1.000  C
  H29      1.0000 0.12630  0.88590  0.74420  Biso   1.000  H
  H30      1.0000 0.87370  0.38590  0.75580  Biso   1.000  H
  H31      1.0000 0.87370  0.11410  0.25580  Biso   1.000  H
  H32      1.0000 0.12630  0.61410  0.24420  Biso   1.000  H
  H33      1.0000 0.11180  0.03520  0.76030  Biso   1.000  H
  H34      1.0000 0.88820  0.53520  0.73970  Biso   1.000  H
  H35      1.0000 0.88820  0.96480  0.23970  Biso   1.000  H
  H36      1.0000 0.11180  0.46480  0.26030  Biso   1.000  H
  C45      1.0000 0.06410  0.91110  0.82348  Biso   1.000  C
  C46      1.0000 0.93590  0.41110  0.67652  Biso   1.000  C
  C47      1.0000 0.93590  0.08890  0.17652  Biso   1.000  C
  C48      1.0000 0.06410  0.58890  0.32348  Biso   1.000  C
  H37      1.0000 0.97610  0.92660  0.81450  Biso   1.000  H
  H38      1.0000 0.02390  0.42660  0.68550  Biso   1.000  H
  H39      1.0000 0.02390  0.07340  0.18550  Biso   1.000  H
  H40      1.0000 0.97610  0.57340  0.31450  Biso   1.000  H
  H41      1.0000 0.07480  0.81690  0.83050  Biso   1.000  H
  H42      1.0000 0.92520  0.31690  0.66950  Biso   1.000  H
  H43      1.0000 0.92520  0.18310  0.16950  Biso   1.000  H
  H44      1.0000 0.07480  0.68310  0.33050  Biso   1.000  H
  C49      1.0000 0.01750  0.06180  0.89589  Biso   1.000  C
  C50      1.0000 0.98250  0.56180  0.60411  Biso   1.000  C
  C51      1.0000 0.98250  0.93820  0.10411  Biso   1.000  C
  C52      1.0000 0.01750  0.43820  0.39589  Biso   1.000  C
  H45      1.0000 0.94030  0.06850  0.87720  Biso   1.000  H
  H46      1.0000 0.05970  0.56850  0.62280  Biso   1.000  H
  H47      1.0000 0.05970  0.93150  0.12280  Biso   1.000  H
  H48      1.0000 0.94030  0.43150  0.37720  Biso   1.000  H
  C53      1.0000 0.03360  0.13990  0.94622  Biso   1.000  C
  C54      1.0000 0.96640  0.63990  0.55378  Biso   1.000  C
  C55      1.0000 0.96640  0.86010  0.05378  Biso   1.000  C
  C56      1.0000 0.03360  0.36010  0.44622  Biso   1.000  C
  C57      1.0000 0.94460  0.24020  0.95419  Biso   1.000  C
  C58      1.0000 0.05540  0.74020  0.54581  Biso   1.000  C
  C59      1.0000 0.05540  0.75980  0.04581  Biso   1.000  C
  C60      1.0000 0.94460  0.25980  0.45419  Biso   1.000  C
  H49      1.0000 0.87990  0.25130  0.92780  Biso   1.000  H
  H50      1.0000 0.12010  0.75130  0.57220  Biso   1.000  H
  H51      1.0000 0.12010  0.74870  0.07220  Biso   1.000  H
  H52      1.0000 0.87990  0.24870  0.42780  Biso   1.000  H
  C61      1.0000 0.95100  0.32220  0.99997  Biso   1.000  C
  C62      1.0000 0.04900  0.82220  0.50003  Biso   1.000  C
  C63      1.0000 0.04900  0.67780  0.00003  Biso   1.000  C
  C64      1.0000 0.95100  0.17780  0.49997  Biso   1.000  C
  H53      1.0000 0.89060  0.38770  0.00500  Biso   1.000  H
  H54      1.0000 0.10940  0.88770  0.49500  Biso   1.000  H
  H55      1.0000 0.10940  0.61230  0.99500  Biso   1.000  H
  H56      1.0000 0.89060  0.11230  0.50500  Biso   1.000  H
  C65      1.0000 0.04830  0.30630  0.03859  Biso   1.000  C
  C66      1.0000 0.95170  0.80630  0.46141  Biso   1.000  C
  C67      1.0000 0.95170  0.69370  0.96141  Biso   1.000  C
  C68      1.0000 0.04830  0.19370  0.53859  Biso   1.000  C
  H57      1.0000 0.05470  0.36380  0.06910  Biso   1.000  H
  H58      1.0000 0.94530  0.86380  0.43090  Biso   1.000  H
  H59      1.0000 0.94530  0.63620  0.93090  Biso   1.000  H
  H60      1.0000 0.05470  0.13620  0.56910  Biso   1.000  H
  C69      1.0000 0.13560  0.20740  0.03280  Biso   1.000  C
  C70      1.0000 0.86440  0.70740  0.46720  Biso   1.000  C
  C71      1.0000 0.86440  0.79260  0.96720  Biso   1.000  C
  C72      1.0000 0.13560  0.29260  0.53280  Biso   1.000  C
  H61      1.0000 0.19890  0.19720  0.05990  Biso   1.000  H
  H62      1.0000 0.80110  0.69720  0.44010  Biso   1.000  H
  H63      1.0000 0.80110  0.80280  0.94010  Biso   1.000  H
  H64      1.0000 0.19890  0.30280  0.55990  Biso   1.000  H
  C73      1.0000 0.13070  0.12220  0.98703  Biso   1.000  C
  C74      1.0000 0.86930  0.62220  0.51297  Biso   1.000  C
  C75      1.0000 0.86930  0.87780  0.01297  Biso   1.000  C
  C76      1.0000 0.13070  0.37780  0.48703  Biso   1.000  C
  C77      1.0000 0.30280  0.35190  0.83765  Biso   1.000  C
  C78      1.0000 0.69720  0.85190  0.66235  Biso   1.000  C
  C79      1.0000 0.69720  0.64810  0.16235  Biso   1.000  C
  C80      1.0000 0.30280  0.14810  0.33765  Biso   1.000  C
  C81      1.0000 0.32960  0.41290  0.78730  Biso   1.000  C
  C82      1.0000 0.67040  0.91290  0.71270  Biso   1.000  C
  C83      1.0000 0.67040  0.58710  0.21270  Biso   1.000  C
  C84      1.0000 0.32960  0.08710  0.28730  Biso   1.000  C
  H65      1.0000 0.40180  0.38840  0.76840  Biso   1.000  H
  H66      1.0000 0.59820  0.88840  0.73160  Biso   1.000  H
  H67      1.0000 0.59820  0.61160  0.23160  Biso   1.000  H
  H68      1.0000 0.40180  0.11160  0.26840  Biso   1.000  H
  C85      1.0000 0.25220  0.50890  0.76433  Biso   1.000  C
  C86      1.0000 0.74780  0.00890  0.73567  Biso   1.000  C
  C87      1.0000 0.74780  0.49110  0.23567  Biso   1.000  C
  C88      1.0000 0.25220  0.99110  0.26433  Biso   1.000  C
  C89      1.0000 0.14630  0.54600  0.79323  Biso   1.000  C
  C90      1.0000 0.85370  0.04600  0.70677  Biso   1.000  C
  C91      1.0000 0.85370  0.45400  0.20677  Biso   1.000  C
  C92      1.0000 0.14630  0.95400  0.29323  Biso   1.000  C
  H69      1.0000 0.09340  0.61160  0.77880  Biso   1.000  H
  H70      1.0000 0.90660  0.11160  0.72120  Biso   1.000  H
  H71      1.0000 0.90660  0.38840  0.22120  Biso   1.000  H
  H72      1.0000 0.09340  0.88840  0.27880  Biso   1.000  H
  C93      1.0000 0.11910  0.48550  0.84344  Biso   1.000  C
  C94      1.0000 0.88090  0.98550  0.65656  Biso   1.000  C
  C95      1.0000 0.88090  0.51450  0.15656  Biso   1.000  C
  C96      1.0000 0.11910  0.01450  0.34344  Biso   1.000  C
  H73      1.0000 0.04790  0.51120  0.86280  Biso   1.000  H
  H74      1.0000 0.95210  0.01120  0.63720  Biso   1.000  H
  H75      1.0000 0.95210  0.48880  0.13720  Biso   1.000  H
  H76      1.0000 0.04790  0.98880  0.36280  Biso   1.000  H
  C97      1.0000 0.19510  0.38850  0.86540  Biso   1.000  C
  C98      1.0000 0.80490  0.88850  0.63460  Biso   1.000  C
  C99      1.0000 0.80490  0.61150  0.13460  Biso   1.000  C
  C100     1.0000 0.19510  0.11150  0.36540  Biso   1.000  C
  H77      1.0000 0.17450  0.34720  0.89890  Biso   1.000  H
  H78      1.0000 0.82550  0.84720  0.60110  Biso   1.000  H
  H79      1.0000 0.82550  0.65280  0.10110  Biso   1.000  H
  H80      1.0000 0.17450  0.15280  0.39890  Biso   1.000  H
  C101     1.0000 0.38630  0.24560  0.86059  Biso   1.000  C
  C102     1.0000 0.61370  0.74560  0.63941  Biso   1.000  C
  C103     1.0000 0.61370  0.75440  0.13941  Biso   1.000  C
  C104     1.0000 0.38630  0.25440  0.36059  Biso   1.000  C
  C105     1.0000 0.28130  0.57110  0.70905  Biso   1.000  C
  C106     1.0000 0.71870  0.07110  0.79095  Biso   1.000  C
  C107     1.0000 0.71870  0.42890  0.29095  Biso   1.000  C
  C108     1.0000 0.28130  0.92890  0.20905  Biso   1.000  C
