data_image0
_cell_length_a       13.69
_cell_length_b       14.8425
_cell_length_c       39.374
_cell_angle_alpha    90
_cell_angle_beta     90
_cell_angle_gamma    90

_symmetry_space_group_name_H-M    "P 1"
_symmetry_int_tables_number       1

loop_
  _symmetry_equiv_pos_as_xyz
  'x, y, z'

loop_
  _atom_site_label
  _atom_site_occupancy
  _atom_site_fract_x
  _atom_site_fract_y
  _atom_site_fract_z
  _atom_site_thermal_displace_type
  _atom_site_B_iso_or_equiv
  _atom_site_type_symbol
  Sm1      1.0000 0.06605  0.26331  0.13457  Biso   1.000  Sm
  Sm2      1.0000 0.93395  0.23669  0.63457  Biso   1.000  Sm
  Sm3      1.0000 0.56605  0.73669  0.36543  Biso   1.000  Sm
  Sm4      1.0000 0.43395  0.76331  0.86543  Biso   1.000  Sm
  Sm5      1.0000 0.93395  0.73669  0.86543  Biso   1.000  Sm
  Sm6      1.0000 0.06605  0.76331  0.36543  Biso   1.000  Sm
  Sm7      1.0000 0.43395  0.26331  0.63457  Biso   1.000  Sm
  Sm8      1.0000 0.56605  0.23669  0.13457  Biso   1.000  Sm
  Cu1      1.0000 0.06519  0.50054  0.25462  Biso   1.000  Cu
  Cu2      1.0000 0.93481  0.99946  0.75462  Biso   1.000  Cu
  Cu3      1.0000 0.56519  0.49946  0.24538  Biso   1.000  Cu
  Cu4      1.0000 0.43481  0.00054  0.74538  Biso   1.000  Cu
  Cu5      1.0000 0.93481  0.49946  0.74538  Biso   1.000  Cu
  Cu6      1.0000 0.06519  0.00054  0.24538  Biso   1.000  Cu
  Cu7      1.0000 0.43481  0.50054  0.75462  Biso   1.000  Cu
  Cu8      1.0000 0.56519  0.99946  0.25462  Biso   1.000  Cu
  O1       1.0000 0.04070  0.41913  0.21724  Biso   1.000  O
  O2       1.0000 0.95930  0.08087  0.71724  Biso   1.000  O
  O3       1.0000 0.54070  0.58087  0.28276  Biso   1.000  O
  O4       1.0000 0.45930  0.91913  0.78276  Biso   1.000  O
  O5       1.0000 0.95930  0.58087  0.78276  Biso   1.000  O
  O6       1.0000 0.04070  0.91913  0.28276  Biso   1.000  O
  O7       1.0000 0.45930  0.41913  0.71724  Biso   1.000  O
  O8       1.0000 0.54070  0.08087  0.21724  Biso   1.000  O
  O9       1.0000 0.05730  0.40778  0.16110  Biso   1.000  O
  O10      1.0000 0.94270  0.09222  0.66110  Biso   1.000  O
  O11      1.0000 0.55730  0.59222  0.33890  Biso   1.000  O
  O12      1.0000 0.44270  0.90778  0.83890  Biso   1.000  O
  O13      1.0000 0.94270  0.59222  0.83890  Biso   1.000  O
  O14      1.0000 0.05730  0.90778  0.33890  Biso   1.000  O
  O15      1.0000 0.44270  0.40778  0.66110  Biso   1.000  O
  O16      1.0000 0.55730  0.09222  0.16110  Biso   1.000  O
  N1       1.0000 0.11650  0.57982  0.21858  Biso   1.000  N
  N2       1.0000 0.88350  0.92018  0.71858  Biso   1.000  N
  N3       1.0000 0.61650  0.42018  0.28142  Biso   1.000  N
  N4       1.0000 0.38350  0.07982  0.78142  Biso   1.000  N
  N5       1.0000 0.88350  0.42018  0.78142  Biso   1.000  N
  N6       1.0000 0.11650  0.07982  0.28142  Biso   1.000  N
  N7       1.0000 0.38350  0.57982  0.71858  Biso   1.000  N
  N8       1.0000 0.61650  0.92018  0.21858  Biso   1.000  N
  C1       1.0000 0.06510  0.44920  0.18871  Biso   1.000  C
  C2       1.0000 0.93490  0.05080  0.68871  Biso   1.000  C
  C3       1.0000 0.56510  0.55080  0.31129  Biso   1.000  C
  C4       1.0000 0.43490  0.94920  0.81129  Biso   1.000  C
  C5       1.0000 0.93490  0.55080  0.81129  Biso   1.000  C
  C6       1.0000 0.06510  0.94920  0.31129  Biso   1.000  C
  C7       1.0000 0.43490  0.44920  0.68871  Biso   1.000  C
  C8       1.0000 0.56510  0.05080  0.18871  Biso   1.000  C
  C9       1.0000 0.10940  0.54130  0.18758  Biso   1.000  C
  C10      1.0000 0.89060  0.95870  0.68758  Biso   1.000  C
  C11      1.0000 0.60940  0.45870  0.31242  Biso   1.000  C
  C12      1.0000 0.39060  0.04130  0.81242  Biso   1.000  C
  C13      1.0000 0.89060  0.45870  0.81242  Biso   1.000  C
  C14      1.0000 0.10940  0.04130  0.31242  Biso   1.000  C
  C15      1.0000 0.39060  0.54130  0.68758  Biso   1.000  C
  C16      1.0000 0.60940  0.95870  0.18758  Biso   1.000  C
  C17      1.0000 0.14210  0.58310  0.15859  Biso   1.000  C
  C18      1.0000 0.85790  0.91690  0.65859  Biso   1.000  C
  C19      1.0000 0.64210  0.41690  0.34141  Biso   1.000  C
  C20      1.0000 0.35790  0.08310  0.84141  Biso   1.000  C
  C21      1.0000 0.85790  0.41690  0.84141  Biso   1.000  C
  C22      1.0000 0.14210  0.08310  0.34141  Biso   1.000  C
  C23      1.0000 0.35790  0.58310  0.65859  Biso   1.000  C
  C24      1.0000 0.64210  0.91690  0.15859  Biso   1.000  C
  H1       1.0000 0.13580  0.55490  0.13760  Biso   1.000  H
  H2       1.0000 0.86420  0.94510  0.63760  Biso   1.000  H
  H3       1.0000 0.63580  0.44510  0.36240  Biso   1.000  H
  H4       1.0000 0.36420  0.05490  0.86240  Biso   1.000  H
  H5       1.0000 0.86420  0.44510  0.86240  Biso   1.000  H
  H6       1.0000 0.13580  0.05490  0.36240  Biso   1.000  H
  H7       1.0000 0.36420  0.55490  0.63760  Biso   1.000  H
  H8       1.0000 0.63580  0.94510  0.13760  Biso   1.000  H
  C25      1.0000 0.18400  0.66640  0.16094  Biso   1.000  C
  C26      1.0000 0.81600  0.83360  0.66094  Biso   1.000  C
  C27      1.0000 0.68400  0.33360  0.33906  Biso   1.000  C
  C28      1.0000 0.31600  0.16640  0.83906  Biso   1.000  C
  C29      1.0000 0.81600  0.33360  0.83906  Biso   1.000  C
  C30      1.0000 0.18400  0.16640  0.33906  Biso   1.000  C
  C31      1.0000 0.31600  0.66640  0.66094  Biso   1.000  C
  C32      1.0000 0.68400  0.83360  0.16094  Biso   1.000  C
  H9       1.0000 0.20730  0.69500  0.14160  Biso   1.000  H
  H10      1.0000 0.79270  0.80500  0.64160  Biso   1.000  H
  H11      1.0000 0.70730  0.30500  0.35840  Biso   1.000  H
  H12      1.0000 0.29270  0.19500  0.85840  Biso   1.000  H
  H13      1.0000 0.79270  0.30500  0.85840  Biso   1.000  H
  H14      1.0000 0.20730  0.19500  0.35840  Biso   1.000  H
  H15      1.0000 0.29270  0.69500  0.64160  Biso   1.000  H
  H16      1.0000 0.70730  0.80500  0.14160  Biso   1.000  H
  C33      1.0000 0.19150  0.70840  0.19256  Biso   1.000  C
  C34      1.0000 0.80850  0.79160  0.69256  Biso   1.000  C
  C35      1.0000 0.69150  0.29160  0.30744  Biso   1.000  C
  C36      1.0000 0.30850  0.20840  0.80744  Biso   1.000  C
  C37      1.0000 0.80850  0.29160  0.80744  Biso   1.000  C
  C38      1.0000 0.19150  0.20840  0.30744  Biso   1.000  C
  C39      1.0000 0.30850  0.70840  0.69256  Biso   1.000  C
  C40      1.0000 0.69150  0.79160  0.19256  Biso   1.000  C
  H17      1.0000 0.21770  0.76600  0.19450  Biso   1.000  H
  H18      1.0000 0.78230  0.73400  0.69450  Biso   1.000  H
  H19      1.0000 0.71770  0.23400  0.30550  Biso   1.000  H
  H20      1.0000 0.28230  0.26600  0.80550  Biso   1.000  H
  H21      1.0000 0.78230  0.23400  0.80550  Biso   1.000  H
  H22      1.0000 0.21770  0.26600  0.30550  Biso   1.000  H
  H23      1.0000 0.28230  0.76600  0.69450  Biso   1.000  H
  H24      1.0000 0.71770  0.73400  0.19450  Biso   1.000  H
  C41      1.0000 0.15890  0.66210  0.22106  Biso   1.000  C
  C42      1.0000 0.84110  0.83790  0.72106  Biso   1.000  C
  C43      1.0000 0.65890  0.33790  0.27894  Biso   1.000  C
  C44      1.0000 0.34110  0.16210  0.77894  Biso   1.000  C
  C45      1.0000 0.84110  0.33790  0.77894  Biso   1.000  C
  C46      1.0000 0.15890  0.16210  0.27894  Biso   1.000  C
  C47      1.0000 0.34110  0.66210  0.72106  Biso   1.000  C
  C48      1.0000 0.65890  0.83790  0.22106  Biso   1.000  C
  H25      1.0000 0.16640  0.68820  0.24240  Biso   1.000  H
  H26      1.0000 0.83360  0.81180  0.74240  Biso   1.000  H
  H27      1.0000 0.66640  0.31180  0.25760  Biso   1.000  H
  H28      1.0000 0.33360  0.18820  0.75760  Biso   1.000  H
  H29      1.0000 0.83360  0.31180  0.75760  Biso   1.000  H
  H30      1.0000 0.16640  0.18820  0.25760  Biso   1.000  H
  H31      1.0000 0.33360  0.68820  0.74240  Biso   1.000  H
  H32      1.0000 0.66640  0.81180  0.24240  Biso   1.000  H
  O17      1.0000 0.08230  0.08331  0.20784  Biso   1.000  O
  O18      1.0000 0.91770  0.41669  0.70784  Biso   1.000  O
  O19      1.0000 0.58230  0.91669  0.29216  Biso   1.000  O
  O20      1.0000 0.41770  0.58331  0.79216  Biso   1.000  O
  O21      1.0000 0.91770  0.91669  0.79216  Biso   1.000  O
  O22      1.0000 0.08230  0.58331  0.29216  Biso   1.000  O
  O23      1.0000 0.41770  0.08331  0.70784  Biso   1.000  O
  O24      1.0000 0.58230  0.41669  0.20784  Biso   1.000  O
  O25      1.0000 0.05190  0.09999  0.15239  Biso   1.000  O
  O26      1.0000 0.94810  0.40001  0.65239  Biso   1.000  O
  O27      1.0000 0.55190  0.90001  0.34761  Biso   1.000  O
  O28      1.0000 0.44810  0.59999  0.84761  Biso   1.000  O
  O29      1.0000 0.94810  0.90001  0.84761  Biso   1.000  O
  O30      1.0000 0.05190  0.59999  0.34761  Biso   1.000  O
  O31      1.0000 0.44810  0.09999  0.65239  Biso   1.000  O
  O32      1.0000 0.55190  0.40001  0.15239  Biso   1.000  O
  N9       1.0000 0.01570  0.92007  0.20952  Biso   1.000  N
  N10      1.0000 0.98430  0.57993  0.70952  Biso   1.000  N
  N11      1.0000 0.51570  0.07993  0.29048  Biso   1.000  N
  N12      1.0000 0.48430  0.42007  0.79048  Biso   1.000  N
  N13      1.0000 0.98430  0.07993  0.79048  Biso   1.000  N
  N14      1.0000 0.01570  0.42007  0.29048  Biso   1.000  N
  N15      1.0000 0.48430  0.92007  0.70952  Biso   1.000  N
  N16      1.0000 0.51570  0.57993  0.20952  Biso   1.000  N
  C49      1.0000 0.05290  0.05400  0.17864  Biso   1.000  C
  C50      1.0000 0.94710  0.44600  0.67864  Biso   1.000  C
  C51      1.0000 0.55290  0.94600  0.32136  Biso   1.000  C
  C52      1.0000 0.44710  0.55400  0.82136  Biso   1.000  C
  C53      1.0000 0.94710  0.94600  0.82136  Biso   1.000  C
  C54      1.0000 0.05290  0.55400  0.32136  Biso   1.000  C
  C55      1.0000 0.44710  0.05400  0.67864  Biso   1.000  C
  C56      1.0000 0.55290  0.44600  0.17864  Biso   1.000  C
  C57      1.0000 0.01520  0.95900  0.17843  Biso   1.000  C
  C58      1.0000 0.98480  0.54100  0.67843  Biso   1.000  C
  C59      1.0000 0.51520  0.04100  0.32157  Biso   1.000  C
  C60      1.0000 0.48480  0.45900  0.82157  Biso   1.000  C
  C61      1.0000 0.98480  0.04100  0.82157  Biso   1.000  C
  C62      1.0000 0.01520  0.45900  0.32157  Biso   1.000  C
  C63      1.0000 0.48480  0.95900  0.67843  Biso   1.000  C
  C64      1.0000 0.51520  0.54100  0.17843  Biso   1.000  C
  C65      1.0000 0.98390  0.91590  0.14964  Biso   1.000  C
  C66      1.0000 0.01610  0.58410  0.64964  Biso   1.000  C
  C67      1.0000 0.48390  0.08410  0.35036  Biso   1.000  C
  C68      1.0000 0.51610  0.41590  0.85036  Biso   1.000  C
  C69      1.0000 0.01610  0.08410  0.85036  Biso   1.000  C
  C70      1.0000 0.98390  0.41590  0.35036  Biso   1.000  C
  C71      1.0000 0.51610  0.91590  0.64964  Biso   1.000  C
  C72      1.0000 0.48390  0.58410  0.14964  Biso   1.000  C
  H33      1.0000 0.98600  0.94390  0.12850  Biso   1.000  H
  H34      1.0000 0.01400  0.55610  0.62850  Biso   1.000  H
  H35      1.0000 0.48600  0.05610  0.37150  Biso   1.000  H
  H36      1.0000 0.51400  0.44390  0.87150  Biso   1.000  H
  H37      1.0000 0.01400  0.05610  0.87150  Biso   1.000  H
  H38      1.0000 0.98600  0.44390  0.37150  Biso   1.000  H
  H39      1.0000 0.51400  0.94390  0.62850  Biso   1.000  H
  H40      1.0000 0.48600  0.55610  0.12850  Biso   1.000  H
  C73      1.0000 0.94850  0.82800  0.15347  Biso   1.000  C
  C74      1.0000 0.05150  0.67200  0.65347  Biso   1.000  C
  C75      1.0000 0.44850  0.17200  0.34653  Biso   1.000  C
  C76      1.0000 0.55150  0.32800  0.84653  Biso   1.000  C
  C77      1.0000 0.05150  0.17200  0.84653  Biso   1.000  C
  C78      1.0000 0.94850  0.32800  0.34653  Biso   1.000  C
  C79      1.0000 0.55150  0.82800  0.65347  Biso   1.000  C
  C80      1.0000 0.44850  0.67200  0.15347  Biso   1.000  C
  H41      1.0000 0.92450  0.79670  0.13480  Biso   1.000  H
  H42      1.0000 0.07550  0.70330  0.63480  Biso   1.000  H
  H43      1.0000 0.42450  0.20330  0.36520  Biso   1.000  H
  H44      1.0000 0.57550  0.29670  0.86520  Biso   1.000  H
  H45      1.0000 0.07550  0.20330  0.86520  Biso   1.000  H
  H46      1.0000 0.92450  0.29670  0.36520  Biso   1.000  H
  H47      1.0000 0.57550  0.79670  0.63480  Biso   1.000  H
  H48      1.0000 0.42450  0.70330  0.13480  Biso   1.000  H
  C81      1.0000 0.94940  0.78830  0.18488  Biso   1.000  C
  C82      1.0000 0.05060  0.71170  0.68488  Biso   1.000  C
  C83      1.0000 0.44940  0.21170  0.31512  Biso   1.000  C
  C84      1.0000 0.55060  0.28830  0.81512  Biso   1.000  C
  C85      1.0000 0.05060  0.21170  0.81512  Biso   1.000  C
  C86      1.0000 0.94940  0.28830  0.31512  Biso   1.000  C
  C87      1.0000 0.55060  0.78830  0.68488  Biso   1.000  C
  C88      1.0000 0.44940  0.71170  0.18488  Biso   1.000  C
  H49      1.0000 0.92770  0.72930  0.18750  Biso   1.000  H
  H50      1.0000 0.07230  0.77070  0.68750  Biso   1.000  H
  H51      1.0000 0.42770  0.27070  0.31250  Biso   1.000  H
  H52      1.0000 0.57230  0.22930  0.81250  Biso   1.000  H
  H53      1.0000 0.07230  0.27070  0.81250  Biso   1.000  H
  H54      1.0000 0.92770  0.22930  0.31250  Biso   1.000  H
  H55      1.0000 0.57230  0.72930  0.68750  Biso   1.000  H
  H56      1.0000 0.42770  0.77070  0.18750  Biso   1.000  H
  C89      1.0000 0.98220  0.83540  0.21243  Biso   1.000  C
  C90      1.0000 0.01780  0.66460  0.71243  Biso   1.000  C
  C91      1.0000 0.48220  0.16460  0.28757  Biso   1.000  C
  C92      1.0000 0.51780  0.33540  0.78757  Biso   1.000  C
  C93      1.0000 0.01780  0.16460  0.78757  Biso   1.000  C
  C94      1.0000 0.98220  0.33540  0.28757  Biso   1.000  C
  C95      1.0000 0.51780  0.83540  0.71243  Biso   1.000  C
  C96      1.0000 0.48220  0.66460  0.21243  Biso   1.000  C
  H57      1.0000 0.98140  0.80810  0.23370  Biso   1.000  H
  H58      1.0000 0.01860  0.69190  0.73370  Biso   1.000  H
  H59      1.0000 0.48140  0.19190  0.26630  Biso   1.000  H
  H60      1.0000 0.51860  0.30810  0.76630  Biso   1.000  H
  H61      1.0000 0.01860  0.19190  0.76630  Biso   1.000  H
  H62      1.0000 0.98140  0.30810  0.26630  Biso   1.000  H
  H63      1.0000 0.51860  0.80810  0.73370  Biso   1.000  H
  H64      1.0000 0.48140  0.69190  0.23370  Biso   1.000  H
  Cu9      1.0000 0.12661  0.54411  0.01657  Biso   1.000  Cu
  Cu10     1.0000 0.87339  0.95589  0.51658  Biso   1.000  Cu
  Cu11     1.0000 0.62661  0.45589  0.48342  Biso   1.000  Cu
  Cu12     1.0000 0.37339  0.04411  0.98342  Biso   1.000  Cu
  Cu13     1.0000 0.87339  0.45589  0.98342  Biso   1.000  Cu
  Cu14     1.0000 0.12661  0.04411  0.48342  Biso   1.000  Cu
  Cu15     1.0000 0.37339  0.54411  0.51658  Biso   1.000  Cu
  Cu16     1.0000 0.62661  0.95589  0.01657  Biso   1.000  Cu
  O33      1.0000 0.09079  0.48911  0.05986  Biso   1.000  O
  O34      1.0000 0.90921  0.01089  0.55986  Biso   1.000  O
  O35      1.0000 0.59079  0.51089  0.44014  Biso   1.000  O
  O36      1.0000 0.40921  0.98911  0.94014  Biso   1.000  O
  O37      1.0000 0.90921  0.51089  0.94014  Biso   1.000  O
  O38      1.0000 0.09079  0.98911  0.44014  Biso   1.000  O
  O39      1.0000 0.40921  0.48911  0.55986  Biso   1.000  O
  O40      1.0000 0.59079  0.01089  0.05986  Biso   1.000  O
  O41      1.0000 0.09100  0.35421  0.08447  Biso   1.000  O
  O42      1.0000 0.90900  0.14579  0.58447  Biso   1.000  O
  O43      1.0000 0.59100  0.64579  0.41553  Biso   1.000  O
  O44      1.0000 0.40900  0.85421  0.91553  Biso   1.000  O
  O45      1.0000 0.90900  0.64579  0.91553  Biso   1.000  O
  O46      1.0000 0.09100  0.85421  0.41553  Biso   1.000  O
  O47      1.0000 0.40900  0.35421  0.58447  Biso   1.000  O
  O48      1.0000 0.59100  0.14579  0.08447  Biso   1.000  O
  N17      1.0000 0.11900  0.41936  0.99946  Biso   1.000  N
  N18      1.0000 0.88100  0.08064  0.49946  Biso   1.000  N
  N19      1.0000 0.61900  0.58064  0.50054  Biso   1.000  N
  N20      1.0000 0.38100  0.91936  0.00054  Biso   1.000  N
  N21      1.0000 0.88100  0.58064  0.00054  Biso   1.000  N
  N22      1.0000 0.11900  0.91936  0.50054  Biso   1.000  N
  N23      1.0000 0.38100  0.41936  0.49946  Biso   1.000  N
  N24      1.0000 0.61900  0.08064  0.99946  Biso   1.000  N
  C97      1.0000 0.09510  0.40350  0.05952  Biso   1.000  C
  C98      1.0000 0.90490  0.09650  0.55952  Biso   1.000  C
  C99      1.0000 0.59510  0.59650  0.44048  Biso   1.000  C
  C100     1.0000 0.40490  0.90350  0.94048  Biso   1.000  C
  C101     1.0000 0.90490  0.59650  0.94048  Biso   1.000  C
  C102     1.0000 0.09510  0.90350  0.44048  Biso   1.000  C
  C103     1.0000 0.40490  0.40350  0.55952  Biso   1.000  C
  C104     1.0000 0.59510  0.09650  0.05952  Biso   1.000  C
  C105     1.0000 0.10750  0.36060  0.02509  Biso   1.000  C
  C106     1.0000 0.89250  0.13940  0.52509  Biso   1.000  C
  C107     1.0000 0.60750  0.63940  0.47491  Biso   1.000  C
  C108     1.0000 0.39250  0.86060  0.97491  Biso   1.000  C
  C109     1.0000 0.89250  0.63940  0.97491  Biso   1.000  C
  C110     1.0000 0.10750  0.86060  0.47491  Biso   1.000  C
  C111     1.0000 0.39250  0.36060  0.52509  Biso   1.000  C
  C112     1.0000 0.60750  0.13940  0.02509  Biso   1.000  C
  C113     1.0000 0.10570  0.26880  0.01975  Biso   1.000  C
  C114     1.0000 0.89430  0.23120  0.51975  Biso   1.000  C
  C115     1.0000 0.60570  0.73120  0.48025  Biso   1.000  C
  C116     1.0000 0.39430  0.76880  0.98025  Biso   1.000  C
  C117     1.0000 0.89430  0.73120  0.98025  Biso   1.000  C
  C118     1.0000 0.10570  0.76880  0.48025  Biso   1.000  C
  C119     1.0000 0.39430  0.26880  0.51975  Biso   1.000  C
  C120     1.0000 0.60570  0.23120  0.01975  Biso   1.000  C
  H65      1.0000 0.09760  0.22890  0.03780  Biso   1.000  H
  H66      1.0000 0.90240  0.27110  0.53780  Biso   1.000  H
  H67      1.0000 0.59760  0.77110  0.46220  Biso   1.000  H
  H68      1.0000 0.40240  0.72890  0.96220  Biso   1.000  H
  H69      1.0000 0.90240  0.77110  0.96220  Biso   1.000  H
  H70      1.0000 0.09760  0.72890  0.46220  Biso   1.000  H
  H71      1.0000 0.40240  0.22890  0.53780  Biso   1.000  H
  H72      1.0000 0.59760  0.27110  0.03780  Biso   1.000  H
  C121     1.0000 0.11610  0.23820  0.98722  Biso   1.000  C
  C122     1.0000 0.88390  0.26180  0.48722  Biso   1.000  C
  C123     1.0000 0.61610  0.76180  0.51278  Biso   1.000  C
  C124     1.0000 0.38390  0.73820  0.01278  Biso   1.000  C
  C125     1.0000 0.88390  0.76180  0.01278  Biso   1.000  C
  C126     1.0000 0.11610  0.73820  0.51278  Biso   1.000  C
  C127     1.0000 0.38390  0.23820  0.48722  Biso   1.000  C
  C128     1.0000 0.61610  0.26180  0.98722  Biso   1.000  C
  H73      1.0000 0.11590  0.17660  0.98300  Biso   1.000  H
  H74      1.0000 0.88410  0.32340  0.48300  Biso   1.000  H
  H75      1.0000 0.61590  0.82340  0.51700  Biso   1.000  H
  H76      1.0000 0.38410  0.67660  0.01700  Biso   1.000  H
  H77      1.0000 0.88410  0.82340  0.01700  Biso   1.000  H
  H78      1.0000 0.11590  0.67660  0.51700  Biso   1.000  H
  H79      1.0000 0.38410  0.17660  0.48300  Biso   1.000  H
  H80      1.0000 0.61590  0.32340  0.98300  Biso   1.000  H
  C129     1.0000 0.12690  0.29810  0.96042  Biso   1.000  C
  C130     1.0000 0.87310  0.20190  0.46042  Biso   1.000  C
  C131     1.0000 0.62690  0.70190  0.53958  Biso   1.000  C
  C132     1.0000 0.37310  0.79810  0.03958  Biso   1.000  C
  C133     1.0000 0.87310  0.70190  0.03958  Biso   1.000  C
  C134     1.0000 0.12690  0.79810  0.53958  Biso   1.000  C
  C135     1.0000 0.37310  0.29810  0.46042  Biso   1.000  C
  C136     1.0000 0.62690  0.20190  0.96042  Biso   1.000  C
  H81      1.0000 0.13270  0.27750  0.93820  Biso   1.000  H
  H82      1.0000 0.86730  0.22250  0.43820  Biso   1.000  H
  H83      1.0000 0.63270  0.72250  0.56180  Biso   1.000  H
  H84      1.0000 0.36730  0.77750  0.06180  Biso   1.000  H
  H85      1.0000 0.86730  0.72250  0.06180  Biso   1.000  H
  H86      1.0000 0.13270  0.77750  0.56180  Biso   1.000  H
  H87      1.0000 0.36730  0.27750  0.43820  Biso   1.000  H
  H88      1.0000 0.63270  0.22250  0.93820  Biso   1.000  H
  C137     1.0000 0.12870  0.39050  0.96774  Biso   1.000  C
  C138     1.0000 0.87130  0.10950  0.46774  Biso   1.000  C
  C139     1.0000 0.62870  0.60950  0.53226  Biso   1.000  C
  C140     1.0000 0.37130  0.89050  0.03226  Biso   1.000  C
  C141     1.0000 0.87130  0.60950  0.03226  Biso   1.000  C
  C142     1.0000 0.12870  0.89050  0.53226  Biso   1.000  C
  C143     1.0000 0.37130  0.39050  0.46774  Biso   1.000  C
  C144     1.0000 0.62870  0.10950  0.96774  Biso   1.000  C
  H89      1.0000 0.13670  0.43180  0.95020  Biso   1.000  H
  H90      1.0000 0.86330  0.06820  0.45020  Biso   1.000  H
  H91      1.0000 0.63670  0.56820  0.54980  Biso   1.000  H
  H92      1.0000 0.36330  0.93180  0.04980  Biso   1.000  H
  H93      1.0000 0.86330  0.56820  0.04980  Biso   1.000  H
  H94      1.0000 0.13670  0.93180  0.54980  Biso   1.000  H
  H95      1.0000 0.36330  0.43180  0.45020  Biso   1.000  H
  H96      1.0000 0.63670  0.06820  0.95020  Biso   1.000  H
  O49      1.0000 0.14860  0.59510  0.97192  Biso   1.000  O
  O50      1.0000 0.85140  0.90490  0.47192  Biso   1.000  O
  O51      1.0000 0.64860  0.40490  0.52808  Biso   1.000  O
  O52      1.0000 0.35140  0.09510  0.02808  Biso   1.000  O
  O53      1.0000 0.85140  0.40490  0.02808  Biso   1.000  O
  O54      1.0000 0.14860  0.09510  0.52808  Biso   1.000  O
  O55      1.0000 0.35140  0.59510  0.47192  Biso   1.000  O
  O56      1.0000 0.64860  0.90490  0.97192  Biso   1.000  O
  O57      1.0000 0.16750  0.72503  0.94475  Biso   1.000  O
  O58      1.0000 0.83250  0.77497  0.44475  Biso   1.000  O
  O59      1.0000 0.66750  0.27497  0.55525  Biso   1.000  O
  O60      1.0000 0.33250  0.22503  0.05525  Biso   1.000  O
  O61      1.0000 0.83250  0.27497  0.05525  Biso   1.000  O
  O62      1.0000 0.16750  0.22503  0.55525  Biso   1.000  O
  O63      1.0000 0.33250  0.72503  0.44475  Biso   1.000  O
  O64      1.0000 0.66750  0.77497  0.94475  Biso   1.000  O
  N25      1.0000 0.12280  0.67178  0.03059  Biso   1.000  N
  N26      1.0000 0.87720  0.82822  0.53059  Biso   1.000  N
  N27      1.0000 0.62280  0.32822  0.46941  Biso   1.000  N
  N28      1.0000 0.37720  0.17178  0.96941  Biso   1.000  N
  N29      1.0000 0.87720  0.32822  0.96941  Biso   1.000  N
  N30      1.0000 0.12280  0.17178  0.46941  Biso   1.000  N
  N31      1.0000 0.37720  0.67178  0.53059  Biso   1.000  N
  N32      1.0000 0.62280  0.82822  0.03059  Biso   1.000  N
  C145     1.0000 0.15280  0.68040  0.97051  Biso   1.000  C
  C146     1.0000 0.84720  0.81960  0.47051  Biso   1.000  C
  C147     1.0000 0.65280  0.31960  0.52949  Biso   1.000  C
  C148     1.0000 0.34720  0.18040  0.02949  Biso   1.000  C
  C149     1.0000 0.84720  0.31960  0.02949  Biso   1.000  C
  C150     1.0000 0.15280  0.18040  0.52949  Biso   1.000  C
  C151     1.0000 0.34720  0.68040  0.47051  Biso   1.000  C
  C152     1.0000 0.65280  0.81960  0.97051  Biso   1.000  C
  C153     1.0000 0.13600  0.72660  0.00424  Biso   1.000  C
  C154     1.0000 0.86400  0.77340  0.50424  Biso   1.000  C
  C155     1.0000 0.63600  0.27340  0.49576  Biso   1.000  C
  C156     1.0000 0.36400  0.22660  0.99576  Biso   1.000  C
  C157     1.0000 0.86400  0.27340  0.99576  Biso   1.000  C
  C158     1.0000 0.13600  0.22660  0.49576  Biso   1.000  C
  C159     1.0000 0.36400  0.72660  0.50424  Biso   1.000  C
  C160     1.0000 0.63600  0.77340  0.00424  Biso   1.000  C
  C161     1.0000 0.13460  0.82040  0.00775  Biso   1.000  C
  C162     1.0000 0.86540  0.67960  0.50775  Biso   1.000  C
  C163     1.0000 0.63460  0.17960  0.49225  Biso   1.000  C
  C164     1.0000 0.36540  0.32040  0.99225  Biso   1.000  C
  C165     1.0000 0.86540  0.17960  0.99225  Biso   1.000  C
  C166     1.0000 0.13460  0.32040  0.49225  Biso   1.000  C
  C167     1.0000 0.36540  0.82040  0.50775  Biso   1.000  C
  C168     1.0000 0.63460  0.67960  0.00775  Biso   1.000  C
  H97      1.0000 0.14230  0.85790  0.98900  Biso   1.000  H
  H98      1.0000 0.85770  0.64210  0.48900  Biso   1.000  H
  H99      1.0000 0.64230  0.14210  0.51100  Biso   1.000  H
  H100     1.0000 0.35770  0.35790  0.01100  Biso   1.000  H
  H101     1.0000 0.85770  0.14210  0.01100  Biso   1.000  H
  H102     1.0000 0.14230  0.35790  0.51100  Biso   1.000  H
  H103     1.0000 0.35770  0.85790  0.48900  Biso   1.000  H
  H104     1.0000 0.64230  0.64210  0.98900  Biso   1.000  H
  C169     1.0000 0.12160  0.85510  0.03979  Biso   1.000  C
  C170     1.0000 0.87840  0.64490  0.53979  Biso   1.000  C
  C171     1.0000 0.62160  0.14490  0.46021  Biso   1.000  C
  C172     1.0000 0.37840  0.35510  0.96021  Biso   1.000  C
  C173     1.0000 0.87840  0.14490  0.96021  Biso   1.000  C
  C174     1.0000 0.12160  0.35510  0.46021  Biso   1.000  C
  C175     1.0000 0.37840  0.85510  0.53979  Biso   1.000  C
  C176     1.0000 0.62160  0.64490  0.03979  Biso   1.000  C
  H105     1.0000 0.12130  0.91720  0.04300  Biso   1.000  H
  H106     1.0000 0.87870  0.58280  0.54300  Biso   1.000  H
  H107     1.0000 0.62130  0.08280  0.45700  Biso   1.000  H
  H108     1.0000 0.37870  0.41720  0.95700  Biso   1.000  H
  H109     1.0000 0.87870  0.08280  0.95700  Biso   1.000  H
  H110     1.0000 0.12130  0.41720  0.45700  Biso   1.000  H
  H111     1.0000 0.37870  0.91720  0.54300  Biso   1.000  H
  H112     1.0000 0.62130  0.58280  0.04300  Biso   1.000  H
  C177     1.0000 0.10900  0.79830  0.06712  Biso   1.000  C
  C178     1.0000 0.89100  0.70170  0.56712  Biso   1.000  C
  C179     1.0000 0.60900  0.20170  0.43288  Biso   1.000  C
  C180     1.0000 0.39100  0.29830  0.93288  Biso   1.000  C
  C181     1.0000 0.89100  0.20170  0.93288  Biso   1.000  C
  C182     1.0000 0.10900  0.29830  0.43288  Biso   1.000  C
  C183     1.0000 0.39100  0.79830  0.56712  Biso   1.000  C
  C184     1.0000 0.60900  0.70170  0.06712  Biso   1.000  C
  H113     1.0000 0.10030  0.82160  0.08880  Biso   1.000  H
  H114     1.0000 0.89970  0.67840  0.58880  Biso   1.000  H
  H115     1.0000 0.60030  0.17840  0.41120  Biso   1.000  H
  H116     1.0000 0.39970  0.32160  0.91120  Biso   1.000  H
  H117     1.0000 0.89970  0.17840  0.91120  Biso   1.000  H
  H118     1.0000 0.10030  0.32160  0.41120  Biso   1.000  H
  H119     1.0000 0.39970  0.82160  0.58880  Biso   1.000  H
  H120     1.0000 0.60030  0.67840  0.08880  Biso   1.000  H
  C185     1.0000 0.10946  0.70560  0.06179  Biso   1.000  C
  C186     1.0000 0.89054  0.79440  0.56179  Biso   1.000  C
  C187     1.0000 0.60946  0.29440  0.43821  Biso   1.000  C
  C188     1.0000 0.39054  0.20560  0.93821  Biso   1.000  C
  C189     1.0000 0.89054  0.29440  0.93821  Biso   1.000  C
  C190     1.0000 0.10946  0.20560  0.43821  Biso   1.000  C
  C191     1.0000 0.39054  0.70560  0.56179  Biso   1.000  C
  C192     1.0000 0.60946  0.79440  0.06179  Biso   1.000  C
  H121     1.0000 0.10040  0.66680  0.08010  Biso   1.000  H
  H122     1.0000 0.89960  0.83320  0.58010  Biso   1.000  H
  H123     1.0000 0.60040  0.33320  0.41990  Biso   1.000  H
  H124     1.0000 0.39960  0.16680  0.91990  Biso   1.000  H
  H125     1.0000 0.89960  0.33320  0.91990  Biso   1.000  H
  H126     1.0000 0.10040  0.16680  0.41990  Biso   1.000  H
  H127     1.0000 0.39960  0.66680  0.58010  Biso   1.000  H
  H128     1.0000 0.60040  0.83320  0.08010  Biso   1.000  H
  O65      1.0000 0.91140  0.35057  0.11784  Biso   1.000  O
  O66      1.0000 0.08860  0.14943  0.61784  Biso   1.000  O
  O67      1.0000 0.41140  0.64943  0.38216  Biso   1.000  O
  O68      1.0000 0.58860  0.85057  0.88216  Biso   1.000  O
  O69      1.0000 0.08860  0.64943  0.88216  Biso   1.000  O
  O70      1.0000 0.91140  0.85057  0.38216  Biso   1.000  O
  O71      1.0000 0.58860  0.35057  0.61784  Biso   1.000  O
  O72      1.0000 0.41140  0.14943  0.11784  Biso   1.000  O
  O73      1.0000 0.15629  0.24605  0.18870  Biso   1.000  O
  O74      1.0000 0.84371  0.25395  0.68870  Biso   1.000  O
  O75      1.0000 0.65629  0.75395  0.31130  Biso   1.000  O
  O76      1.0000 0.34371  0.74605  0.81130  Biso   1.000  O
  O77      1.0000 0.84371  0.75395  0.81130  Biso   1.000  O
  O78      1.0000 0.15629  0.74605  0.31130  Biso   1.000  O
  O79      1.0000 0.34371  0.24605  0.68870  Biso   1.000  O
  O80      1.0000 0.65629  0.25395  0.18870  Biso   1.000  O
  O81      1.0000 0.17880  0.15957  0.10139  Biso   1.000  O
  O82      1.0000 0.82120  0.34043  0.60139  Biso   1.000  O
  O83      1.0000 0.67880  0.84043  0.39861  Biso   1.000  O
  O84      1.0000 0.32120  0.65957  0.89861  Biso   1.000  O
  O85      1.0000 0.82120  0.84043  0.89861  Biso   1.000  O
  O86      1.0000 0.17880  0.65957  0.39861  Biso   1.000  O
  O87      1.0000 0.32120  0.15957  0.60139  Biso   1.000  O
  O88      1.0000 0.67880  0.34043  0.10139  Biso   1.000  O
  O89      1.0000 0.24041  0.32722  0.13236  Biso   1.000  O
  O90      1.0000 0.75959  0.17278  0.63236  Biso   1.000  O
  O91      1.0000 0.74041  0.67278  0.36764  Biso   1.000  O
  O92      1.0000 0.25959  0.82722  0.86764  Biso   1.000  O
  O93      1.0000 0.75959  0.67278  0.86764  Biso   1.000  O
  O94      1.0000 0.24041  0.82722  0.36764  Biso   1.000  O
  O95      1.0000 0.25959  0.32722  0.63236  Biso   1.000  O
  O96      1.0000 0.74041  0.17278  0.13236  Biso   1.000  O
  O97      1.0000 0.96583  0.17777  0.09287  Biso   1.000  O
  O98      1.0000 0.03417  0.32223  0.59287  Biso   1.000  O
  O99      1.0000 0.46583  0.82223  0.40713  Biso   1.000  O
  O100     1.0000 0.53417  0.67777  0.90713  Biso   1.000  O
  O101     1.0000 0.03417  0.82223  0.90713  Biso   1.000  O
  O102     1.0000 0.96583  0.67777  0.40713  Biso   1.000  O
  O103     1.0000 0.53417  0.17777  0.59287  Biso   1.000  O
  O104     1.0000 0.46583  0.32223  0.09287  Biso   1.000  O
  O105     1.0000 0.92660  0.24227  0.17538  Biso   1.000  O
  O106     1.0000 0.07340  0.25773  0.67538  Biso   1.000  O
  O107     1.0000 0.42660  0.75773  0.32462  Biso   1.000  O
  O108     1.0000 0.57340  0.74227  0.82462  Biso   1.000  O
  O109     1.0000 0.07340  0.75773  0.82462  Biso   1.000  O
  O110     1.0000 0.92660  0.74227  0.32462  Biso   1.000  O
  O111     1.0000 0.57340  0.24227  0.67538  Biso   1.000  O
  O112     1.0000 0.42660  0.25773  0.17538  Biso   1.000  O
  O113     1.0000 0.81800  0.38581  0.19827  Biso   1.000  O
  O114     1.0000 0.18200  0.11419  0.69827  Biso   1.000  O
  O115     1.0000 0.31800  0.61419  0.30173  Biso   1.000  O
  O116     1.0000 0.68200  0.88581  0.80173  Biso   1.000  O
  O117     1.0000 0.18200  0.61419  0.80173  Biso   1.000  O
  O118     1.0000 0.81800  0.88581  0.30173  Biso   1.000  O
  O119     1.0000 0.68200  0.38581  0.69827  Biso   1.000  O
  O120     1.0000 0.31800  0.11419  0.19827  Biso   1.000  O
  Cl1      1.0000 0.79660  0.57297  0.12968  Biso   1.000  Cl
  Cl2      1.0000 0.20340  0.92703  0.62969  Biso   1.000  Cl
  Cl3      1.0000 0.29660  0.42703  0.37032  Biso   1.000  Cl
  Cl4      1.0000 0.70340  0.07297  0.87031  Biso   1.000  Cl
  Cl5      1.0000 0.20340  0.42703  0.87031  Biso   1.000  Cl
  Cl6      1.0000 0.79660  0.07297  0.37032  Biso   1.000  Cl
  Cl7      1.0000 0.70340  0.57297  0.62969  Biso   1.000  Cl
  Cl8      1.0000 0.29660  0.92703  0.12968  Biso   1.000  Cl
  O121     1.0000 0.88544  0.54140  0.12496  Biso   1.000  O
  O122     1.0000 0.11456  0.95860  0.62496  Biso   1.000  O
  O123     1.0000 0.38544  0.45860  0.37504  Biso   1.000  O
  O124     1.0000 0.61456  0.04140  0.87504  Biso   1.000  O
  O125     1.0000 0.11456  0.45860  0.87504  Biso   1.000  O
  O126     1.0000 0.88544  0.04140  0.37504  Biso   1.000  O
  O127     1.0000 0.61456  0.54140  0.62496  Biso   1.000  O
  O128     1.0000 0.38544  0.95860  0.12496  Biso   1.000  O
  O129     1.0000 0.79237  0.66442  0.12220  Biso   1.000  O
  O130     1.0000 0.20763  0.83558  0.62220  Biso   1.000  O
  O131     1.0000 0.29237  0.33558  0.37780  Biso   1.000  O
  O132     1.0000 0.70763  0.16442  0.87780  Biso   1.000  O
  O133     1.0000 0.20763  0.33558  0.87780  Biso   1.000  O
  O134     1.0000 0.79237  0.16442  0.37780  Biso   1.000  O
  O135     1.0000 0.70763  0.66442  0.62220  Biso   1.000  O
  O136     1.0000 0.29237  0.83558  0.12220  Biso   1.000  O
  O137     1.0000 0.73770  0.52647  0.10513  Biso   1.000  O
  O138     1.0000 0.26230  0.97353  0.60513  Biso   1.000  O
  O139     1.0000 0.23770  0.47353  0.39487  Biso   1.000  O
  O140     1.0000 0.76230  0.02647  0.89487  Biso   1.000  O
  O141     1.0000 0.26230  0.47353  0.89487  Biso   1.000  O
  O142     1.0000 0.73770  0.02647  0.39487  Biso   1.000  O
  O143     1.0000 0.76230  0.52647  0.60513  Biso   1.000  O
  O144     1.0000 0.23770  0.97353  0.10513  Biso   1.000  O
  O145     1.0000 0.75614  0.55452  0.15983  Biso   1.000  O
  O146     1.0000 0.24386  0.94548  0.65983  Biso   1.000  O
  O147     1.0000 0.25614  0.44548  0.34017  Biso   1.000  O
  O148     1.0000 0.74386  0.05452  0.84017  Biso   1.000  O
  O149     1.0000 0.24386  0.44548  0.84017  Biso   1.000  O
  O150     1.0000 0.75614  0.05452  0.34017  Biso   1.000  O
  O151     1.0000 0.74386  0.55452  0.65983  Biso   1.000  O
  O152     1.0000 0.25614  0.94548  0.15983  Biso   1.000  O
  Cl9      1.0000 0.34115  0.52452  0.06548  Biso   1.000  Cl
  Cl10     1.0000 0.65885  0.97548  0.56548  Biso   1.000  Cl
  Cl11     1.0000 0.84115  0.47548  0.43452  Biso   1.000  Cl
  Cl12     1.0000 0.15885  0.02452  0.93452  Biso   1.000  Cl
  Cl13     1.0000 0.65885  0.47548  0.93452  Biso   1.000  Cl
  Cl14     1.0000 0.34115  0.02452  0.43452  Biso   1.000  Cl
  Cl15     1.0000 0.15885  0.52452  0.56548  Biso   1.000  Cl
  Cl16     1.0000 0.84115  0.97548  0.06548  Biso   1.000  Cl
  O153     1.0000 0.30225  0.52618  0.03174  Biso   1.000  O
  O154     1.0000 0.69775  0.97382  0.53174  Biso   1.000  O
  O155     1.0000 0.80225  0.47382  0.46826  Biso   1.000  O
  O156     1.0000 0.19775  0.02618  0.96826  Biso   1.000  O
  O157     1.0000 0.69775  0.47382  0.96826  Biso   1.000  O
  O158     1.0000 0.30225  0.02618  0.46826  Biso   1.000  O
  O159     1.0000 0.19775  0.52618  0.53174  Biso   1.000  O
  O160     1.0000 0.80225  0.97382  0.03174  Biso   1.000  O
  O161     1.0000 0.44291  0.51125  0.06460  Biso   1.000  O
  O162     1.0000 0.55709  0.98875  0.56460  Biso   1.000  O
  O163     1.0000 0.94291  0.48875  0.43540  Biso   1.000  O
  O164     1.0000 0.05709  0.01125  0.93540  Biso   1.000  O
  O165     1.0000 0.55709  0.48875  0.93540  Biso   1.000  O
  O166     1.0000 0.44291  0.01125  0.43540  Biso   1.000  O
  O167     1.0000 0.05709  0.51125  0.56460  Biso   1.000  O
  O168     1.0000 0.94291  0.98875  0.06460  Biso   1.000  O
  O169     1.0000 0.31801  0.60621  0.08184  Biso   1.000  O
  O170     1.0000 0.68199  0.89379  0.58184  Biso   1.000  O
  O171     1.0000 0.81801  0.39379  0.41816  Biso   1.000  O
  O172     1.0000 0.18199  0.10621  0.91816  Biso   1.000  O
  O173     1.0000 0.68199  0.39379  0.91816  Biso   1.000  O
  O174     1.0000 0.31801  0.10621  0.41816  Biso   1.000  O
  O175     1.0000 0.18199  0.60621  0.58184  Biso   1.000  O
  O176     1.0000 0.81801  0.89379  0.08184  Biso   1.000  O
  O177     1.0000 0.30050  0.45022  0.08297  Biso   1.000  O
  O178     1.0000 0.69950  0.04978  0.58297  Biso   1.000  O
  O179     1.0000 0.80050  0.54978  0.41703  Biso   1.000  O
  O180     1.0000 0.19950  0.95022  0.91703  Biso   1.000  O
  O181     1.0000 0.69950  0.54978  0.91703  Biso   1.000  O
  O182     1.0000 0.30050  0.95022  0.41703  Biso   1.000  O
  O183     1.0000 0.19950  0.45022  0.58297  Biso   1.000  O
  O184     1.0000 0.80050  0.04978  0.08297  Biso   1.000  O
  Cl17     1.0000 0.81711  0.59572  0.25836  Biso   1.000  Cl
  Cl18     1.0000 0.18289  0.90428  0.75836  Biso   1.000  Cl
  Cl19     1.0000 0.31711  0.40428  0.24164  Biso   1.000  Cl
  Cl20     1.0000 0.68289  0.09572  0.74164  Biso   1.000  Cl
  Cl21     1.0000 0.18289  0.40428  0.74164  Biso   1.000  Cl
  Cl22     1.0000 0.81711  0.09572  0.24164  Biso   1.000  Cl
  Cl23     1.0000 0.68289  0.59572  0.75836  Biso   1.000  Cl
  Cl24     1.0000 0.31711  0.90428  0.25836  Biso   1.000  Cl
  O185     1.0000 0.88106  0.53880  0.24516  Biso   1.000  O
  O186     1.0000 0.11894  0.96120  0.74516  Biso   1.000  O
  O187     1.0000 0.38106  0.46120  0.25484  Biso   1.000  O
  O188     1.0000 0.61894  0.03880  0.75484  Biso   1.000  O
  O189     1.0000 0.11894  0.46120  0.75484  Biso   1.000  O
  O190     1.0000 0.88106  0.03880  0.25484  Biso   1.000  O
  O191     1.0000 0.61894  0.53880  0.74516  Biso   1.000  O
  O192     1.0000 0.38106  0.96120  0.24516  Biso   1.000  O
  O193     1.0000 0.86225  0.67621  0.25287  Biso   1.000  O
  O194     1.0000 0.13775  0.82379  0.75287  Biso   1.000  O
  O195     1.0000 0.36225  0.32379  0.24713  Biso   1.000  O
  O196     1.0000 0.63775  0.17621  0.74713  Biso   1.000  O
  O197     1.0000 0.13775  0.32379  0.74713  Biso   1.000  O
  O198     1.0000 0.86225  0.17621  0.24713  Biso   1.000  O
  O199     1.0000 0.63775  0.67621  0.75287  Biso   1.000  O
  O200     1.0000 0.36225  0.82379  0.25287  Biso   1.000  O
  O201     1.0000 0.80804  0.58662  0.29365  Biso   1.000  O
  O202     1.0000 0.19196  0.91338  0.79365  Biso   1.000  O
  O203     1.0000 0.30804  0.41338  0.20635  Biso   1.000  O
  O204     1.0000 0.69196  0.08662  0.70635  Biso   1.000  O
  O205     1.0000 0.19196  0.41338  0.70635  Biso   1.000  O
  O206     1.0000 0.80804  0.08662  0.20635  Biso   1.000  O
  O207     1.0000 0.69196  0.58662  0.79365  Biso   1.000  O
  O208     1.0000 0.30804  0.91338  0.29365  Biso   1.000  O
  O209     1.0000 0.72953  0.59305  0.24048  Biso   1.000  O
  O210     1.0000 0.27047  0.90695  0.74048  Biso   1.000  O
  O211     1.0000 0.22953  0.40695  0.25952  Biso   1.000  O
  O212     1.0000 0.77047  0.09305  0.75952  Biso   1.000  O
  O213     1.0000 0.27047  0.40695  0.75952  Biso   1.000  O
  O214     1.0000 0.72953  0.09305  0.25952  Biso   1.000  O
  O215     1.0000 0.77047  0.59305  0.74048  Biso   1.000  O
  O216     1.0000 0.22953  0.90695  0.24048  Biso   1.000  O
