data_image0
_cell_length_a       13.7046
_cell_length_b       14.8745
_cell_length_c       39.4457
_cell_angle_alpha    90
_cell_angle_beta     90
_cell_angle_gamma    90

_symmetry_space_group_name_H-M    "P 1"
_symmetry_int_tables_number       1

loop_
  _symmetry_equiv_pos_as_xyz
  'x, y, z'

loop_
  _atom_site_label
  _atom_site_occupancy
  _atom_site_fract_x
  _atom_site_fract_y
  _atom_site_fract_z
  _atom_site_thermal_displace_type
  _atom_site_B_iso_or_equiv
  _atom_site_type_symbol
  Pr1      1.0000 0.06611  0.26330  0.13456  Biso   1.000  Pr
  Pr2      1.0000 0.93389  0.23670  0.63456  Biso   1.000  Pr
  Pr3      1.0000 0.56611  0.73670  0.36544  Biso   1.000  Pr
  Pr4      1.0000 0.43389  0.76330  0.86544  Biso   1.000  Pr
  Pr5      1.0000 0.93389  0.73670  0.86544  Biso   1.000  Pr
  Pr6      1.0000 0.06611  0.76330  0.36544  Biso   1.000  Pr
  Pr7      1.0000 0.43389  0.26330  0.63456  Biso   1.000  Pr
  Pr8      1.0000 0.56611  0.23670  0.13456  Biso   1.000  Pr
  Cu1      1.0000 0.06523  0.50054  0.25471  Biso   1.000  Cu
  Cu2      1.0000 0.93477  0.99946  0.75471  Biso   1.000  Cu
  Cu3      1.0000 0.56523  0.49946  0.24529  Biso   1.000  Cu
  Cu4      1.0000 0.43477  0.00054  0.74529  Biso   1.000  Cu
  Cu5      1.0000 0.93477  0.49946  0.74529  Biso   1.000  Cu
  Cu6      1.0000 0.06523  0.00054  0.24529  Biso   1.000  Cu
  Cu7      1.0000 0.43477  0.50054  0.75471  Biso   1.000  Cu
  Cu8      1.0000 0.56523  0.99946  0.25471  Biso   1.000  Cu
  O1       1.0000 0.04040  0.41911  0.21748  Biso   1.000  O
  O2       1.0000 0.95960  0.08089  0.71748  Biso   1.000  O
  O3       1.0000 0.54040  0.58089  0.28252  Biso   1.000  O
  O4       1.0000 0.45960  0.91911  0.78252  Biso   1.000  O
  O5       1.0000 0.95960  0.58089  0.78252  Biso   1.000  O
  O6       1.0000 0.04040  0.91911  0.28252  Biso   1.000  O
  O7       1.0000 0.45960  0.41911  0.71748  Biso   1.000  O
  O8       1.0000 0.54040  0.08089  0.21748  Biso   1.000  O
  O9       1.0000 0.05810  0.40768  0.16139  Biso   1.000  O
  O10      1.0000 0.94190  0.09232  0.66139  Biso   1.000  O
  O11      1.0000 0.55810  0.59232  0.33861  Biso   1.000  O
  O12      1.0000 0.44190  0.90768  0.83861  Biso   1.000  O
  O13      1.0000 0.94190  0.59232  0.83861  Biso   1.000  O
  O14      1.0000 0.05810  0.90768  0.33861  Biso   1.000  O
  O15      1.0000 0.44190  0.40768  0.66139  Biso   1.000  O
  O16      1.0000 0.55810  0.09232  0.16139  Biso   1.000  O
  N1       1.0000 0.11710  0.58017  0.21849  Biso   1.000  N
  N2       1.0000 0.88290  0.91983  0.71849  Biso   1.000  N
  N3       1.0000 0.61710  0.41983  0.28151  Biso   1.000  N
  N4       1.0000 0.38290  0.08017  0.78151  Biso   1.000  N
  N5       1.0000 0.88290  0.41983  0.78151  Biso   1.000  N
  N6       1.0000 0.11710  0.08017  0.28151  Biso   1.000  N
  N7       1.0000 0.38290  0.58017  0.71849  Biso   1.000  N
  N8       1.0000 0.61710  0.91983  0.21849  Biso   1.000  N
  C1       1.0000 0.06480  0.44840  0.18879  Biso   1.000  C
  C2       1.0000 0.93520  0.05160  0.68879  Biso   1.000  C
  C3       1.0000 0.56480  0.55160  0.31121  Biso   1.000  C
  C4       1.0000 0.43520  0.94840  0.81121  Biso   1.000  C
  C5       1.0000 0.93520  0.55160  0.81121  Biso   1.000  C
  C6       1.0000 0.06480  0.94840  0.31121  Biso   1.000  C
  C7       1.0000 0.43520  0.44840  0.68879  Biso   1.000  C
  C8       1.0000 0.56480  0.05160  0.18879  Biso   1.000  C
  C9       1.0000 0.10950  0.54180  0.18786  Biso   1.000  C
  C10      1.0000 0.89050  0.95820  0.68786  Biso   1.000  C
  C11      1.0000 0.60950  0.45820  0.31214  Biso   1.000  C
  C12      1.0000 0.39050  0.04180  0.81214  Biso   1.000  C
  C13      1.0000 0.89050  0.45820  0.81214  Biso   1.000  C
  C14      1.0000 0.10950  0.04180  0.31214  Biso   1.000  C
  C15      1.0000 0.39050  0.54180  0.68786  Biso   1.000  C
  C16      1.0000 0.60950  0.95820  0.18786  Biso   1.000  C
  C17      1.0000 0.14220  0.58350  0.15872  Biso   1.000  C
  C18      1.0000 0.85780  0.91650  0.65872  Biso   1.000  C
  C19      1.0000 0.64220  0.41650  0.34128  Biso   1.000  C
  C20      1.0000 0.35780  0.08350  0.84128  Biso   1.000  C
  C21      1.0000 0.85780  0.41650  0.84128  Biso   1.000  C
  C22      1.0000 0.14220  0.08350  0.34128  Biso   1.000  C
  C23      1.0000 0.35780  0.58350  0.65872  Biso   1.000  C
  C24      1.0000 0.64220  0.91650  0.15872  Biso   1.000  C
  H1       1.0000 0.13600  0.55520  0.13780  Biso   1.000  H
  H2       1.0000 0.86400  0.94480  0.63780  Biso   1.000  H
  H3       1.0000 0.63600  0.44480  0.36220  Biso   1.000  H
  H4       1.0000 0.36400  0.05520  0.86220  Biso   1.000  H
  H5       1.0000 0.86400  0.44480  0.86220  Biso   1.000  H
  H6       1.0000 0.13600  0.05520  0.36220  Biso   1.000  H
  H7       1.0000 0.36400  0.55520  0.63780  Biso   1.000  H
  H8       1.0000 0.63600  0.94480  0.13780  Biso   1.000  H
  C25      1.0000 0.18350  0.66610  0.16088  Biso   1.000  C
  C26      1.0000 0.81650  0.83390  0.66088  Biso   1.000  C
  C27      1.0000 0.68350  0.33390  0.33912  Biso   1.000  C
  C28      1.0000 0.31650  0.16610  0.83912  Biso   1.000  C
  C29      1.0000 0.81650  0.33390  0.83912  Biso   1.000  C
  C30      1.0000 0.18350  0.16610  0.33912  Biso   1.000  C
  C31      1.0000 0.31650  0.66610  0.66088  Biso   1.000  C
  C32      1.0000 0.68350  0.83390  0.16088  Biso   1.000  C
  H9       1.0000 0.20560  0.69540  0.14150  Biso   1.000  H
  H10      1.0000 0.79440  0.80460  0.64150  Biso   1.000  H
  H11      1.0000 0.70560  0.30460  0.35850  Biso   1.000  H
  H12      1.0000 0.29440  0.19540  0.85850  Biso   1.000  H
  H13      1.0000 0.79440  0.30460  0.85850  Biso   1.000  H
  H14      1.0000 0.20560  0.19540  0.35850  Biso   1.000  H
  H15      1.0000 0.29440  0.69540  0.64150  Biso   1.000  H
  H16      1.0000 0.70560  0.80460  0.14150  Biso   1.000  H
  C33      1.0000 0.19220  0.70600  0.19243  Biso   1.000  C
  C34      1.0000 0.80780  0.79400  0.69243  Biso   1.000  C
  C35      1.0000 0.69220  0.29400  0.30757  Biso   1.000  C
  C36      1.0000 0.30780  0.20600  0.80757  Biso   1.000  C
  C37      1.0000 0.80780  0.29400  0.80757  Biso   1.000  C
  C38      1.0000 0.19220  0.20600  0.30757  Biso   1.000  C
  C39      1.0000 0.30780  0.70600  0.69243  Biso   1.000  C
  C40      1.0000 0.69220  0.79400  0.19243  Biso   1.000  C
  H17      1.0000 0.22090  0.76230  0.19450  Biso   1.000  H
  H18      1.0000 0.77910  0.73770  0.69450  Biso   1.000  H
  H19      1.0000 0.72090  0.23770  0.30550  Biso   1.000  H
  H20      1.0000 0.27910  0.26230  0.80550  Biso   1.000  H
  H21      1.0000 0.77910  0.23770  0.80550  Biso   1.000  H
  H22      1.0000 0.22090  0.26230  0.30550  Biso   1.000  H
  H23      1.0000 0.27910  0.76230  0.69450  Biso   1.000  H
  H24      1.0000 0.72090  0.73770  0.19450  Biso   1.000  H
  C41      1.0000 0.15810  0.66170  0.22054  Biso   1.000  C
  C42      1.0000 0.84190  0.83830  0.72054  Biso   1.000  C
  C43      1.0000 0.65810  0.33830  0.27946  Biso   1.000  C
  C44      1.0000 0.34190  0.16170  0.77946  Biso   1.000  C
  C45      1.0000 0.84190  0.33830  0.77946  Biso   1.000  C
  C46      1.0000 0.15810  0.16170  0.27946  Biso   1.000  C
  C47      1.0000 0.34190  0.66170  0.72054  Biso   1.000  C
  C48      1.0000 0.65810  0.83830  0.22054  Biso   1.000  C
  H25      1.0000 0.16370  0.68910  0.24160  Biso   1.000  H
  H26      1.0000 0.83630  0.81090  0.74160  Biso   1.000  H
  H27      1.0000 0.66370  0.31090  0.25840  Biso   1.000  H
  H28      1.0000 0.33630  0.18910  0.75840  Biso   1.000  H
  H29      1.0000 0.83630  0.31090  0.75840  Biso   1.000  H
  H30      1.0000 0.16370  0.18910  0.25840  Biso   1.000  H
  H31      1.0000 0.33630  0.68910  0.74160  Biso   1.000  H
  H32      1.0000 0.66370  0.81090  0.24160  Biso   1.000  H
  O17      1.0000 0.08280  0.08283  0.20748  Biso   1.000  O
  O18      1.0000 0.91720  0.41717  0.70748  Biso   1.000  O
  O19      1.0000 0.58280  0.91717  0.29252  Biso   1.000  O
  O20      1.0000 0.41720  0.58283  0.79252  Biso   1.000  O
  O21      1.0000 0.91720  0.91717  0.79252  Biso   1.000  O
  O22      1.0000 0.08280  0.58283  0.29252  Biso   1.000  O
  O23      1.0000 0.41720  0.08283  0.70748  Biso   1.000  O
  O24      1.0000 0.58280  0.41717  0.20748  Biso   1.000  O
  O25      1.0000 0.05270  0.09912  0.15216  Biso   1.000  O
  O26      1.0000 0.94730  0.40088  0.65216  Biso   1.000  O
  O27      1.0000 0.55270  0.90088  0.34784  Biso   1.000  O
  O28      1.0000 0.44730  0.59912  0.84784  Biso   1.000  O
  O29      1.0000 0.94730  0.90088  0.84784  Biso   1.000  O
  O30      1.0000 0.05270  0.59912  0.34784  Biso   1.000  O
  O31      1.0000 0.44730  0.09912  0.65216  Biso   1.000  O
  O32      1.0000 0.55270  0.40088  0.15216  Biso   1.000  O
  N9       1.0000 0.01580  0.91959  0.20937  Biso   1.000  N
  N10      1.0000 0.98420  0.58041  0.70937  Biso   1.000  N
  N11      1.0000 0.51580  0.08041  0.29063  Biso   1.000  N
  N12      1.0000 0.48420  0.41959  0.79063  Biso   1.000  N
  N13      1.0000 0.98420  0.08041  0.79063  Biso   1.000  N
  N14      1.0000 0.01580  0.41959  0.29063  Biso   1.000  N
  N15      1.0000 0.48420  0.91959  0.70937  Biso   1.000  N
  N16      1.0000 0.51580  0.58041  0.20937  Biso   1.000  N
  C49      1.0000 0.05290  0.05450  0.17888  Biso   1.000  C
  C50      1.0000 0.94710  0.44550  0.67888  Biso   1.000  C
  C51      1.0000 0.55290  0.94550  0.32112  Biso   1.000  C
  C52      1.0000 0.44710  0.55450  0.82112  Biso   1.000  C
  C53      1.0000 0.94710  0.94550  0.82112  Biso   1.000  C
  C54      1.0000 0.05290  0.55450  0.32112  Biso   1.000  C
  C55      1.0000 0.44710  0.05450  0.67888  Biso   1.000  C
  C56      1.0000 0.55290  0.44550  0.17888  Biso   1.000  C
  C57      1.0000 0.01590  0.95890  0.17826  Biso   1.000  C
  C58      1.0000 0.98410  0.54110  0.67826  Biso   1.000  C
  C59      1.0000 0.51590  0.04110  0.32174  Biso   1.000  C
  C60      1.0000 0.48410  0.45890  0.82174  Biso   1.000  C
  C61      1.0000 0.98410  0.04110  0.82174  Biso   1.000  C
  C62      1.0000 0.01590  0.45890  0.32174  Biso   1.000  C
  C63      1.0000 0.48410  0.95890  0.67826  Biso   1.000  C
  C64      1.0000 0.51590  0.54110  0.17826  Biso   1.000  C
  C65      1.0000 0.98350  0.91480  0.14974  Biso   1.000  C
  C66      1.0000 0.01650  0.58520  0.64974  Biso   1.000  C
  C67      1.0000 0.48350  0.08520  0.35026  Biso   1.000  C
  C68      1.0000 0.51650  0.41480  0.85026  Biso   1.000  C
  C69      1.0000 0.01650  0.08520  0.85026  Biso   1.000  C
  C70      1.0000 0.98350  0.41480  0.35026  Biso   1.000  C
  C71      1.0000 0.51650  0.91480  0.64974  Biso   1.000  C
  C72      1.0000 0.48350  0.58520  0.14974  Biso   1.000  C
  H33      1.0000 0.98430  0.94310  0.12870  Biso   1.000  H
  H34      1.0000 0.01570  0.55690  0.62870  Biso   1.000  H
  H35      1.0000 0.48430  0.05690  0.37130  Biso   1.000  H
  H36      1.0000 0.51570  0.44310  0.87130  Biso   1.000  H
  H37      1.0000 0.01570  0.05690  0.87130  Biso   1.000  H
  H38      1.0000 0.98430  0.44310  0.37130  Biso   1.000  H
  H39      1.0000 0.51570  0.94310  0.62870  Biso   1.000  H
  H40      1.0000 0.48430  0.55690  0.12870  Biso   1.000  H
  C73      1.0000 0.94990  0.82800  0.15291  Biso   1.000  C
  C74      1.0000 0.05010  0.67200  0.65291  Biso   1.000  C
  C75      1.0000 0.44990  0.17200  0.34709  Biso   1.000  C
  C76      1.0000 0.55010  0.32800  0.84709  Biso   1.000  C
  C77      1.0000 0.05010  0.17200  0.84709  Biso   1.000  C
  C78      1.0000 0.94990  0.32800  0.34709  Biso   1.000  C
  C79      1.0000 0.55010  0.82800  0.65291  Biso   1.000  C
  C80      1.0000 0.44990  0.67200  0.15291  Biso   1.000  C
  H41      1.0000 0.92810  0.79660  0.13400  Biso   1.000  H
  H42      1.0000 0.07190  0.70340  0.63400  Biso   1.000  H
  H43      1.0000 0.42810  0.20340  0.36600  Biso   1.000  H
  H44      1.0000 0.57190  0.29660  0.86600  Biso   1.000  H
  H45      1.0000 0.07190  0.20340  0.86600  Biso   1.000  H
  H46      1.0000 0.92810  0.29660  0.36600  Biso   1.000  H
  H47      1.0000 0.57190  0.79660  0.63400  Biso   1.000  H
  H48      1.0000 0.42810  0.70340  0.13400  Biso   1.000  H
  C81      1.0000 0.94900  0.78770  0.18484  Biso   1.000  C
  C82      1.0000 0.05100  0.71230  0.68484  Biso   1.000  C
  C83      1.0000 0.44900  0.21230  0.31516  Biso   1.000  C
  C84      1.0000 0.55100  0.28770  0.81516  Biso   1.000  C
  C85      1.0000 0.05100  0.21230  0.81516  Biso   1.000  C
  C86      1.0000 0.94900  0.28770  0.31516  Biso   1.000  C
  C87      1.0000 0.55100  0.78770  0.68484  Biso   1.000  C
  C88      1.0000 0.44900  0.71230  0.18484  Biso   1.000  C
  H49      1.0000 0.92700  0.72890  0.18740  Biso   1.000  H
  H50      1.0000 0.07300  0.77110  0.68740  Biso   1.000  H
  H51      1.0000 0.42700  0.27110  0.31260  Biso   1.000  H
  H52      1.0000 0.57300  0.22890  0.81260  Biso   1.000  H
  H53      1.0000 0.07300  0.27110  0.81260  Biso   1.000  H
  H54      1.0000 0.92700  0.22890  0.31260  Biso   1.000  H
  H55      1.0000 0.57300  0.72890  0.68740  Biso   1.000  H
  H56      1.0000 0.42700  0.77110  0.18740  Biso   1.000  H
  C89      1.0000 0.98090  0.83540  0.21241  Biso   1.000  C
  C90      1.0000 0.01910  0.66460  0.71241  Biso   1.000  C
  C91      1.0000 0.48090  0.16460  0.28759  Biso   1.000  C
  C92      1.0000 0.51910  0.33540  0.78759  Biso   1.000  C
  C93      1.0000 0.01910  0.16460  0.78759  Biso   1.000  C
  C94      1.0000 0.98090  0.33540  0.28759  Biso   1.000  C
  C95      1.0000 0.51910  0.83540  0.71241  Biso   1.000  C
  C96      1.0000 0.48090  0.66460  0.21241  Biso   1.000  C
  H57      1.0000 0.97840  0.80900  0.23380  Biso   1.000  H
  H58      1.0000 0.02160  0.69100  0.73380  Biso   1.000  H
  H59      1.0000 0.47840  0.19100  0.26620  Biso   1.000  H
  H60      1.0000 0.52160  0.30900  0.76620  Biso   1.000  H
  H61      1.0000 0.02160  0.19100  0.76620  Biso   1.000  H
  H62      1.0000 0.97840  0.30900  0.26620  Biso   1.000  H
  H63      1.0000 0.52160  0.80900  0.73380  Biso   1.000  H
  H64      1.0000 0.47840  0.69100  0.23380  Biso   1.000  H
  Cu9      1.0000 0.12656  0.54413  0.01657  Biso   1.000  Cu
  Cu10     1.0000 0.87344  0.95587  0.51657  Biso   1.000  Cu
  Cu11     1.0000 0.62656  0.45587  0.48343  Biso   1.000  Cu
  Cu12     1.0000 0.37344  0.04413  0.98343  Biso   1.000  Cu
  Cu13     1.0000 0.87344  0.45587  0.98343  Biso   1.000  Cu
  Cu14     1.0000 0.12656  0.04413  0.48343  Biso   1.000  Cu
  Cu15     1.0000 0.37344  0.54413  0.51657  Biso   1.000  Cu
  Cu16     1.0000 0.62656  0.95587  0.01657  Biso   1.000  Cu
  O33      1.0000 0.09114  0.48933  0.05986  Biso   1.000  O
  O34      1.0000 0.90886  0.01067  0.55986  Biso   1.000  O
  O35      1.0000 0.59114  0.51067  0.44014  Biso   1.000  O
  O36      1.0000 0.40886  0.98933  0.94014  Biso   1.000  O
  O37      1.0000 0.90886  0.51067  0.94014  Biso   1.000  O
  O38      1.0000 0.09114  0.98933  0.44014  Biso   1.000  O
  O39      1.0000 0.40886  0.48933  0.55986  Biso   1.000  O
  O40      1.0000 0.59114  0.01067  0.05986  Biso   1.000  O
  O41      1.0000 0.09080  0.35387  0.08443  Biso   1.000  O
  O42      1.0000 0.90920  0.14613  0.58443  Biso   1.000  O
  O43      1.0000 0.59080  0.64613  0.41557  Biso   1.000  O
  O44      1.0000 0.40920  0.85387  0.91557  Biso   1.000  O
  O45      1.0000 0.90920  0.64613  0.91557  Biso   1.000  O
  O46      1.0000 0.09080  0.85387  0.41557  Biso   1.000  O
  O47      1.0000 0.40920  0.35387  0.58443  Biso   1.000  O
  O48      1.0000 0.59080  0.14613  0.08443  Biso   1.000  O
  N17      1.0000 0.11860  0.41920  0.99911  Biso   1.000  N
  N18      1.0000 0.88140  0.08080  0.49911  Biso   1.000  N
  N19      1.0000 0.61860  0.58080  0.50089  Biso   1.000  N
  N20      1.0000 0.38140  0.91920  0.00089  Biso   1.000  N
  N21      1.0000 0.88140  0.58080  0.00089  Biso   1.000  N
  N22      1.0000 0.11860  0.91920  0.50089  Biso   1.000  N
  N23      1.0000 0.38140  0.41920  0.49911  Biso   1.000  N
  N24      1.0000 0.61860  0.08080  0.99911  Biso   1.000  N
  C97      1.0000 0.09610  0.40430  0.05943  Biso   1.000  C
  C98      1.0000 0.90390  0.09570  0.55943  Biso   1.000  C
  C99      1.0000 0.59610  0.59570  0.44057  Biso   1.000  C
  C100     1.0000 0.40390  0.90430  0.94057  Biso   1.000  C
  C101     1.0000 0.90390  0.59570  0.94057  Biso   1.000  C
  C102     1.0000 0.09610  0.90430  0.44057  Biso   1.000  C
  C103     1.0000 0.40390  0.40430  0.55943  Biso   1.000  C
  C104     1.0000 0.59610  0.09570  0.05943  Biso   1.000  C
  C105     1.0000 0.10780  0.36030  0.02494  Biso   1.000  C
  C106     1.0000 0.89220  0.13970  0.52494  Biso   1.000  C
  C107     1.0000 0.60780  0.63970  0.47506  Biso   1.000  C
  C108     1.0000 0.39220  0.86030  0.97506  Biso   1.000  C
  C109     1.0000 0.89220  0.63970  0.97506  Biso   1.000  C
  C110     1.0000 0.10780  0.86030  0.47506  Biso   1.000  C
  C111     1.0000 0.39220  0.36030  0.52494  Biso   1.000  C
  C112     1.0000 0.60780  0.13970  0.02494  Biso   1.000  C
  C113     1.0000 0.10630  0.26940  0.01954  Biso   1.000  C
  C114     1.0000 0.89370  0.23060  0.51954  Biso   1.000  C
  C115     1.0000 0.60630  0.73060  0.48046  Biso   1.000  C
  C116     1.0000 0.39370  0.76940  0.98046  Biso   1.000  C
  C117     1.0000 0.89370  0.73060  0.98046  Biso   1.000  C
  C118     1.0000 0.10630  0.76940  0.48046  Biso   1.000  C
  C119     1.0000 0.39370  0.26940  0.51954  Biso   1.000  C
  C120     1.0000 0.60630  0.23060  0.01954  Biso   1.000  C
  H65      1.0000 0.09900  0.22970  0.03760  Biso   1.000  H
  H66      1.0000 0.90100  0.27030  0.53760  Biso   1.000  H
  H67      1.0000 0.59900  0.77030  0.46240  Biso   1.000  H
  H68      1.0000 0.40100  0.72970  0.96240  Biso   1.000  H
  H69      1.0000 0.90100  0.77030  0.96240  Biso   1.000  H
  H70      1.0000 0.09900  0.72970  0.46240  Biso   1.000  H
  H71      1.0000 0.40100  0.22970  0.53760  Biso   1.000  H
  H72      1.0000 0.59900  0.27030  0.03760  Biso   1.000  H
  C121     1.0000 0.11560  0.23810  0.98681  Biso   1.000  C
  C122     1.0000 0.88440  0.26190  0.48681  Biso   1.000  C
  C123     1.0000 0.61560  0.76190  0.51319  Biso   1.000  C
  C124     1.0000 0.38440  0.73810  0.01319  Biso   1.000  C
  C125     1.0000 0.88440  0.76190  0.01319  Biso   1.000  C
  C126     1.0000 0.11560  0.73810  0.51319  Biso   1.000  C
  C127     1.0000 0.38440  0.23810  0.48681  Biso   1.000  C
  C128     1.0000 0.61560  0.26190  0.98681  Biso   1.000  C
  H73      1.0000 0.11420  0.17670  0.98240  Biso   1.000  H
  H74      1.0000 0.88580  0.32330  0.48240  Biso   1.000  H
  H75      1.0000 0.61420  0.82330  0.51760  Biso   1.000  H
  H76      1.0000 0.38580  0.67670  0.01760  Biso   1.000  H
  H77      1.0000 0.88580  0.82330  0.01760  Biso   1.000  H
  H78      1.0000 0.11420  0.67670  0.51760  Biso   1.000  H
  H79      1.0000 0.38580  0.17670  0.48240  Biso   1.000  H
  H80      1.0000 0.61420  0.32330  0.98240  Biso   1.000  H
  C129     1.0000 0.12720  0.29880  0.96055  Biso   1.000  C
  C130     1.0000 0.87280  0.20120  0.46055  Biso   1.000  C
  C131     1.0000 0.62720  0.70120  0.53945  Biso   1.000  C
  C132     1.0000 0.37280  0.79880  0.03945  Biso   1.000  C
  C133     1.0000 0.87280  0.70120  0.03945  Biso   1.000  C
  C134     1.0000 0.12720  0.79880  0.53945  Biso   1.000  C
  C135     1.0000 0.37280  0.29880  0.46055  Biso   1.000  C
  C136     1.0000 0.62720  0.20120  0.96055  Biso   1.000  C
  H81      1.0000 0.13400  0.27830  0.93840  Biso   1.000  H
  H82      1.0000 0.86600  0.22170  0.43840  Biso   1.000  H
  H83      1.0000 0.63400  0.72170  0.56160  Biso   1.000  H
  H84      1.0000 0.36600  0.77830  0.06160  Biso   1.000  H
  H85      1.0000 0.86600  0.72170  0.06160  Biso   1.000  H
  H86      1.0000 0.13400  0.77830  0.56160  Biso   1.000  H
  H87      1.0000 0.36600  0.27830  0.43840  Biso   1.000  H
  H88      1.0000 0.63400  0.22170  0.93840  Biso   1.000  H
  C137     1.0000 0.12880  0.39020  0.96730  Biso   1.000  C
  C138     1.0000 0.87120  0.10980  0.46730  Biso   1.000  C
  C139     1.0000 0.62880  0.60980  0.53270  Biso   1.000  C
  C140     1.0000 0.37120  0.89020  0.03270  Biso   1.000  C
  C141     1.0000 0.87120  0.60980  0.03270  Biso   1.000  C
  C142     1.0000 0.12880  0.89020  0.53270  Biso   1.000  C
  C143     1.0000 0.37120  0.39020  0.46730  Biso   1.000  C
  C144     1.0000 0.62880  0.10980  0.96730  Biso   1.000  C
  H89      1.0000 0.13680  0.43120  0.94970  Biso   1.000  H
  H90      1.0000 0.86320  0.06880  0.44970  Biso   1.000  H
  H91      1.0000 0.63680  0.56880  0.55030  Biso   1.000  H
  H92      1.0000 0.36320  0.93120  0.05030  Biso   1.000  H
  H93      1.0000 0.86320  0.56880  0.05030  Biso   1.000  H
  H94      1.0000 0.13680  0.93120  0.55030  Biso   1.000  H
  H95      1.0000 0.36320  0.43120  0.44970  Biso   1.000  H
  H96      1.0000 0.63680  0.06880  0.94970  Biso   1.000  H
  O49      1.0000 0.14920  0.59463  0.97178  Biso   1.000  O
  O50      1.0000 0.85080  0.90537  0.47178  Biso   1.000  O
  O51      1.0000 0.64920  0.40537  0.52822  Biso   1.000  O
  O52      1.0000 0.35080  0.09463  0.02822  Biso   1.000  O
  O53      1.0000 0.85080  0.40537  0.02822  Biso   1.000  O
  O54      1.0000 0.14920  0.09463  0.52822  Biso   1.000  O
  O55      1.0000 0.35080  0.59463  0.47178  Biso   1.000  O
  O56      1.0000 0.64920  0.90537  0.97178  Biso   1.000  O
  O57      1.0000 0.16780  0.72552  0.94446  Biso   1.000  O
  O58      1.0000 0.83220  0.77448  0.44446  Biso   1.000  O
  O59      1.0000 0.66780  0.27448  0.55554  Biso   1.000  O
  O60      1.0000 0.33220  0.22552  0.05554  Biso   1.000  O
  O61      1.0000 0.83220  0.27448  0.05554  Biso   1.000  O
  O62      1.0000 0.16780  0.22552  0.55554  Biso   1.000  O
  O63      1.0000 0.33220  0.72552  0.44446  Biso   1.000  O
  O64      1.0000 0.66780  0.77448  0.94446  Biso   1.000  O
  N25      1.0000 0.12200  0.67212  0.03078  Biso   1.000  N
  N26      1.0000 0.87800  0.82788  0.53078  Biso   1.000  N
  N27      1.0000 0.62200  0.32788  0.46922  Biso   1.000  N
  N28      1.0000 0.37800  0.17212  0.96922  Biso   1.000  N
  N29      1.0000 0.87800  0.32788  0.96922  Biso   1.000  N
  N30      1.0000 0.12200  0.17212  0.46922  Biso   1.000  N
  N31      1.0000 0.37800  0.67212  0.53078  Biso   1.000  N
  N32      1.0000 0.62200  0.82788  0.03078  Biso   1.000  N
  C145     1.0000 0.15200  0.68090  0.97074  Biso   1.000  C
  C146     1.0000 0.84800  0.81910  0.47074  Biso   1.000  C
  C147     1.0000 0.65200  0.31910  0.52926  Biso   1.000  C
  C148     1.0000 0.34800  0.18090  0.02926  Biso   1.000  C
  C149     1.0000 0.84800  0.31910  0.02926  Biso   1.000  C
  C150     1.0000 0.15200  0.18090  0.52926  Biso   1.000  C
  C151     1.0000 0.34800  0.68090  0.47074  Biso   1.000  C
  C152     1.0000 0.65200  0.81910  0.97074  Biso   1.000  C
  C153     1.0000 0.13620  0.72720  0.00414  Biso   1.000  C
  C154     1.0000 0.86380  0.77280  0.50414  Biso   1.000  C
  C155     1.0000 0.63620  0.27280  0.49586  Biso   1.000  C
  C156     1.0000 0.36380  0.22720  0.99586  Biso   1.000  C
  C157     1.0000 0.86380  0.27280  0.99586  Biso   1.000  C
  C158     1.0000 0.13620  0.22720  0.49586  Biso   1.000  C
  C159     1.0000 0.36380  0.72720  0.50414  Biso   1.000  C
  C160     1.0000 0.63620  0.77280  0.00414  Biso   1.000  C
  C161     1.0000 0.13520  0.81960  0.00758  Biso   1.000  C
  C162     1.0000 0.86480  0.68040  0.50758  Biso   1.000  C
  C163     1.0000 0.63520  0.18040  0.49242  Biso   1.000  C
  C164     1.0000 0.36480  0.31960  0.99242  Biso   1.000  C
  C165     1.0000 0.86480  0.18040  0.99242  Biso   1.000  C
  C166     1.0000 0.13520  0.31960  0.49242  Biso   1.000  C
  C167     1.0000 0.36480  0.81960  0.50758  Biso   1.000  C
  C168     1.0000 0.63520  0.68040  0.00758  Biso   1.000  C
  H97      1.0000 0.14370  0.85700  0.98890  Biso   1.000  H
  H98      1.0000 0.85630  0.64300  0.48890  Biso   1.000  H
  H99      1.0000 0.64370  0.14300  0.51110  Biso   1.000  H
  H100     1.0000 0.35630  0.35700  0.01110  Biso   1.000  H
  H101     1.0000 0.85630  0.14300  0.01110  Biso   1.000  H
  H102     1.0000 0.14370  0.35700  0.51110  Biso   1.000  H
  H103     1.0000 0.35630  0.85700  0.48890  Biso   1.000  H
  H104     1.0000 0.64370  0.64300  0.98890  Biso   1.000  H
  C169     1.0000 0.12110  0.85490  0.04009  Biso   1.000  C
  C170     1.0000 0.87890  0.64510  0.54009  Biso   1.000  C
  C171     1.0000 0.62110  0.14510  0.45991  Biso   1.000  C
  C172     1.0000 0.37890  0.35490  0.95991  Biso   1.000  C
  C173     1.0000 0.87890  0.14510  0.95991  Biso   1.000  C
  C174     1.0000 0.12110  0.35490  0.45991  Biso   1.000  C
  C175     1.0000 0.37890  0.85490  0.54009  Biso   1.000  C
  C176     1.0000 0.62110  0.64510  0.04009  Biso   1.000  C
  H105     1.0000 0.11970  0.91680  0.04330  Biso   1.000  H
  H106     1.0000 0.88030  0.58320  0.54330  Biso   1.000  H
  H107     1.0000 0.61970  0.08320  0.45670  Biso   1.000  H
  H108     1.0000 0.38030  0.41680  0.95670  Biso   1.000  H
  H109     1.0000 0.88030  0.08320  0.95670  Biso   1.000  H
  H110     1.0000 0.11970  0.41680  0.45670  Biso   1.000  H
  H111     1.0000 0.38030  0.91680  0.54330  Biso   1.000  H
  H112     1.0000 0.61970  0.58320  0.04330  Biso   1.000  H
  C177     1.0000 0.10930  0.79800  0.06741  Biso   1.000  C
  C178     1.0000 0.89070  0.70200  0.56741  Biso   1.000  C
  C179     1.0000 0.60930  0.20200  0.43259  Biso   1.000  C
  C180     1.0000 0.39070  0.29800  0.93259  Biso   1.000  C
  C181     1.0000 0.89070  0.20200  0.93259  Biso   1.000  C
  C182     1.0000 0.10930  0.29800  0.43259  Biso   1.000  C
  C183     1.0000 0.39070  0.79800  0.56741  Biso   1.000  C
  C184     1.0000 0.60930  0.70200  0.06741  Biso   1.000  C
  H113     1.0000 0.10130  0.82070  0.08920  Biso   1.000  H
  H114     1.0000 0.89870  0.67930  0.58920  Biso   1.000  H
  H115     1.0000 0.60130  0.17930  0.41080  Biso   1.000  H
  H116     1.0000 0.39870  0.32070  0.91080  Biso   1.000  H
  H117     1.0000 0.89870  0.17930  0.91080  Biso   1.000  H
  H118     1.0000 0.10130  0.32070  0.41080  Biso   1.000  H
  H119     1.0000 0.39870  0.82070  0.58920  Biso   1.000  H
  H120     1.0000 0.60130  0.67930  0.08920  Biso   1.000  H
  C185     1.0000 0.10960  0.70690  0.06171  Biso   1.000  C
  C186     1.0000 0.89040  0.79310  0.56171  Biso   1.000  C
  C187     1.0000 0.60960  0.29310  0.43829  Biso   1.000  C
  C188     1.0000 0.39040  0.20690  0.93829  Biso   1.000  C
  C189     1.0000 0.89040  0.29310  0.93829  Biso   1.000  C
  C190     1.0000 0.10960  0.20690  0.43829  Biso   1.000  C
  C191     1.0000 0.39040  0.70690  0.56171  Biso   1.000  C
  C192     1.0000 0.60960  0.79310  0.06171  Biso   1.000  C
  H121     1.0000 0.10090  0.66820  0.08000  Biso   1.000  H
  H122     1.0000 0.89910  0.83180  0.58000  Biso   1.000  H
  H123     1.0000 0.60090  0.33180  0.42000  Biso   1.000  H
  H124     1.0000 0.39910  0.16820  0.92000  Biso   1.000  H
  H125     1.0000 0.89910  0.33180  0.92000  Biso   1.000  H
  H126     1.0000 0.10090  0.16820  0.42000  Biso   1.000  H
  H127     1.0000 0.39910  0.66820  0.58000  Biso   1.000  H
  H128     1.0000 0.60090  0.83180  0.08000  Biso   1.000  H
  O65      1.0000 0.91060  0.35070  0.11787  Biso   1.000  O
  O66      1.0000 0.08940  0.14930  0.61787  Biso   1.000  O
  O67      1.0000 0.41060  0.64930  0.38213  Biso   1.000  O
  O68      1.0000 0.58940  0.85070  0.88213  Biso   1.000  O
  O69      1.0000 0.08940  0.64930  0.88213  Biso   1.000  O
  O70      1.0000 0.91060  0.85070  0.38213  Biso   1.000  O
  O71      1.0000 0.58940  0.35070  0.61787  Biso   1.000  O
  O72      1.0000 0.41060  0.14930  0.11787  Biso   1.000  O
  O73      1.0000 0.15710  0.24583  0.18882  Biso   1.000  O
  O74      1.0000 0.84290  0.25417  0.68882  Biso   1.000  O
  O75      1.0000 0.65710  0.75417  0.31118  Biso   1.000  O
  O76      1.0000 0.34290  0.74583  0.81118  Biso   1.000  O
  O77      1.0000 0.84290  0.75417  0.81118  Biso   1.000  O
  O78      1.0000 0.15710  0.74583  0.31118  Biso   1.000  O
  O79      1.0000 0.34290  0.24583  0.68882  Biso   1.000  O
  O80      1.0000 0.65710  0.25417  0.18882  Biso   1.000  O
  O81      1.0000 0.17900  0.15972  0.10164  Biso   1.000  O
  O82      1.0000 0.82100  0.34028  0.60164  Biso   1.000  O
  O83      1.0000 0.67900  0.84028  0.39836  Biso   1.000  O
  O84      1.0000 0.32100  0.65972  0.89836  Biso   1.000  O
  O85      1.0000 0.82100  0.84028  0.89836  Biso   1.000  O
  O86      1.0000 0.17900  0.65972  0.39836  Biso   1.000  O
  O87      1.0000 0.32100  0.15972  0.60164  Biso   1.000  O
  O88      1.0000 0.67900  0.34028  0.10164  Biso   1.000  O
  O89      1.0000 0.24040  0.32730  0.13209  Biso   1.000  O
  O90      1.0000 0.75960  0.17270  0.63209  Biso   1.000  O
  O91      1.0000 0.74040  0.67270  0.36791  Biso   1.000  O
  O92      1.0000 0.25960  0.82730  0.86791  Biso   1.000  O
  O93      1.0000 0.75960  0.67270  0.86791  Biso   1.000  O
  O94      1.0000 0.24040  0.82730  0.36791  Biso   1.000  O
  O95      1.0000 0.25960  0.32730  0.63209  Biso   1.000  O
  O96      1.0000 0.74040  0.17270  0.13209  Biso   1.000  O
  O97      1.0000 0.96510  0.17793  0.09274  Biso   1.000  O
  O98      1.0000 0.03490  0.32207  0.59274  Biso   1.000  O
  O99      1.0000 0.46510  0.82207  0.40726  Biso   1.000  O
  O100     1.0000 0.53490  0.67793  0.90726  Biso   1.000  O
  O101     1.0000 0.03490  0.82207  0.90726  Biso   1.000  O
  O102     1.0000 0.96510  0.67793  0.40726  Biso   1.000  O
  O103     1.0000 0.53490  0.17793  0.59274  Biso   1.000  O
  O104     1.0000 0.46510  0.32207  0.09274  Biso   1.000  O
  O105     1.0000 0.92640  0.24209  0.17527  Biso   1.000  O
  O106     1.0000 0.07360  0.25791  0.67527  Biso   1.000  O
  O107     1.0000 0.42640  0.75791  0.32473  Biso   1.000  O
  O108     1.0000 0.57360  0.74209  0.82473  Biso   1.000  O
  O109     1.0000 0.07360  0.75791  0.82473  Biso   1.000  O
  O110     1.0000 0.92640  0.74209  0.32473  Biso   1.000  O
  O111     1.0000 0.57360  0.24209  0.67527  Biso   1.000  O
  O112     1.0000 0.42640  0.25791  0.17527  Biso   1.000  O
  O113     1.0000 0.81710  0.38590  0.19829  Biso   1.000  O
  O114     1.0000 0.18290  0.11410  0.69829  Biso   1.000  O
  O115     1.0000 0.31710  0.61410  0.30171  Biso   1.000  O
  O116     1.0000 0.68290  0.88590  0.80171  Biso   1.000  O
  O117     1.0000 0.18290  0.61410  0.80171  Biso   1.000  O
  O118     1.0000 0.81710  0.88590  0.30171  Biso   1.000  O
  O119     1.0000 0.68290  0.38590  0.69829  Biso   1.000  O
  O120     1.0000 0.31710  0.11410  0.19829  Biso   1.000  O
  Cl1      1.0000 0.79640  0.57295  0.12969  Biso   1.000  Cl
  Cl2      1.0000 0.20360  0.92705  0.62969  Biso   1.000  Cl
  Cl3      1.0000 0.29640  0.42705  0.37031  Biso   1.000  Cl
  Cl4      1.0000 0.70360  0.07295  0.87031  Biso   1.000  Cl
  Cl5      1.0000 0.20360  0.42705  0.87031  Biso   1.000  Cl
  Cl6      1.0000 0.79640  0.07295  0.37031  Biso   1.000  Cl
  Cl7      1.0000 0.70360  0.57295  0.62969  Biso   1.000  Cl
  Cl8      1.0000 0.29640  0.92705  0.12969  Biso   1.000  Cl
  O121     1.0000 0.88750  0.54220  0.12510  Biso   1.000  O
  O122     1.0000 0.11250  0.95780  0.62510  Biso   1.000  O
  O123     1.0000 0.38750  0.45780  0.37490  Biso   1.000  O
  O124     1.0000 0.61250  0.04220  0.87490  Biso   1.000  O
  O125     1.0000 0.11250  0.45780  0.87490  Biso   1.000  O
  O126     1.0000 0.88750  0.04220  0.37490  Biso   1.000  O
  O127     1.0000 0.61250  0.54220  0.62510  Biso   1.000  O
  O128     1.0000 0.38750  0.95780  0.12510  Biso   1.000  O
  O129     1.0000 0.79330  0.66430  0.12244  Biso   1.000  O
  O130     1.0000 0.20670  0.83570  0.62244  Biso   1.000  O
  O131     1.0000 0.29330  0.33570  0.37756  Biso   1.000  O
  O132     1.0000 0.70670  0.16430  0.87756  Biso   1.000  O
  O133     1.0000 0.20670  0.33570  0.87756  Biso   1.000  O
  O134     1.0000 0.79330  0.16430  0.37756  Biso   1.000  O
  O135     1.0000 0.70670  0.66430  0.62244  Biso   1.000  O
  O136     1.0000 0.29330  0.83570  0.12244  Biso   1.000  O
  O137     1.0000 0.73720  0.52700  0.10495  Biso   1.000  O
  O138     1.0000 0.26280  0.97300  0.60495  Biso   1.000  O
  O139     1.0000 0.23720  0.47300  0.39505  Biso   1.000  O
  O140     1.0000 0.76280  0.02700  0.89505  Biso   1.000  O
  O141     1.0000 0.26280  0.47300  0.89505  Biso   1.000  O
  O142     1.0000 0.73720  0.02700  0.39505  Biso   1.000  O
  O143     1.0000 0.76280  0.52700  0.60495  Biso   1.000  O
  O144     1.0000 0.23720  0.97300  0.10495  Biso   1.000  O
  O145     1.0000 0.75850  0.55210  0.16012  Biso   1.000  O
  O146     1.0000 0.24150  0.94790  0.66012  Biso   1.000  O
  O147     1.0000 0.25850  0.44790  0.33988  Biso   1.000  O
  O148     1.0000 0.74150  0.05210  0.83988  Biso   1.000  O
  O149     1.0000 0.24150  0.44790  0.83988  Biso   1.000  O
  O150     1.0000 0.75850  0.05210  0.33988  Biso   1.000  O
  O151     1.0000 0.74150  0.55210  0.66012  Biso   1.000  O
  O152     1.0000 0.25850  0.94790  0.16012  Biso   1.000  O
  Cl9      1.0000 0.34131  0.52435  0.06546  Biso   1.000  Cl
  Cl10     1.0000 0.65869  0.97565  0.56546  Biso   1.000  Cl
  Cl11     1.0000 0.84131  0.47565  0.43454  Biso   1.000  Cl
  Cl12     1.0000 0.15869  0.02435  0.93454  Biso   1.000  Cl
  Cl13     1.0000 0.65869  0.47565  0.93454  Biso   1.000  Cl
  Cl14     1.0000 0.34131  0.02435  0.43454  Biso   1.000  Cl
  Cl15     1.0000 0.15869  0.52435  0.56546  Biso   1.000  Cl
  Cl16     1.0000 0.84131  0.97565  0.06546  Biso   1.000  Cl
  O153     1.0000 0.30200  0.52690  0.03140  Biso   1.000  O
  O154     1.0000 0.69800  0.97310  0.53140  Biso   1.000  O
  O155     1.0000 0.80200  0.47310  0.46860  Biso   1.000  O
  O156     1.0000 0.19800  0.02690  0.96860  Biso   1.000  O
  O157     1.0000 0.69800  0.47310  0.96860  Biso   1.000  O
  O158     1.0000 0.30200  0.02690  0.46860  Biso   1.000  O
  O159     1.0000 0.19800  0.52690  0.53140  Biso   1.000  O
  O160     1.0000 0.80200  0.97310  0.03140  Biso   1.000  O
  O161     1.0000 0.44260  0.51130  0.06396  Biso   1.000  O
  O162     1.0000 0.55740  0.98870  0.56396  Biso   1.000  O
  O163     1.0000 0.94260  0.48870  0.43604  Biso   1.000  O
  O164     1.0000 0.05740  0.01130  0.93604  Biso   1.000  O
  O165     1.0000 0.55740  0.48870  0.93604  Biso   1.000  O
  O166     1.0000 0.44260  0.01130  0.43604  Biso   1.000  O
  O167     1.0000 0.05740  0.51130  0.56396  Biso   1.000  O
  O168     1.0000 0.94260  0.98870  0.06396  Biso   1.000  O
  O169     1.0000 0.31820  0.60610  0.08146  Biso   1.000  O
  O170     1.0000 0.68180  0.89390  0.58146  Biso   1.000  O
  O171     1.0000 0.81820  0.39390  0.41854  Biso   1.000  O
  O172     1.0000 0.18180  0.10610  0.91854  Biso   1.000  O
  O173     1.0000 0.68180  0.39390  0.91854  Biso   1.000  O
  O174     1.0000 0.31820  0.10610  0.41854  Biso   1.000  O
  O175     1.0000 0.18180  0.60610  0.58146  Biso   1.000  O
  O176     1.0000 0.81820  0.89390  0.08146  Biso   1.000  O
  O177     1.0000 0.30030  0.45000  0.08211  Biso   1.000  O
  O178     1.0000 0.69970  0.05000  0.58211  Biso   1.000  O
  O179     1.0000 0.80030  0.55000  0.41789  Biso   1.000  O
  O180     1.0000 0.19970  0.95000  0.91789  Biso   1.000  O
  O181     1.0000 0.69970  0.55000  0.91789  Biso   1.000  O
  O182     1.0000 0.30030  0.95000  0.41789  Biso   1.000  O
  O183     1.0000 0.19970  0.45000  0.58211  Biso   1.000  O
  O184     1.0000 0.80030  0.05000  0.08211  Biso   1.000  O
  Cl17     1.0000 0.81719  0.59556  0.25840  Biso   1.000  Cl
  Cl18     1.0000 0.18281  0.90444  0.75840  Biso   1.000  Cl
  Cl19     1.0000 0.31719  0.40444  0.24160  Biso   1.000  Cl
  Cl20     1.0000 0.68281  0.09556  0.74160  Biso   1.000  Cl
  Cl21     1.0000 0.18281  0.40444  0.74160  Biso   1.000  Cl
  Cl22     1.0000 0.81719  0.09556  0.24160  Biso   1.000  Cl
  Cl23     1.0000 0.68281  0.59556  0.75840  Biso   1.000  Cl
  Cl24     1.0000 0.31719  0.90444  0.25840  Biso   1.000  Cl
  O185     1.0000 0.73270  0.59460  0.24064  Biso   1.000  O
  O186     1.0000 0.26730  0.90540  0.74064  Biso   1.000  O
  O187     1.0000 0.23270  0.40540  0.25936  Biso   1.000  O
  O188     1.0000 0.76730  0.09460  0.75936  Biso   1.000  O
  O189     1.0000 0.26730  0.40540  0.75936  Biso   1.000  O
  O190     1.0000 0.73270  0.09460  0.25936  Biso   1.000  O
  O191     1.0000 0.76730  0.59460  0.74064  Biso   1.000  O
  O192     1.0000 0.23270  0.90540  0.24064  Biso   1.000  O
  O193     1.0000 0.80760  0.58770  0.29359  Biso   1.000  O
  O194     1.0000 0.19240  0.91230  0.79359  Biso   1.000  O
  O195     1.0000 0.30760  0.41230  0.20641  Biso   1.000  O
  O196     1.0000 0.69240  0.08770  0.70641  Biso   1.000  O
  O197     1.0000 0.19240  0.41230  0.70641  Biso   1.000  O
  O198     1.0000 0.80760  0.08770  0.20641  Biso   1.000  O
  O199     1.0000 0.69240  0.58770  0.79359  Biso   1.000  O
  O200     1.0000 0.30760  0.91230  0.29359  Biso   1.000  O
  O201     1.0000 0.86170  0.67790  0.25319  Biso   1.000  O
  O202     1.0000 0.13830  0.82210  0.75319  Biso   1.000  O
  O203     1.0000 0.36170  0.32210  0.24681  Biso   1.000  O
  O204     1.0000 0.63830  0.17790  0.74681  Biso   1.000  O
  O205     1.0000 0.13830  0.32210  0.74681  Biso   1.000  O
  O206     1.0000 0.86170  0.17790  0.24681  Biso   1.000  O
  O207     1.0000 0.63830  0.67790  0.75319  Biso   1.000  O
  O208     1.0000 0.36170  0.82210  0.25319  Biso   1.000  O
  O209     1.0000 0.88190  0.53990  0.24510  Biso   1.000  O
  O210     1.0000 0.11810  0.96010  0.74510  Biso   1.000  O
  O211     1.0000 0.38190  0.46010  0.25490  Biso   1.000  O
  O212     1.0000 0.61810  0.03990  0.75490  Biso   1.000  O
  O213     1.0000 0.11810  0.46010  0.75490  Biso   1.000  O
  O214     1.0000 0.88190  0.03990  0.25490  Biso   1.000  O
  O215     1.0000 0.61810  0.53990  0.74510  Biso   1.000  O
  O216     1.0000 0.38190  0.96010  0.24510  Biso   1.000  O
