data_image0
_cell_length_a       8.721
_cell_length_b       14.9145
_cell_length_c       16.8147
_cell_angle_alpha    81.5625
_cell_angle_beta     86.2598
_cell_angle_gamma    84.6208

_symmetry_space_group_name_H-M    "P 1"
_symmetry_int_tables_number       1

loop_
  _symmetry_equiv_pos_as_xyz
  'x, y, z'

loop_
  _atom_site_label
  _atom_site_occupancy
  _atom_site_fract_x
  _atom_site_fract_y
  _atom_site_fract_z
  _atom_site_thermal_displace_type
  _atom_site_B_iso_or_equiv
  _atom_site_type_symbol
  Nd1      1.0000 0.68033  0.73865  0.22039  Biso   1.000  Nd
  Nd2      1.0000 0.31967  0.26135  0.77961  Biso   1.000  Nd
  Cu1      1.0000 0.41872  0.90686  0.49226  Biso   1.000  Cu
  Cu2      1.0000 0.58128  0.09314  0.50774  Biso   1.000  Cu
  O1       1.0000 0.50250  0.83316  0.41163  Biso   1.000  O
  O2       1.0000 0.49750  0.16684  0.58837  Biso   1.000  O
  O3       1.0000 0.45970  0.80302  0.28906  Biso   1.000  O
  O4       1.0000 0.54030  0.19698  0.71094  Biso   1.000  O
  N1       1.0000 0.26870  0.95589  0.41136  Biso   1.000  N
  N2       1.0000 0.73130  0.04411  0.58864  Biso   1.000  N
  C1       1.0000 0.42700  0.84300  0.34901  Biso   1.000  C
  C2       1.0000 0.57300  0.15700  0.65099  Biso   1.000  C
  C3       1.0000 0.28660  0.91070  0.34766  Biso   1.000  C
  C4       1.0000 0.71340  0.08930  0.65234  Biso   1.000  C
  C5       1.0000 0.18410  0.92640  0.28640  Biso   1.000  C
  C6       1.0000 0.81590  0.07360  0.71360  Biso   1.000  C
  H1       1.0000 0.19810  0.89510  0.24220  Biso   1.000  H
  H2       1.0000 0.80190  0.10490  0.75780  Biso   1.000  H
  C7       1.0000 0.06110  0.99010  0.29340  Biso   1.000  C
  C8       1.0000 0.93890  0.00990  0.70660  Biso   1.000  C
  H3       1.0000 0.98900  0.00120  0.25400  Biso   1.000  H
  H4       1.0000 0.01100  0.99880  0.74600  Biso   1.000  H
  C9       1.0000 0.04380  0.03720  0.35800  Biso   1.000  C
  C10      1.0000 0.95620  0.96280  0.64200  Biso   1.000  C
  H5       1.0000 0.96280  0.08180  0.36180  Biso   1.000  H
  H6       1.0000 0.03720  0.91820  0.63820  Biso   1.000  H
  C11      1.0000 0.14820  0.01730  0.41700  Biso   1.000  C
  C12      1.0000 0.85180  0.98270  0.58300  Biso   1.000  C
  H7       1.0000 0.13470  0.04730  0.46200  Biso   1.000  H
  H8       1.0000 0.86530  0.95270  0.53800  Biso   1.000  H
  O5       1.0000 0.33940  0.98552  0.57095  Biso   1.000  O
  O6       1.0000 0.66060  0.01448  0.42905  Biso   1.000  O
  O7       1.0000 0.32320  0.98510  0.70448  Biso   1.000  O
  O8       1.0000 0.67680  0.01490  0.29552  Biso   1.000  O
  N3       1.0000 0.54750  0.84748  0.57904  Biso   1.000  N
  N4       1.0000 0.45250  0.15252  0.42096  Biso   1.000  N
  C13      1.0000 0.37530  0.95350  0.64310  Biso   1.000  C
  C14      1.0000 0.62470  0.04650  0.35690  Biso   1.000  C
  C15      1.0000 0.49570  0.87380  0.65020  Biso   1.000  C
  C16      1.0000 0.50430  0.12620  0.34980  Biso   1.000  C
  C17      1.0000 0.55480  0.83310  0.72200  Biso   1.000  C
  C18      1.0000 0.44520  0.16690  0.27800  Biso   1.000  C
  H9       1.0000 0.51650  0.85160  0.77050  Biso   1.000  H
  H10      1.0000 0.48350  0.14840  0.22950  Biso   1.000  H
  C19      1.0000 0.67320  0.76350  0.72040  Biso   1.000  C
  C20      1.0000 0.32680  0.23650  0.27960  Biso   1.000  C
  H11      1.0000 0.71240  0.73300  0.76800  Biso   1.000  H
  H12      1.0000 0.28760  0.26700  0.23200  Biso   1.000  H
  C21      1.0000 0.73100  0.74090  0.64710  Biso   1.000  C
  C22      1.0000 0.26900  0.25910  0.35290  Biso   1.000  C
  H13      1.0000 0.81430  0.69750  0.64460  Biso   1.000  H
  H14      1.0000 0.18570  0.30250  0.35540  Biso   1.000  H
  C23      1.0000 0.66430  0.78310  0.57720  Biso   1.000  C
  C24      1.0000 0.33570  0.21690  0.42280  Biso   1.000  C
  H15      1.0000 0.70160  0.76620  0.52800  Biso   1.000  H
  H16      1.0000 0.29840  0.23380  0.47200  Biso   1.000  H
  Cu3      1.0000 0.00000  0.50000  0.50000  Biso   1.000  Cu
  O9       1.0000 0.93230  0.56830  0.39853  Biso   1.000  O
  O10      1.0000 0.06770  0.43170  0.60147  Biso   1.000  O
  O11      1.0000 0.73220  0.65302  0.34517  Biso   1.000  O
  O12      1.0000 0.26780  0.34698  0.65483  Biso   1.000  O
  N5       1.0000 0.78610  0.53180  0.53778  Biso   1.000  N
  N6       1.0000 0.21390  0.46820  0.46222  Biso   1.000  N
  C25      1.0000 0.79470  0.60350  0.40130  Biso   1.000  C
  C26      1.0000 0.20530  0.39650  0.59870  Biso   1.000  C
  C27      1.0000 0.70510  0.58200  0.48030  Biso   1.000  C
  C28      1.0000 0.29490  0.41800  0.51970  Biso   1.000  C
  C29      1.0000 0.55320  0.61430  0.49310  Biso   1.000  C
  C30      1.0000 0.44680  0.38570  0.50690  Biso   1.000  C
  H17      1.0000 0.50030  0.65040  0.45200  Biso   1.000  H
  H18      1.0000 0.49970  0.34960  0.54800  Biso   1.000  H
  C31      1.0000 0.48070  0.59150  0.56910  Biso   1.000  C
  C32      1.0000 0.51930  0.40850  0.43090  Biso   1.000  C
  H19      1.0000 0.37790  0.61100  0.57940  Biso   1.000  H
  H20      1.0000 0.62210  0.38900  0.42060  Biso   1.000  H
  C33      1.0000 0.56600  0.53900  0.62860  Biso   1.000  C
  C34      1.0000 0.43400  0.46100  0.37140  Biso   1.000  C
  H21      1.0000 0.52050  0.52290  0.67960  Biso   1.000  H
  H22      1.0000 0.47950  0.47710  0.32040  Biso   1.000  H
  C35      1.0000 0.71990  0.51060  0.61170  Biso   1.000  C
  C36      1.0000 0.28010  0.48940  0.38830  Biso   1.000  C
  H23      1.0000 0.77740  0.47670  0.65210  Biso   1.000  H
  H24      1.0000 0.22260  0.52330  0.34790  Biso   1.000  H
  Cu4      1.0000 0.00000  0.50000  0.00000  Biso   1.000  Cu
  O13      1.0000 0.89410  0.58718  0.06621  Biso   1.000  O
  O14      1.0000 0.10590  0.41282  0.93379  Biso   1.000  O
  O15      1.0000 0.79220  0.59561  0.19110  Biso   1.000  O
  O16      1.0000 0.20780  0.40439  0.80890  Biso   1.000  O
  N7       1.0000 0.95770  0.41124  0.09687  Biso   1.000  N
  N8       1.0000 0.04230  0.58876  0.90313  Biso   1.000  N
  C37      1.0000 0.85730  0.55200  0.13720  Biso   1.000  C
  C38      1.0000 0.14270  0.44800  0.86280  Biso   1.000  C
  C39      1.0000 0.89040  0.45100  0.15890  Biso   1.000  C
  C40      1.0000 0.10960  0.54900  0.84110  Biso   1.000  C
  C41      1.0000 0.85650  0.40390  0.23270  Biso   1.000  C
  C42      1.0000 0.14350  0.59610  0.76730  Biso   1.000  C
  H25      1.0000 0.81130  0.43380  0.27420  Biso   1.000  H
  H26      1.0000 0.18870  0.56620  0.72580  Biso   1.000  H
  C43      1.0000 0.89060  0.31160  0.24420  Biso   1.000  C
  C44      1.0000 0.10940  0.68840  0.75580  Biso   1.000  C
  H27      1.0000 0.86540  0.27730  0.29330  Biso   1.000  H
  H28      1.0000 0.13460  0.72270  0.70670  Biso   1.000  H
  C45      1.0000 0.96300  0.27000  0.18210  Biso   1.000  C
  C46      1.0000 0.03700  0.73000  0.81790  Biso   1.000  C
  H29      1.0000 0.98950  0.20760  0.18990  Biso   1.000  H
  H30      1.0000 0.01050  0.79240  0.81010  Biso   1.000  H
  C47      1.0000 0.99600  0.32070  0.10880  Biso   1.000  C
  C48      1.0000 0.00400  0.67930  0.89120  Biso   1.000  C
  H31      1.0000 0.04500  0.29230  0.06720  Biso   1.000  H
  H32      1.0000 0.95500  0.70770  0.93280  Biso   1.000  H
  Cu5      1.0000 0.00000  0.00000  0.00000  Biso   1.000  Cu
  O17      1.0000 0.90540  0.92047  0.08953  Biso   1.000  O
  O18      1.0000 0.09460  0.07953  0.91047  Biso   1.000  O
  O19      1.0000 0.92380  0.77799  0.15335  Biso   1.000  O
  O20      1.0000 0.07620  0.22201  0.84665  Biso   1.000  O
  N9       1.0000 0.13800  0.88870  0.98884  Biso   1.000  N
  N10      1.0000 0.86200  0.11130  0.01116  Biso   1.000  N
  C49      1.0000 0.96920  0.84030  0.10270  Biso   1.000  C
  C50      1.0000 0.03080  0.15970  0.89730  Biso   1.000  C
  C51      1.0000 0.10550  0.81820  0.04710  Biso   1.000  C
  C52      1.0000 0.89450  0.18180  0.95290  Biso   1.000  C
  C53      1.0000 0.18900  0.73440  0.05330  Biso   1.000  C
  C54      1.0000 0.81100  0.26560  0.94670  Biso   1.000  C
  H33      1.0000 0.16530  0.68790  0.09420  Biso   1.000  H
  H34      1.0000 0.83470  0.31210  0.90580  Biso   1.000  H
  C55      1.0000 0.30980  0.72150  0.99660  Biso   1.000  C
  C56      1.0000 0.69020  0.27850  0.00340  Biso   1.000  C
  H35      1.0000 0.36750  0.66560  0.99860  Biso   1.000  H
  H36      1.0000 0.63250  0.33440  0.00140  Biso   1.000  H
  C57      1.0000 0.34320  0.79280  0.93720  Biso   1.000  C
  C58      1.0000 0.65680  0.20720  0.06280  Biso   1.000  C
  H37      1.0000 0.42360  0.78540  0.89900  Biso   1.000  H
  H38      1.0000 0.57640  0.21460  0.10100  Biso   1.000  H
  C59      1.0000 0.25510  0.87502  0.93561  Biso   1.000  C
  C60      1.0000 0.74490  0.12498  0.06439  Biso   1.000  C
  H39      1.0000 0.27840  0.92270  0.89580  Biso   1.000  H
  H40      1.0000 0.72160  0.07730  0.10420  Biso   1.000  H
  O21      1.0000 0.65252  0.73203  0.07602  Biso   1.000  O
  O22      1.0000 0.34748  0.26797  0.92398  Biso   1.000  O
  O23      1.0000 0.61096  0.88760  0.15547  Biso   1.000  O
  O24      1.0000 0.38904  0.11240  0.84453  Biso   1.000  O
  O25      1.0000 0.46701  0.65068  0.21732  Biso   1.000  O
  O26      1.0000 0.53299  0.34932  0.78268  Biso   1.000  O
  O27      1.0000 0.79624  0.83523  0.30267  Biso   1.000  O
  O28      1.0000 0.20376  0.16477  0.69733  Biso   1.000  O
  O29      1.0000 0.16560  0.68924  0.26579  Biso   1.000  O
  O30      1.0000 0.83440  0.31076  0.73421  Biso   1.000  O
  Cl1      1.0000 0.89405  0.26471  0.50155  Biso   1.000  Cl
  Cl2      1.0000 0.10595  0.73529  0.49845  Biso   1.000  Cl
  O31      1.0000 0.79032  0.28899  0.56578  Biso   1.000  O
  O32      1.0000 0.20968  0.71101  0.43422  Biso   1.000  O
  O33      1.0000 0.93613  0.34528  0.45031  Biso   1.000  O
  O34      1.0000 0.06387  0.65472  0.54969  Biso   1.000  O
  O35      1.0000 0.02749  0.21441  0.53444  Biso   1.000  O
  O36      1.0000 0.97251  0.78559  0.46556  Biso   1.000  O
  O37      1.0000 0.81670  0.21176  0.45389  Biso   1.000  O
  O38      1.0000 0.18330  0.78824  0.54611  Biso   1.000  O
  Cl3      1.0000 0.70307  0.92454  0.90585  Biso   1.000  Cl
  Cl4      1.0000 0.29693  0.07546  0.09415  Biso   1.000  Cl
  O39      1.0000 0.60257  0.96298  0.84456  Biso   1.000  O
  O40      1.0000 0.39743  0.03702  0.15544  Biso   1.000  O
  O41      1.0000 0.84601  0.96209  0.89449  Biso   1.000  O
  O42      1.0000 0.15399  0.03791  0.10551  Biso   1.000  O
  O43      1.0000 0.63250  0.93421  0.98205  Biso   1.000  O
  O44      1.0000 0.36750  0.06579  0.01795  Biso   1.000  O
  O45      1.0000 0.72672  0.82946  0.90227  Biso   1.000  O
  O46      1.0000 0.27328  0.17054  0.09773  Biso   1.000  O
  Cl5      1.0000 0.34495  0.46291  0.11901  Biso   1.000  Cl
  Cl6      1.0000 0.65505  0.53709  0.88099  Biso   1.000  Cl
  O47      1.0000 0.37914  0.37490  0.09777  Biso   1.000  O
  O48      1.0000 0.62086  0.62510  0.90223  Biso   1.000  O
  O49      1.0000 0.25501  0.51697  0.05876  Biso   1.000  O
  O50      1.0000 0.74499  0.48303  0.94124  Biso   1.000  O
  O51      1.0000 0.48210  0.50708  0.12383  Biso   1.000  O
  O52      1.0000 0.51790  0.49292  0.87617  Biso   1.000  O
  O53      1.0000 0.25514  0.45716  0.19314  Biso   1.000  O
  O54      1.0000 0.74486  0.54284  0.80686  Biso   1.000  O
