data_image0
_cell_length_a       13.7095
_cell_length_b       14.8578
_cell_length_c       39.4425
_cell_angle_alpha    90
_cell_angle_beta     90
_cell_angle_gamma    90

_symmetry_space_group_name_H-M    "P 1"
_symmetry_int_tables_number       1

loop_
  _symmetry_equiv_pos_as_xyz
  'x, y, z'

loop_
  _atom_site_label
  _atom_site_occupancy
  _atom_site_fract_x
  _atom_site_fract_y
  _atom_site_fract_z
  _atom_site_thermal_displace_type
  _atom_site_B_iso_or_equiv
  _atom_site_type_symbol
  Nd1      1.0000 0.06607  0.26330  0.13458  Biso   1.000  Nd
  Nd2      1.0000 0.93393  0.23670  0.63458  Biso   1.000  Nd
  Nd3      1.0000 0.56607  0.73670  0.36542  Biso   1.000  Nd
  Nd4      1.0000 0.43393  0.76330  0.86542  Biso   1.000  Nd
  Nd5      1.0000 0.93393  0.73670  0.86542  Biso   1.000  Nd
  Nd6      1.0000 0.06607  0.76330  0.36542  Biso   1.000  Nd
  Nd7      1.0000 0.43393  0.26330  0.63458  Biso   1.000  Nd
  Nd8      1.0000 0.56607  0.23670  0.13458  Biso   1.000  Nd
  Cu1      1.0000 0.06509  0.50056  0.25467  Biso   1.000  Cu
  Cu2      1.0000 0.93491  0.99944  0.75467  Biso   1.000  Cu
  Cu3      1.0000 0.56509  0.49944  0.24533  Biso   1.000  Cu
  Cu4      1.0000 0.43491  0.00056  0.74533  Biso   1.000  Cu
  Cu5      1.0000 0.93491  0.49944  0.74533  Biso   1.000  Cu
  Cu6      1.0000 0.06509  0.00056  0.24533  Biso   1.000  Cu
  Cu7      1.0000 0.43491  0.50056  0.75467  Biso   1.000  Cu
  Cu8      1.0000 0.56509  0.99944  0.25467  Biso   1.000  Cu
  O1       1.0000 0.04050  0.41840  0.21738  Biso   1.000  O
  O2       1.0000 0.95950  0.08160  0.71738  Biso   1.000  O
  O3       1.0000 0.54050  0.58160  0.28262  Biso   1.000  O
  O4       1.0000 0.45950  0.91840  0.78262  Biso   1.000  O
  O5       1.0000 0.95950  0.58160  0.78262  Biso   1.000  O
  O6       1.0000 0.04050  0.91840  0.28262  Biso   1.000  O
  O7       1.0000 0.45950  0.41840  0.71738  Biso   1.000  O
  O8       1.0000 0.54050  0.08160  0.21738  Biso   1.000  O
  O9       1.0000 0.05770  0.40790  0.16118  Biso   1.000  O
  O10      1.0000 0.94230  0.09210  0.66118  Biso   1.000  O
  O11      1.0000 0.55770  0.59210  0.33882  Biso   1.000  O
  O12      1.0000 0.44230  0.90790  0.83882  Biso   1.000  O
  O13      1.0000 0.94230  0.59210  0.83882  Biso   1.000  O
  O14      1.0000 0.05770  0.90790  0.33882  Biso   1.000  O
  O15      1.0000 0.44230  0.40790  0.66118  Biso   1.000  O
  O16      1.0000 0.55770  0.09210  0.16118  Biso   1.000  O
  N1       1.0000 0.11690  0.58037  0.21872  Biso   1.000  N
  N2       1.0000 0.88310  0.91963  0.71872  Biso   1.000  N
  N3       1.0000 0.61690  0.41963  0.28128  Biso   1.000  N
  N4       1.0000 0.38310  0.08037  0.78128  Biso   1.000  N
  N5       1.0000 0.88310  0.41963  0.78128  Biso   1.000  N
  N6       1.0000 0.11690  0.08037  0.28128  Biso   1.000  N
  N7       1.0000 0.38310  0.58037  0.71872  Biso   1.000  N
  N8       1.0000 0.61690  0.91963  0.21872  Biso   1.000  N
  C1       1.0000 0.06570  0.44880  0.18873  Biso   1.000  C
  C2       1.0000 0.93430  0.05120  0.68873  Biso   1.000  C
  C3       1.0000 0.56570  0.55120  0.31127  Biso   1.000  C
  C4       1.0000 0.43430  0.94880  0.81127  Biso   1.000  C
  C5       1.0000 0.93430  0.55120  0.81127  Biso   1.000  C
  C6       1.0000 0.06570  0.94880  0.31127  Biso   1.000  C
  C7       1.0000 0.43430  0.44880  0.68873  Biso   1.000  C
  C8       1.0000 0.56570  0.05120  0.18873  Biso   1.000  C
  C9       1.0000 0.10950  0.54140  0.18788  Biso   1.000  C
  C10      1.0000 0.89050  0.95860  0.68788  Biso   1.000  C
  C11      1.0000 0.60950  0.45860  0.31212  Biso   1.000  C
  C12      1.0000 0.39050  0.04140  0.81212  Biso   1.000  C
  C13      1.0000 0.89050  0.45860  0.81212  Biso   1.000  C
  C14      1.0000 0.10950  0.04140  0.31212  Biso   1.000  C
  C15      1.0000 0.39050  0.54140  0.68788  Biso   1.000  C
  C16      1.0000 0.60950  0.95860  0.18788  Biso   1.000  C
  C17      1.0000 0.14160  0.58250  0.15864  Biso   1.000  C
  C18      1.0000 0.85840  0.91750  0.65864  Biso   1.000  C
  C19      1.0000 0.64160  0.41750  0.34136  Biso   1.000  C
  C20      1.0000 0.35840  0.08250  0.84136  Biso   1.000  C
  C21      1.0000 0.85840  0.41750  0.84136  Biso   1.000  C
  C22      1.0000 0.14160  0.08250  0.34136  Biso   1.000  C
  C23      1.0000 0.35840  0.58250  0.65864  Biso   1.000  C
  C24      1.0000 0.64160  0.91750  0.15864  Biso   1.000  C
  H1       1.0000 0.13530  0.55400  0.13780  Biso   1.000  H
  H2       1.0000 0.86470  0.94600  0.63780  Biso   1.000  H
  H3       1.0000 0.63530  0.44600  0.36220  Biso   1.000  H
  H4       1.0000 0.36470  0.05400  0.86220  Biso   1.000  H
  H5       1.0000 0.86470  0.44600  0.86220  Biso   1.000  H
  H6       1.0000 0.13530  0.05400  0.36220  Biso   1.000  H
  H7       1.0000 0.36470  0.55400  0.63780  Biso   1.000  H
  H8       1.0000 0.63530  0.94600  0.13780  Biso   1.000  H
  C25      1.0000 0.18320  0.66660  0.16089  Biso   1.000  C
  C26      1.0000 0.81680  0.83340  0.66089  Biso   1.000  C
  C27      1.0000 0.68320  0.33340  0.33911  Biso   1.000  C
  C28      1.0000 0.31680  0.16660  0.83911  Biso   1.000  C
  C29      1.0000 0.81680  0.33340  0.83911  Biso   1.000  C
  C30      1.0000 0.18320  0.16660  0.33911  Biso   1.000  C
  C31      1.0000 0.31680  0.66660  0.66089  Biso   1.000  C
  C32      1.0000 0.68320  0.83340  0.16089  Biso   1.000  C
  H9       1.0000 0.20530  0.69600  0.14160  Biso   1.000  H
  H10      1.0000 0.79470  0.80400  0.64160  Biso   1.000  H
  H11      1.0000 0.70530  0.30400  0.35840  Biso   1.000  H
  H12      1.0000 0.29470  0.19600  0.85840  Biso   1.000  H
  H13      1.0000 0.79470  0.30400  0.85840  Biso   1.000  H
  H14      1.0000 0.20530  0.19600  0.35840  Biso   1.000  H
  H15      1.0000 0.29470  0.69600  0.64160  Biso   1.000  H
  H16      1.0000 0.70530  0.80400  0.14160  Biso   1.000  H
  C33      1.0000 0.19140  0.70620  0.19211  Biso   1.000  C
  C34      1.0000 0.80860  0.79380  0.69211  Biso   1.000  C
  C35      1.0000 0.69140  0.29380  0.30789  Biso   1.000  C
  C36      1.0000 0.30860  0.20620  0.80789  Biso   1.000  C
  C37      1.0000 0.80860  0.29380  0.80789  Biso   1.000  C
  C38      1.0000 0.19140  0.20620  0.30789  Biso   1.000  C
  C39      1.0000 0.30860  0.70620  0.69211  Biso   1.000  C
  C40      1.0000 0.69140  0.79380  0.19211  Biso   1.000  C
  H17      1.0000 0.21920  0.76310  0.19410  Biso   1.000  H
  H18      1.0000 0.78080  0.73690  0.69410  Biso   1.000  H
  H19      1.0000 0.71920  0.23690  0.30590  Biso   1.000  H
  H20      1.0000 0.28080  0.26310  0.80590  Biso   1.000  H
  H21      1.0000 0.78080  0.23690  0.80590  Biso   1.000  H
  H22      1.0000 0.21920  0.26310  0.30590  Biso   1.000  H
  H23      1.0000 0.28080  0.76310  0.69410  Biso   1.000  H
  H24      1.0000 0.71920  0.73690  0.19410  Biso   1.000  H
  C41      1.0000 0.15860  0.66180  0.22034  Biso   1.000  C
  C42      1.0000 0.84140  0.83820  0.72034  Biso   1.000  C
  C43      1.0000 0.65860  0.33820  0.27966  Biso   1.000  C
  C44      1.0000 0.34140  0.16180  0.77966  Biso   1.000  C
  C45      1.0000 0.84140  0.33820  0.77966  Biso   1.000  C
  C46      1.0000 0.15860  0.16180  0.27966  Biso   1.000  C
  C47      1.0000 0.34140  0.66180  0.72034  Biso   1.000  C
  C48      1.0000 0.65860  0.83820  0.22034  Biso   1.000  C
  H25      1.0000 0.16560  0.68920  0.24140  Biso   1.000  H
  H26      1.0000 0.83440  0.81080  0.74140  Biso   1.000  H
  H27      1.0000 0.66560  0.31080  0.25860  Biso   1.000  H
  H28      1.0000 0.33440  0.18920  0.75860  Biso   1.000  H
  H29      1.0000 0.83440  0.31080  0.75860  Biso   1.000  H
  H30      1.0000 0.16560  0.18920  0.25860  Biso   1.000  H
  H31      1.0000 0.33440  0.68920  0.74140  Biso   1.000  H
  H32      1.0000 0.66560  0.81080  0.24140  Biso   1.000  H
  O17      1.0000 0.08230  0.08393  0.20757  Biso   1.000  O
  O18      1.0000 0.91770  0.41607  0.70757  Biso   1.000  O
  O19      1.0000 0.58230  0.91607  0.29243  Biso   1.000  O
  O20      1.0000 0.41770  0.58393  0.79243  Biso   1.000  O
  O21      1.0000 0.91770  0.91607  0.79243  Biso   1.000  O
  O22      1.0000 0.08230  0.58393  0.29243  Biso   1.000  O
  O23      1.0000 0.41770  0.08393  0.70757  Biso   1.000  O
  O24      1.0000 0.58230  0.41607  0.20757  Biso   1.000  O
  O25      1.0000 0.05323  0.09976  0.15264  Biso   1.000  O
  O26      1.0000 0.94677  0.40024  0.65264  Biso   1.000  O
  O27      1.0000 0.55323  0.90024  0.34736  Biso   1.000  O
  O28      1.0000 0.44677  0.59976  0.84736  Biso   1.000  O
  O29      1.0000 0.94677  0.90024  0.84736  Biso   1.000  O
  O30      1.0000 0.05323  0.59976  0.34736  Biso   1.000  O
  O31      1.0000 0.44677  0.09976  0.65264  Biso   1.000  O
  O32      1.0000 0.55323  0.40024  0.15264  Biso   1.000  O
  N9       1.0000 0.01610  0.91984  0.20941  Biso   1.000  N
  N10      1.0000 0.98390  0.58016  0.70941  Biso   1.000  N
  N11      1.0000 0.51610  0.08016  0.29059  Biso   1.000  N
  N12      1.0000 0.48390  0.41984  0.79059  Biso   1.000  N
  N13      1.0000 0.98390  0.08016  0.79059  Biso   1.000  N
  N14      1.0000 0.01610  0.41984  0.29059  Biso   1.000  N
  N15      1.0000 0.48390  0.91984  0.70941  Biso   1.000  N
  N16      1.0000 0.51610  0.58016  0.20941  Biso   1.000  N
  C49      1.0000 0.05330  0.05450  0.17879  Biso   1.000  C
  C50      1.0000 0.94670  0.44550  0.67879  Biso   1.000  C
  C51      1.0000 0.55330  0.94550  0.32121  Biso   1.000  C
  C52      1.0000 0.44670  0.55450  0.82121  Biso   1.000  C
  C53      1.0000 0.94670  0.94550  0.82121  Biso   1.000  C
  C54      1.0000 0.05330  0.55450  0.32121  Biso   1.000  C
  C55      1.0000 0.44670  0.05450  0.67879  Biso   1.000  C
  C56      1.0000 0.55330  0.44550  0.17879  Biso   1.000  C
  C57      1.0000 0.01600  0.95850  0.17852  Biso   1.000  C
  C58      1.0000 0.98400  0.54150  0.67852  Biso   1.000  C
  C59      1.0000 0.51600  0.04150  0.32148  Biso   1.000  C
  C60      1.0000 0.48400  0.45850  0.82148  Biso   1.000  C
  C61      1.0000 0.98400  0.04150  0.82148  Biso   1.000  C
  C62      1.0000 0.01600  0.45850  0.32148  Biso   1.000  C
  C63      1.0000 0.48400  0.95850  0.67852  Biso   1.000  C
  C64      1.0000 0.51600  0.54150  0.17852  Biso   1.000  C
  C65      1.0000 0.98250  0.91480  0.14992  Biso   1.000  C
  C66      1.0000 0.01750  0.58520  0.64992  Biso   1.000  C
  C67      1.0000 0.48250  0.08520  0.35008  Biso   1.000  C
  C68      1.0000 0.51750  0.41480  0.85008  Biso   1.000  C
  C69      1.0000 0.01750  0.08520  0.85008  Biso   1.000  C
  C70      1.0000 0.98250  0.41480  0.35008  Biso   1.000  C
  C71      1.0000 0.51750  0.91480  0.64992  Biso   1.000  C
  C72      1.0000 0.48250  0.58520  0.14992  Biso   1.000  C
  H33      1.0000 0.98310  0.94330  0.12890  Biso   1.000  H
  H34      1.0000 0.01690  0.55670  0.62890  Biso   1.000  H
  H35      1.0000 0.48310  0.05670  0.37110  Biso   1.000  H
  H36      1.0000 0.51690  0.44330  0.87110  Biso   1.000  H
  H37      1.0000 0.01690  0.05670  0.87110  Biso   1.000  H
  H38      1.0000 0.98310  0.44330  0.37110  Biso   1.000  H
  H39      1.0000 0.51690  0.94330  0.62890  Biso   1.000  H
  H40      1.0000 0.48310  0.55670  0.12890  Biso   1.000  H
  C73      1.0000 0.94840  0.82850  0.15316  Biso   1.000  C
  C74      1.0000 0.05160  0.67150  0.65316  Biso   1.000  C
  C75      1.0000 0.44840  0.17150  0.34684  Biso   1.000  C
  C76      1.0000 0.55160  0.32850  0.84684  Biso   1.000  C
  C77      1.0000 0.05160  0.17150  0.84684  Biso   1.000  C
  C78      1.0000 0.94840  0.32850  0.34684  Biso   1.000  C
  C79      1.0000 0.55160  0.82850  0.65316  Biso   1.000  C
  C80      1.0000 0.44840  0.67150  0.15316  Biso   1.000  C
  H41      1.0000 0.92600  0.79720  0.13430  Biso   1.000  H
  H42      1.0000 0.07400  0.70280  0.63430  Biso   1.000  H
  H43      1.0000 0.42600  0.20280  0.36570  Biso   1.000  H
  H44      1.0000 0.57400  0.29720  0.86570  Biso   1.000  H
  H45      1.0000 0.07400  0.20280  0.86570  Biso   1.000  H
  H46      1.0000 0.92600  0.29720  0.36570  Biso   1.000  H
  H47      1.0000 0.57400  0.79720  0.63430  Biso   1.000  H
  H48      1.0000 0.42600  0.70280  0.13430  Biso   1.000  H
  C81      1.0000 0.94790  0.78890  0.18470  Biso   1.000  C
  C82      1.0000 0.05210  0.71110  0.68470  Biso   1.000  C
  C83      1.0000 0.44790  0.21110  0.31530  Biso   1.000  C
  C84      1.0000 0.55210  0.28890  0.81530  Biso   1.000  C
  C85      1.0000 0.05210  0.21110  0.81530  Biso   1.000  C
  C86      1.0000 0.94790  0.28890  0.31530  Biso   1.000  C
  C87      1.0000 0.55210  0.78890  0.68470  Biso   1.000  C
  C88      1.0000 0.44790  0.71110  0.18470  Biso   1.000  C
  H49      1.0000 0.92470  0.73050  0.18730  Biso   1.000  H
  H50      1.0000 0.07530  0.76950  0.68730  Biso   1.000  H
  H51      1.0000 0.42470  0.26950  0.31270  Biso   1.000  H
  H52      1.0000 0.57530  0.23050  0.81270  Biso   1.000  H
  H53      1.0000 0.07530  0.26950  0.81270  Biso   1.000  H
  H54      1.0000 0.92470  0.23050  0.31270  Biso   1.000  H
  H55      1.0000 0.57530  0.73050  0.68730  Biso   1.000  H
  H56      1.0000 0.42470  0.76950  0.18730  Biso   1.000  H
  C89      1.0000 0.98150  0.83520  0.21229  Biso   1.000  C
  C90      1.0000 0.01850  0.66480  0.71229  Biso   1.000  C
  C91      1.0000 0.48150  0.16480  0.28771  Biso   1.000  C
  C92      1.0000 0.51850  0.33520  0.78771  Biso   1.000  C
  C93      1.0000 0.01850  0.16480  0.78771  Biso   1.000  C
  C94      1.0000 0.98150  0.33520  0.28771  Biso   1.000  C
  C95      1.0000 0.51850  0.83520  0.71229  Biso   1.000  C
  C96      1.0000 0.48150  0.66480  0.21229  Biso   1.000  C
  H57      1.0000 0.98040  0.80780  0.23350  Biso   1.000  H
  H58      1.0000 0.01960  0.69220  0.73350  Biso   1.000  H
  H59      1.0000 0.48040  0.19220  0.26650  Biso   1.000  H
  H60      1.0000 0.51960  0.30780  0.76650  Biso   1.000  H
  H61      1.0000 0.01960  0.19220  0.76650  Biso   1.000  H
  H62      1.0000 0.98040  0.30780  0.26650  Biso   1.000  H
  H63      1.0000 0.51960  0.80780  0.73350  Biso   1.000  H
  H64      1.0000 0.48040  0.69220  0.23350  Biso   1.000  H
  Cu9      1.0000 0.12652  0.54408  0.01660  Biso   1.000  Cu
  Cu10     1.0000 0.87348  0.95592  0.51660  Biso   1.000  Cu
  Cu11     1.0000 0.62652  0.45592  0.48340  Biso   1.000  Cu
  Cu12     1.0000 0.37348  0.04408  0.98340  Biso   1.000  Cu
  Cu13     1.0000 0.87348  0.45592  0.98340  Biso   1.000  Cu
  Cu14     1.0000 0.12652  0.04408  0.48340  Biso   1.000  Cu
  Cu15     1.0000 0.37348  0.54408  0.51660  Biso   1.000  Cu
  Cu16     1.0000 0.62652  0.95592  0.01660  Biso   1.000  Cu
  O33      1.0000 0.09058  0.48909  0.05968  Biso   1.000  O
  O34      1.0000 0.90942  0.01091  0.55968  Biso   1.000  O
  O35      1.0000 0.59058  0.51091  0.44032  Biso   1.000  O
  O36      1.0000 0.40942  0.98909  0.94032  Biso   1.000  O
  O37      1.0000 0.90942  0.51091  0.94032  Biso   1.000  O
  O38      1.0000 0.09058  0.98909  0.44032  Biso   1.000  O
  O39      1.0000 0.40942  0.48909  0.55968  Biso   1.000  O
  O40      1.0000 0.59058  0.01091  0.05968  Biso   1.000  O
  O41      1.0000 0.09090  0.35367  0.08450  Biso   1.000  O
  O42      1.0000 0.90910  0.14633  0.58450  Biso   1.000  O
  O43      1.0000 0.59090  0.64633  0.41550  Biso   1.000  O
  O44      1.0000 0.40910  0.85367  0.91550  Biso   1.000  O
  O45      1.0000 0.90910  0.64633  0.91550  Biso   1.000  O
  O46      1.0000 0.09090  0.85367  0.41550  Biso   1.000  O
  O47      1.0000 0.40910  0.35367  0.58450  Biso   1.000  O
  O48      1.0000 0.59090  0.14633  0.08450  Biso   1.000  O
  N17      1.0000 0.11870  0.42024  0.99947  Biso   1.000  N
  N18      1.0000 0.88130  0.07976  0.49947  Biso   1.000  N
  N19      1.0000 0.61870  0.57976  0.50053  Biso   1.000  N
  N20      1.0000 0.38130  0.92024  0.00053  Biso   1.000  N
  N21      1.0000 0.88130  0.57976  0.00053  Biso   1.000  N
  N22      1.0000 0.11870  0.92024  0.50053  Biso   1.000  N
  N23      1.0000 0.38130  0.42024  0.49947  Biso   1.000  N
  N24      1.0000 0.61870  0.07976  0.99947  Biso   1.000  N
  C97      1.0000 0.09580  0.40250  0.05967  Biso   1.000  C
  C98      1.0000 0.90420  0.09750  0.55967  Biso   1.000  C
  C99      1.0000 0.59580  0.59750  0.44033  Biso   1.000  C
  C100     1.0000 0.40420  0.90250  0.94033  Biso   1.000  C
  C101     1.0000 0.90420  0.59750  0.94033  Biso   1.000  C
  C102     1.0000 0.09580  0.90250  0.44033  Biso   1.000  C
  C103     1.0000 0.40420  0.40250  0.55967  Biso   1.000  C
  C104     1.0000 0.59580  0.09750  0.05967  Biso   1.000  C
  C105     1.0000 0.10660  0.36120  0.02505  Biso   1.000  C
  C106     1.0000 0.89340  0.13880  0.52505  Biso   1.000  C
  C107     1.0000 0.60660  0.63880  0.47495  Biso   1.000  C
  C108     1.0000 0.39340  0.86120  0.97495  Biso   1.000  C
  C109     1.0000 0.89340  0.63880  0.97495  Biso   1.000  C
  C110     1.0000 0.10660  0.86120  0.47495  Biso   1.000  C
  C111     1.0000 0.39340  0.36120  0.52505  Biso   1.000  C
  C112     1.0000 0.60660  0.13880  0.02505  Biso   1.000  C
  C113     1.0000 0.10550  0.26920  0.01985  Biso   1.000  C
  C114     1.0000 0.89450  0.23080  0.51985  Biso   1.000  C
  C115     1.0000 0.60550  0.73080  0.48015  Biso   1.000  C
  C116     1.0000 0.39450  0.76920  0.98015  Biso   1.000  C
  C117     1.0000 0.89450  0.73080  0.98015  Biso   1.000  C
  C118     1.0000 0.10550  0.76920  0.48015  Biso   1.000  C
  C119     1.0000 0.39450  0.26920  0.51985  Biso   1.000  C
  C120     1.0000 0.60550  0.23080  0.01985  Biso   1.000  C
  H65      1.0000 0.09860  0.22910  0.03780  Biso   1.000  H
  H66      1.0000 0.90140  0.27090  0.53780  Biso   1.000  H
  H67      1.0000 0.59860  0.77090  0.46220  Biso   1.000  H
  H68      1.0000 0.40140  0.72910  0.96220  Biso   1.000  H
  H69      1.0000 0.90140  0.77090  0.96220  Biso   1.000  H
  H70      1.0000 0.09860  0.72910  0.46220  Biso   1.000  H
  H71      1.0000 0.40140  0.22910  0.53780  Biso   1.000  H
  H72      1.0000 0.59860  0.27090  0.03780  Biso   1.000  H
  C121     1.0000 0.11530  0.23920  0.98667  Biso   1.000  C
  C122     1.0000 0.88470  0.26080  0.48667  Biso   1.000  C
  C123     1.0000 0.61530  0.76080  0.51333  Biso   1.000  C
  C124     1.0000 0.38470  0.73920  0.01333  Biso   1.000  C
  C125     1.0000 0.88470  0.76080  0.01333  Biso   1.000  C
  C126     1.0000 0.11530  0.73920  0.51333  Biso   1.000  C
  C127     1.0000 0.38470  0.23920  0.48667  Biso   1.000  C
  C128     1.0000 0.61530  0.26080  0.98667  Biso   1.000  C
  H73      1.0000 0.11420  0.17770  0.98230  Biso   1.000  H
  H74      1.0000 0.88580  0.32230  0.48230  Biso   1.000  H
  H75      1.0000 0.61420  0.82230  0.51770  Biso   1.000  H
  H76      1.0000 0.38580  0.67770  0.01770  Biso   1.000  H
  H77      1.0000 0.88580  0.82230  0.01770  Biso   1.000  H
  H78      1.0000 0.11420  0.67770  0.51770  Biso   1.000  H
  H79      1.0000 0.38580  0.17770  0.48230  Biso   1.000  H
  H80      1.0000 0.61420  0.32230  0.98230  Biso   1.000  H
  C129     1.0000 0.12650  0.29850  0.96004  Biso   1.000  C
  C130     1.0000 0.87350  0.20150  0.46004  Biso   1.000  C
  C131     1.0000 0.62650  0.70150  0.53996  Biso   1.000  C
  C132     1.0000 0.37350  0.79850  0.03996  Biso   1.000  C
  C133     1.0000 0.87350  0.70150  0.03996  Biso   1.000  C
  C134     1.0000 0.12650  0.79850  0.53996  Biso   1.000  C
  C135     1.0000 0.37350  0.29850  0.46004  Biso   1.000  C
  C136     1.0000 0.62650  0.20150  0.96004  Biso   1.000  C
  H81      1.0000 0.13240  0.27780  0.93790  Biso   1.000  H
  H82      1.0000 0.86760  0.22220  0.43790  Biso   1.000  H
  H83      1.0000 0.63240  0.72220  0.56210  Biso   1.000  H
  H84      1.0000 0.36760  0.77780  0.06210  Biso   1.000  H
  H85      1.0000 0.86760  0.72220  0.06210  Biso   1.000  H
  H86      1.0000 0.13240  0.77780  0.56210  Biso   1.000  H
  H87      1.0000 0.36760  0.27780  0.43790  Biso   1.000  H
  H88      1.0000 0.63240  0.22220  0.93790  Biso   1.000  H
  C137     1.0000 0.12890  0.39010  0.96737  Biso   1.000  C
  C138     1.0000 0.87110  0.10990  0.46737  Biso   1.000  C
  C139     1.0000 0.62890  0.60990  0.53263  Biso   1.000  C
  C140     1.0000 0.37110  0.89010  0.03263  Biso   1.000  C
  C141     1.0000 0.87110  0.60990  0.03263  Biso   1.000  C
  C142     1.0000 0.12890  0.89010  0.53263  Biso   1.000  C
  C143     1.0000 0.37110  0.39010  0.46737  Biso   1.000  C
  C144     1.0000 0.62890  0.10990  0.96737  Biso   1.000  C
  H89      1.0000 0.13760  0.43120  0.94990  Biso   1.000  H
  H90      1.0000 0.86240  0.06880  0.44990  Biso   1.000  H
  H91      1.0000 0.63760  0.56880  0.55010  Biso   1.000  H
  H92      1.0000 0.36240  0.93120  0.05010  Biso   1.000  H
  H93      1.0000 0.86240  0.56880  0.05010  Biso   1.000  H
  H94      1.0000 0.13760  0.93120  0.55010  Biso   1.000  H
  H95      1.0000 0.36240  0.43120  0.44990  Biso   1.000  H
  H96      1.0000 0.63760  0.06880  0.94990  Biso   1.000  H
  O49      1.0000 0.14930  0.59477  0.97187  Biso   1.000  O
  O50      1.0000 0.85070  0.90523  0.47187  Biso   1.000  O
  O51      1.0000 0.64930  0.40523  0.52813  Biso   1.000  O
  O52      1.0000 0.35070  0.09477  0.02813  Biso   1.000  O
  O53      1.0000 0.85070  0.40523  0.02813  Biso   1.000  O
  O54      1.0000 0.14930  0.09477  0.52813  Biso   1.000  O
  O55      1.0000 0.35070  0.59477  0.47187  Biso   1.000  O
  O56      1.0000 0.64930  0.90523  0.97187  Biso   1.000  O
  O57      1.0000 0.16820  0.72486  0.94464  Biso   1.000  O
  O58      1.0000 0.83180  0.77514  0.44464  Biso   1.000  O
  O59      1.0000 0.66820  0.27514  0.55536  Biso   1.000  O
  O60      1.0000 0.33180  0.22486  0.05536  Biso   1.000  O
  O61      1.0000 0.83180  0.27514  0.05536  Biso   1.000  O
  O62      1.0000 0.16820  0.22486  0.55536  Biso   1.000  O
  O63      1.0000 0.33180  0.72486  0.44464  Biso   1.000  O
  O64      1.0000 0.66820  0.77514  0.94464  Biso   1.000  O
  N25      1.0000 0.12290  0.67101  0.03102  Biso   1.000  N
  N26      1.0000 0.87710  0.82899  0.53102  Biso   1.000  N
  N27      1.0000 0.62290  0.32899  0.46898  Biso   1.000  N
  N28      1.0000 0.37710  0.17101  0.96898  Biso   1.000  N
  N29      1.0000 0.87710  0.32899  0.96898  Biso   1.000  N
  N30      1.0000 0.12290  0.17101  0.46898  Biso   1.000  N
  N31      1.0000 0.37710  0.67101  0.53102  Biso   1.000  N
  N32      1.0000 0.62290  0.82899  0.03102  Biso   1.000  N
  C145     1.0000 0.15200  0.68120  0.97085  Biso   1.000  C
  C146     1.0000 0.84800  0.81880  0.47085  Biso   1.000  C
  C147     1.0000 0.65200  0.31880  0.52915  Biso   1.000  C
  C148     1.0000 0.34800  0.18120  0.02915  Biso   1.000  C
  C149     1.0000 0.84800  0.31880  0.02915  Biso   1.000  C
  C150     1.0000 0.15200  0.18120  0.52915  Biso   1.000  C
  C151     1.0000 0.34800  0.68120  0.47085  Biso   1.000  C
  C152     1.0000 0.65200  0.81880  0.97085  Biso   1.000  C
  C153     1.0000 0.13610  0.72730  0.00427  Biso   1.000  C
  C154     1.0000 0.86390  0.77270  0.50427  Biso   1.000  C
  C155     1.0000 0.63610  0.27270  0.49573  Biso   1.000  C
  C156     1.0000 0.36390  0.22730  0.99573  Biso   1.000  C
  C157     1.0000 0.86390  0.27270  0.99573  Biso   1.000  C
  C158     1.0000 0.13610  0.22730  0.49573  Biso   1.000  C
  C159     1.0000 0.36390  0.72730  0.50427  Biso   1.000  C
  C160     1.0000 0.63610  0.77270  0.00427  Biso   1.000  C
  C161     1.0000 0.13570  0.81960  0.00777  Biso   1.000  C
  C162     1.0000 0.86430  0.68040  0.50777  Biso   1.000  C
  C163     1.0000 0.63570  0.18040  0.49223  Biso   1.000  C
  C164     1.0000 0.36430  0.31960  0.99223  Biso   1.000  C
  C165     1.0000 0.86430  0.18040  0.99223  Biso   1.000  C
  C166     1.0000 0.13570  0.31960  0.49223  Biso   1.000  C
  C167     1.0000 0.36430  0.81960  0.50777  Biso   1.000  C
  C168     1.0000 0.63570  0.68040  0.00777  Biso   1.000  C
  H97      1.0000 0.14430  0.85740  0.98920  Biso   1.000  H
  H98      1.0000 0.85570  0.64260  0.48920  Biso   1.000  H
  H99      1.0000 0.64430  0.14260  0.51080  Biso   1.000  H
  H100     1.0000 0.35570  0.35740  0.01080  Biso   1.000  H
  H101     1.0000 0.85570  0.14260  0.01080  Biso   1.000  H
  H102     1.0000 0.14430  0.35740  0.51080  Biso   1.000  H
  H103     1.0000 0.35570  0.85740  0.48920  Biso   1.000  H
  H104     1.0000 0.64430  0.64260  0.98920  Biso   1.000  H
  C169     1.0000 0.12180  0.85400  0.04063  Biso   1.000  C
  C170     1.0000 0.87820  0.64600  0.54063  Biso   1.000  C
  C171     1.0000 0.62180  0.14600  0.45937  Biso   1.000  C
  C172     1.0000 0.37820  0.35400  0.95937  Biso   1.000  C
  C173     1.0000 0.87820  0.14600  0.95937  Biso   1.000  C
  C174     1.0000 0.12180  0.35400  0.45937  Biso   1.000  C
  C175     1.0000 0.37820  0.85400  0.54063  Biso   1.000  C
  C176     1.0000 0.62180  0.64600  0.04063  Biso   1.000  C
  H105     1.0000 0.12180  0.91600  0.04410  Biso   1.000  H
  H106     1.0000 0.87820  0.58400  0.54410  Biso   1.000  H
  H107     1.0000 0.62180  0.08400  0.45590  Biso   1.000  H
  H108     1.0000 0.37820  0.41600  0.95590  Biso   1.000  H
  H109     1.0000 0.87820  0.08400  0.95590  Biso   1.000  H
  H110     1.0000 0.12180  0.41600  0.45590  Biso   1.000  H
  H111     1.0000 0.37820  0.91600  0.54410  Biso   1.000  H
  H112     1.0000 0.62180  0.58400  0.04410  Biso   1.000  H
  C177     1.0000 0.10830  0.79740  0.06746  Biso   1.000  C
  C178     1.0000 0.89170  0.70260  0.56746  Biso   1.000  C
  C179     1.0000 0.60830  0.20260  0.43254  Biso   1.000  C
  C180     1.0000 0.39170  0.29740  0.93254  Biso   1.000  C
  C181     1.0000 0.89170  0.20260  0.93254  Biso   1.000  C
  C182     1.0000 0.10830  0.29740  0.43254  Biso   1.000  C
  C183     1.0000 0.39170  0.79740  0.56746  Biso   1.000  C
  C184     1.0000 0.60830  0.70260  0.06746  Biso   1.000  C
  H113     1.0000 0.09870  0.82000  0.08920  Biso   1.000  H
  H114     1.0000 0.90130  0.68000  0.58920  Biso   1.000  H
  H115     1.0000 0.59870  0.18000  0.41080  Biso   1.000  H
  H116     1.0000 0.40130  0.32000  0.91080  Biso   1.000  H
  H117     1.0000 0.90130  0.18000  0.91080  Biso   1.000  H
  H118     1.0000 0.09870  0.32000  0.41080  Biso   1.000  H
  H119     1.0000 0.40130  0.82000  0.58920  Biso   1.000  H
  H120     1.0000 0.59870  0.68000  0.08920  Biso   1.000  H
  C185     1.0000 0.10930  0.70580  0.06169  Biso   1.000  C
  C186     1.0000 0.89070  0.79420  0.56169  Biso   1.000  C
  C187     1.0000 0.60930  0.29420  0.43831  Biso   1.000  C
  C188     1.0000 0.39070  0.20580  0.93831  Biso   1.000  C
  C189     1.0000 0.89070  0.29420  0.93831  Biso   1.000  C
  C190     1.0000 0.10930  0.20580  0.43831  Biso   1.000  C
  C191     1.0000 0.39070  0.70580  0.56169  Biso   1.000  C
  C192     1.0000 0.60930  0.79420  0.06169  Biso   1.000  C
  H121     1.0000 0.10010  0.66700  0.07990  Biso   1.000  H
  H122     1.0000 0.89990  0.83300  0.57990  Biso   1.000  H
  H123     1.0000 0.60010  0.33300  0.42010  Biso   1.000  H
  H124     1.0000 0.39990  0.16700  0.92010  Biso   1.000  H
  H125     1.0000 0.89990  0.33300  0.92010  Biso   1.000  H
  H126     1.0000 0.10010  0.16700  0.42010  Biso   1.000  H
  H127     1.0000 0.39990  0.66700  0.57990  Biso   1.000  H
  H128     1.0000 0.60010  0.83300  0.07990  Biso   1.000  H
  O65      1.0000 0.91090  0.35081  0.11790  Biso   1.000  O
  O66      1.0000 0.08910  0.14919  0.61790  Biso   1.000  O
  O67      1.0000 0.41090  0.64919  0.38210  Biso   1.000  O
  O68      1.0000 0.58910  0.85081  0.88210  Biso   1.000  O
  O69      1.0000 0.08910  0.64919  0.88210  Biso   1.000  O
  O70      1.0000 0.91090  0.85081  0.38210  Biso   1.000  O
  O71      1.0000 0.58910  0.35081  0.61790  Biso   1.000  O
  O72      1.0000 0.41090  0.14919  0.11790  Biso   1.000  O
  O73      1.0000 0.15640  0.24667  0.18849  Biso   1.000  O
  O74      1.0000 0.84360  0.25333  0.68849  Biso   1.000  O
  O75      1.0000 0.65640  0.75333  0.31151  Biso   1.000  O
  O76      1.0000 0.34360  0.74667  0.81151  Biso   1.000  O
  O77      1.0000 0.84360  0.75333  0.81151  Biso   1.000  O
  O78      1.0000 0.15640  0.74667  0.31151  Biso   1.000  O
  O79      1.0000 0.34360  0.24667  0.68849  Biso   1.000  O
  O80      1.0000 0.65640  0.25333  0.18849  Biso   1.000  O
  O81      1.0000 0.17850  0.15957  0.10191  Biso   1.000  O
  O82      1.0000 0.82150  0.34043  0.60191  Biso   1.000  O
  O83      1.0000 0.67850  0.84043  0.39809  Biso   1.000  O
  O84      1.0000 0.32150  0.65957  0.89809  Biso   1.000  O
  O85      1.0000 0.82150  0.84043  0.89809  Biso   1.000  O
  O86      1.0000 0.17850  0.65957  0.39809  Biso   1.000  O
  O87      1.0000 0.32150  0.15957  0.60191  Biso   1.000  O
  O88      1.0000 0.67850  0.34043  0.10191  Biso   1.000  O
  O89      1.0000 0.24026  0.32834  0.13214  Biso   1.000  O
  O90      1.0000 0.75974  0.17166  0.63214  Biso   1.000  O
  O91      1.0000 0.74026  0.67166  0.36786  Biso   1.000  O
  O92      1.0000 0.25974  0.82834  0.86786  Biso   1.000  O
  O93      1.0000 0.75974  0.67166  0.86786  Biso   1.000  O
  O94      1.0000 0.24026  0.82834  0.36786  Biso   1.000  O
  O95      1.0000 0.25974  0.32834  0.63214  Biso   1.000  O
  O96      1.0000 0.74026  0.17166  0.13214  Biso   1.000  O
  O97      1.0000 0.96620  0.17782  0.09259  Biso   1.000  O
  O98      1.0000 0.03380  0.32218  0.59259  Biso   1.000  O
  O99      1.0000 0.46620  0.82218  0.40741  Biso   1.000  O
  O100     1.0000 0.53380  0.67782  0.90741  Biso   1.000  O
  O101     1.0000 0.03380  0.82218  0.90741  Biso   1.000  O
  O102     1.0000 0.96620  0.67782  0.40741  Biso   1.000  O
  O103     1.0000 0.53380  0.17782  0.59259  Biso   1.000  O
  O104     1.0000 0.46620  0.32218  0.09259  Biso   1.000  O
  O105     1.0000 0.92700  0.24212  0.17550  Biso   1.000  O
  O106     1.0000 0.07300  0.25788  0.67550  Biso   1.000  O
  O107     1.0000 0.42700  0.75788  0.32450  Biso   1.000  O
  O108     1.0000 0.57300  0.74212  0.82450  Biso   1.000  O
  O109     1.0000 0.07300  0.75788  0.82450  Biso   1.000  O
  O110     1.0000 0.92700  0.74212  0.32450  Biso   1.000  O
  O111     1.0000 0.57300  0.24212  0.67550  Biso   1.000  O
  O112     1.0000 0.42700  0.25788  0.17550  Biso   1.000  O
  O113     1.0000 0.81750  0.38670  0.19838  Biso   1.000  O
  O114     1.0000 0.18250  0.11330  0.69838  Biso   1.000  O
  O115     1.0000 0.31750  0.61330  0.30162  Biso   1.000  O
  O116     1.0000 0.68250  0.88670  0.80162  Biso   1.000  O
  O117     1.0000 0.18250  0.61330  0.80162  Biso   1.000  O
  O118     1.0000 0.81750  0.88670  0.30162  Biso   1.000  O
  O119     1.0000 0.68250  0.38670  0.69838  Biso   1.000  O
  O120     1.0000 0.31750  0.11330  0.19838  Biso   1.000  O
  Cl1      1.0000 0.79641  0.57298  0.12978  Biso   1.000  Cl
  Cl2      1.0000 0.20359  0.92702  0.62978  Biso   1.000  Cl
  Cl3      1.0000 0.29641  0.42702  0.37022  Biso   1.000  Cl
  Cl4      1.0000 0.70359  0.07298  0.87022  Biso   1.000  Cl
  Cl5      1.0000 0.20359  0.42702  0.87022  Biso   1.000  Cl
  Cl6      1.0000 0.79641  0.07298  0.37022  Biso   1.000  Cl
  Cl7      1.0000 0.70359  0.57298  0.62978  Biso   1.000  Cl
  Cl8      1.0000 0.29641  0.92702  0.12978  Biso   1.000  Cl
  O121     1.0000 0.88820  0.54350  0.12470  Biso   1.000  O
  O122     1.0000 0.11180  0.95650  0.62470  Biso   1.000  O
  O123     1.0000 0.38820  0.45650  0.37530  Biso   1.000  O
  O124     1.0000 0.61180  0.04350  0.87530  Biso   1.000  O
  O125     1.0000 0.11180  0.45650  0.87530  Biso   1.000  O
  O126     1.0000 0.88820  0.04350  0.37530  Biso   1.000  O
  O127     1.0000 0.61180  0.54350  0.62470  Biso   1.000  O
  O128     1.0000 0.38820  0.95650  0.12470  Biso   1.000  O
  O129     1.0000 0.79320  0.66340  0.12261  Biso   1.000  O
  O130     1.0000 0.20680  0.83660  0.62261  Biso   1.000  O
  O131     1.0000 0.29320  0.33660  0.37739  Biso   1.000  O
  O132     1.0000 0.70680  0.16340  0.87739  Biso   1.000  O
  O133     1.0000 0.20680  0.33660  0.87739  Biso   1.000  O
  O134     1.0000 0.79320  0.16340  0.37739  Biso   1.000  O
  O135     1.0000 0.70680  0.66340  0.62261  Biso   1.000  O
  O136     1.0000 0.29320  0.83660  0.12261  Biso   1.000  O
  O137     1.0000 0.73890  0.52640  0.10515  Biso   1.000  O
  O138     1.0000 0.26110  0.97360  0.60515  Biso   1.000  O
  O139     1.0000 0.23890  0.47360  0.39485  Biso   1.000  O
  O140     1.0000 0.76110  0.02640  0.89485  Biso   1.000  O
  O141     1.0000 0.26110  0.47360  0.89485  Biso   1.000  O
  O142     1.0000 0.73890  0.02640  0.39485  Biso   1.000  O
  O143     1.0000 0.76110  0.52640  0.60515  Biso   1.000  O
  O144     1.0000 0.23890  0.97360  0.10515  Biso   1.000  O
  O145     1.0000 0.75930  0.55190  0.15997  Biso   1.000  O
  O146     1.0000 0.24070  0.94810  0.65997  Biso   1.000  O
  O147     1.0000 0.25930  0.44810  0.34003  Biso   1.000  O
  O148     1.0000 0.74070  0.05190  0.84003  Biso   1.000  O
  O149     1.0000 0.24070  0.44810  0.84003  Biso   1.000  O
  O150     1.0000 0.75930  0.05190  0.34003  Biso   1.000  O
  O151     1.0000 0.74070  0.55190  0.65997  Biso   1.000  O
  O152     1.0000 0.25930  0.94810  0.15997  Biso   1.000  O
  Cl9      1.0000 0.34131  0.52449  0.06554  Biso   1.000  Cl
  Cl10     1.0000 0.65869  0.97551  0.56554  Biso   1.000  Cl
  Cl11     1.0000 0.84131  0.47551  0.43446  Biso   1.000  Cl
  Cl12     1.0000 0.15869  0.02449  0.93446  Biso   1.000  Cl
  Cl13     1.0000 0.65869  0.47551  0.93446  Biso   1.000  Cl
  Cl14     1.0000 0.34131  0.02449  0.43446  Biso   1.000  Cl
  Cl15     1.0000 0.15869  0.52449  0.56554  Biso   1.000  Cl
  Cl16     1.0000 0.84131  0.97551  0.06554  Biso   1.000  Cl
  O153     1.0000 0.30330  0.52715  0.03123  Biso   1.000  O
  O154     1.0000 0.69670  0.97285  0.53123  Biso   1.000  O
  O155     1.0000 0.80330  0.47285  0.46877  Biso   1.000  O
  O156     1.0000 0.19670  0.02715  0.96877  Biso   1.000  O
  O157     1.0000 0.69670  0.47285  0.96877  Biso   1.000  O
  O158     1.0000 0.30330  0.02715  0.46877  Biso   1.000  O
  O159     1.0000 0.19670  0.52715  0.53123  Biso   1.000  O
  O160     1.0000 0.80330  0.97285  0.03123  Biso   1.000  O
  O161     1.0000 0.44320  0.51150  0.06434  Biso   1.000  O
  O162     1.0000 0.55680  0.98850  0.56434  Biso   1.000  O
  O163     1.0000 0.94320  0.48850  0.43566  Biso   1.000  O
  O164     1.0000 0.05680  0.01150  0.93566  Biso   1.000  O
  O165     1.0000 0.55680  0.48850  0.93566  Biso   1.000  O
  O166     1.0000 0.44320  0.01150  0.43566  Biso   1.000  O
  O167     1.0000 0.05680  0.51150  0.56434  Biso   1.000  O
  O168     1.0000 0.94320  0.98850  0.06434  Biso   1.000  O
  O169     1.0000 0.31670  0.60610  0.08189  Biso   1.000  O
  O170     1.0000 0.68330  0.89390  0.58189  Biso   1.000  O
  O171     1.0000 0.81670  0.39390  0.41811  Biso   1.000  O
  O172     1.0000 0.18330  0.10610  0.91811  Biso   1.000  O
  O173     1.0000 0.68330  0.39390  0.91811  Biso   1.000  O
  O174     1.0000 0.31670  0.10610  0.41811  Biso   1.000  O
  O175     1.0000 0.18330  0.60610  0.58189  Biso   1.000  O
  O176     1.0000 0.81670  0.89390  0.08189  Biso   1.000  O
  O177     1.0000 0.30090  0.45080  0.08281  Biso   1.000  O
  O178     1.0000 0.69910  0.04920  0.58281  Biso   1.000  O
  O179     1.0000 0.80090  0.54920  0.41719  Biso   1.000  O
  O180     1.0000 0.19910  0.95080  0.91719  Biso   1.000  O
  O181     1.0000 0.69910  0.54920  0.91719  Biso   1.000  O
  O182     1.0000 0.30090  0.95080  0.41719  Biso   1.000  O
  O183     1.0000 0.19910  0.45080  0.58281  Biso   1.000  O
  O184     1.0000 0.80090  0.04920  0.08281  Biso   1.000  O
  Cl17     1.0000 0.81738  0.59547  0.25849  Biso   1.000  Cl
  Cl18     1.0000 0.18262  0.90453  0.75849  Biso   1.000  Cl
  Cl19     1.0000 0.31738  0.40453  0.24151  Biso   1.000  Cl
  Cl20     1.0000 0.68262  0.09547  0.74151  Biso   1.000  Cl
  Cl21     1.0000 0.18262  0.40453  0.74151  Biso   1.000  Cl
  Cl22     1.0000 0.81738  0.09547  0.24151  Biso   1.000  Cl
  Cl23     1.0000 0.68262  0.59547  0.75849  Biso   1.000  Cl
  Cl24     1.0000 0.31738  0.90453  0.25849  Biso   1.000  Cl
  O185     1.0000 0.73060  0.59360  0.24062  Biso   1.000  O
  O186     1.0000 0.26940  0.90640  0.74062  Biso   1.000  O
  O187     1.0000 0.23060  0.40640  0.25938  Biso   1.000  O
  O188     1.0000 0.76940  0.09360  0.75938  Biso   1.000  O
  O189     1.0000 0.26940  0.40640  0.75938  Biso   1.000  O
  O190     1.0000 0.73060  0.09360  0.25938  Biso   1.000  O
  O191     1.0000 0.76940  0.59360  0.74062  Biso   1.000  O
  O192     1.0000 0.23060  0.90640  0.24062  Biso   1.000  O
  O193     1.0000 0.80870  0.58600  0.29373  Biso   1.000  O
  O194     1.0000 0.19130  0.91400  0.79373  Biso   1.000  O
  O195     1.0000 0.30870  0.41400  0.20627  Biso   1.000  O
  O196     1.0000 0.69130  0.08600  0.70627  Biso   1.000  O
  O197     1.0000 0.19130  0.41400  0.70627  Biso   1.000  O
  O198     1.0000 0.80870  0.08600  0.20627  Biso   1.000  O
  O199     1.0000 0.69130  0.58600  0.79373  Biso   1.000  O
  O200     1.0000 0.30870  0.91400  0.29373  Biso   1.000  O
  O201     1.0000 0.86120  0.67790  0.25284  Biso   1.000  O
  O202     1.0000 0.13880  0.82210  0.75284  Biso   1.000  O
  O203     1.0000 0.36120  0.32210  0.24716  Biso   1.000  O
  O204     1.0000 0.63880  0.17790  0.74716  Biso   1.000  O
  O205     1.0000 0.13880  0.32210  0.74716  Biso   1.000  O
  O206     1.0000 0.86120  0.17790  0.24716  Biso   1.000  O
  O207     1.0000 0.63880  0.67790  0.75284  Biso   1.000  O
  O208     1.0000 0.36120  0.82210  0.25284  Biso   1.000  O
  O209     1.0000 0.88130  0.54090  0.24442  Biso   1.000  O
  O210     1.0000 0.11870  0.95910  0.74442  Biso   1.000  O
  O211     1.0000 0.38130  0.45910  0.25558  Biso   1.000  O
  O212     1.0000 0.61870  0.04090  0.75558  Biso   1.000  O
  O213     1.0000 0.11870  0.45910  0.75558  Biso   1.000  O
  O214     1.0000 0.88130  0.04090  0.25558  Biso   1.000  O
  O215     1.0000 0.61870  0.54090  0.74442  Biso   1.000  O
  O216     1.0000 0.38130  0.95910  0.24442  Biso   1.000  O
