data_image0
_cell_length_a       8.7129
_cell_length_b       14.9
_cell_length_c       16.791
_cell_angle_alpha    81.59
_cell_angle_beta     86.29
_cell_angle_gamma    84.59

_symmetry_space_group_name_H-M    "P 1"
_symmetry_int_tables_number       1

loop_
  _symmetry_equiv_pos_as_xyz
  'x, y, z'

loop_
  _atom_site_label
  _atom_site_occupancy
  _atom_site_fract_x
  _atom_site_fract_y
  _atom_site_fract_z
  _atom_site_thermal_displace_type
  _atom_site_B_iso_or_equiv
  _atom_site_type_symbol
  Gd1      1.0000 0.68032  0.73861  0.22042  Biso   1.000  Gd
  Gd2      1.0000 0.31968  0.26139  0.77958  Biso   1.000  Gd
  Cu1      1.0000 0.41878  0.90688  0.49217  Biso   1.000  Cu
  Cu2      1.0000 0.58122  0.09312  0.50783  Biso   1.000  Cu
  O1       1.0000 0.50292  0.83297  0.41142  Biso   1.000  O
  O2       1.0000 0.49708  0.16703  0.58858  Biso   1.000  O
  O3       1.0000 0.45976  0.80281  0.28966  Biso   1.000  O
  O4       1.0000 0.54024  0.19719  0.71034  Biso   1.000  O
  N1       1.0000 0.26856  0.95536  0.41173  Biso   1.000  N
  N2       1.0000 0.73144  0.04464  0.58827  Biso   1.000  N
  C1       1.0000 0.42600  0.84334  0.34882  Biso   1.000  C
  C2       1.0000 0.57400  0.15666  0.65118  Biso   1.000  C
  C3       1.0000 0.28660  0.91038  0.34696  Biso   1.000  C
  C4       1.0000 0.71340  0.08962  0.65304  Biso   1.000  C
  C5       1.0000 0.18450  0.92691  0.28629  Biso   1.000  C
  C6       1.0000 0.81550  0.07309  0.71371  Biso   1.000  C
  H1       1.0000 0.19900  0.89560  0.24200  Biso   1.000  H
  H2       1.0000 0.80100  0.10440  0.75800  Biso   1.000  H
  C7       1.0000 0.06010  0.99075  0.29208  Biso   1.000  C
  C8       1.0000 0.93990  0.00925  0.70792  Biso   1.000  C
  H3       1.0000 0.98890  0.00260  0.25210  Biso   1.000  H
  H4       1.0000 0.01110  0.99740  0.74790  Biso   1.000  H
  C9       1.0000 0.04340  0.03686  0.35845  Biso   1.000  C
  C10      1.0000 0.95660  0.96314  0.64155  Biso   1.000  C
  H5       1.0000 0.96040  0.08010  0.36350  Biso   1.000  H
  H6       1.0000 0.03960  0.91990  0.63650  Biso   1.000  H
  C11      1.0000 0.14990  0.01841  0.41678  Biso   1.000  C
  C12      1.0000 0.85010  0.98159  0.58322  Biso   1.000  C
  H7       1.0000 0.13930  0.05040  0.46070  Biso   1.000  H
  H8       1.0000 0.86070  0.94960  0.53930  Biso   1.000  H
  Cu3      1.0000 0.00000  0.50000  0.50000  Biso   1.000  Cu
  O5       1.0000 0.33964  0.98549  0.57065  Biso   1.000  O
  O6       1.0000 0.66036  0.01451  0.42935  Biso   1.000  O
  O7       1.0000 0.32360  0.98495  0.70419  Biso   1.000  O
  O8       1.0000 0.67640  0.01505  0.29581  Biso   1.000  O
  N3       1.0000 0.54709  0.84771  0.57898  Biso   1.000  N
  N4       1.0000 0.45291  0.15229  0.42102  Biso   1.000  N
  C13      1.0000 0.37510  0.95316  0.64315  Biso   1.000  C
  C14      1.0000 0.62490  0.04684  0.35685  Biso   1.000  C
  C15      1.0000 0.49520  0.87404  0.65048  Biso   1.000  C
  C16      1.0000 0.50480  0.12596  0.34952  Biso   1.000  C
  C17      1.0000 0.55430  0.83287  0.72152  Biso   1.000  C
  C18      1.0000 0.44570  0.16713  0.27848  Biso   1.000  C
  H9       1.0000 0.51510  0.85040  0.77030  Biso   1.000  H
  H10      1.0000 0.48490  0.14960  0.22970  Biso   1.000  H
  C19      1.0000 0.67400  0.76426  0.71963  Biso   1.000  C
  C20      1.0000 0.32600  0.23574  0.28037  Biso   1.000  C
  H11      1.0000 0.71500  0.73440  0.76710  Biso   1.000  H
  H12      1.0000 0.28500  0.26560  0.23290  Biso   1.000  H
  C21      1.0000 0.72990  0.74166  0.64681  Biso   1.000  C
  C22      1.0000 0.27010  0.25834  0.35319  Biso   1.000  C
  H13      1.0000 0.81280  0.69790  0.64420  Biso   1.000  H
  H14      1.0000 0.18720  0.30210  0.35580  Biso   1.000  H
  C23      1.0000 0.66390  0.78355  0.57731  Biso   1.000  C
  C24      1.0000 0.33610  0.21645  0.42269  Biso   1.000  C
  H15      1.0000 0.70160  0.76670  0.52810  Biso   1.000  H
  H16      1.0000 0.29840  0.23330  0.47190  Biso   1.000  H
  O9       1.0000 0.93255  0.56810  0.39828  Biso   1.000  O
  O10      1.0000 0.06745  0.43190  0.60172  Biso   1.000  O
  O11      1.0000 0.73271  0.65354  0.34481  Biso   1.000  O
  O12      1.0000 0.26729  0.34646  0.65519  Biso   1.000  O
  N5       1.0000 0.78630  0.53208  0.53811  Biso   1.000  N
  N6       1.0000 0.21370  0.46792  0.46189  Biso   1.000  N
  C25      1.0000 0.79420  0.60272  0.40174  Biso   1.000  C
  C26      1.0000 0.20580  0.39728  0.59826  Biso   1.000  C
  C27      1.0000 0.70460  0.58350  0.47969  Biso   1.000  C
  C28      1.0000 0.29540  0.41650  0.52031  Biso   1.000  C
  C29      1.0000 0.55230  0.61404  0.49279  Biso   1.000  C
  C30      1.0000 0.44770  0.38596  0.50721  Biso   1.000  C
  H17      1.0000 0.49750  0.64900  0.45170  Biso   1.000  H
  H18      1.0000 0.50250  0.35100  0.54830  Biso   1.000  H
  C31      1.0000 0.48200  0.59128  0.56926  Biso   1.000  C
  C32      1.0000 0.51800  0.40872  0.43074  Biso   1.000  C
  H19      1.0000 0.37930  0.61100  0.58000  Biso   1.000  H
  H20      1.0000 0.62070  0.38900  0.42000  Biso   1.000  H
  C33      1.0000 0.56630  0.53949  0.62848  Biso   1.000  C
  C34      1.0000 0.43370  0.46051  0.37152  Biso   1.000  C
  H21      1.0000 0.52080  0.52400  0.67970  Biso   1.000  H
  H22      1.0000 0.47920  0.47600  0.32030  Biso   1.000  H
  C35      1.0000 0.71790  0.51058  0.61185  Biso   1.000  C
  C36      1.0000 0.28210  0.48942  0.38815  Biso   1.000  C
  H23      1.0000 0.77430  0.47550  0.65220  Biso   1.000  H
  H24      1.0000 0.22570  0.52450  0.34780  Biso   1.000  H
  Cu4      1.0000 0.00000  0.50000  0.00000  Biso   1.000  Cu
  O13      1.0000 0.89531  0.58729  0.06641  Biso   1.000  O
  O14      1.0000 0.10469  0.41271  0.93359  Biso   1.000  O
  O15      1.0000 0.79297  0.59533  0.19081  Biso   1.000  O
  O16      1.0000 0.20703  0.40467  0.80919  Biso   1.000  O
  N7       1.0000 0.95804  0.41147  0.09693  Biso   1.000  N
  N8       1.0000 0.04196  0.58853  0.90307  Biso   1.000  N
  C37      1.0000 0.85680  0.55274  0.13777  Biso   1.000  C
  C38      1.0000 0.14320  0.44726  0.86223  Biso   1.000  C
  C39      1.0000 0.88940  0.45136  0.15797  Biso   1.000  C
  C40      1.0000 0.11060  0.54864  0.84203  Biso   1.000  C
  C41      1.0000 0.85520  0.40408  0.23311  Biso   1.000  C
  C42      1.0000 0.14480  0.59592  0.76689  Biso   1.000  C
  H25      1.0000 0.80970  0.43410  0.27460  Biso   1.000  H
  H26      1.0000 0.19030  0.56590  0.72540  Biso   1.000  H
  C43      1.0000 0.89060  0.31114  0.24484  Biso   1.000  C
  C44      1.0000 0.10940  0.68886  0.75516  Biso   1.000  C
  H27      1.0000 0.86640  0.27710  0.29430  Biso   1.000  H
  H28      1.0000 0.13360  0.72290  0.70570  Biso   1.000  H
  C45      1.0000 0.96170  0.26911  0.18323  Biso   1.000  C
  C46      1.0000 0.03830  0.73089  0.81677  Biso   1.000  C
  H29      1.0000 0.98720  0.20650  0.19060  Biso   1.000  H
  H30      1.0000 0.01280  0.79350  0.80940  Biso   1.000  H
  C47      1.0000 0.99520  0.32139  0.10951  Biso   1.000  C
  C48      1.0000 0.00480  0.67861  0.89049  Biso   1.000  C
  H31      1.0000 0.04470  0.29300  0.06790  Biso   1.000  H
  H32      1.0000 0.95530  0.70700  0.93210  Biso   1.000  H
  Cu5      1.0000 0.00000  0.00000  0.00000  Biso   1.000  Cu
  O17      1.0000 0.90486  0.92007  0.08976  Biso   1.000  O
  O18      1.0000 0.09514  0.07993  0.91024  Biso   1.000  O
  O19      1.0000 0.92276  0.77819  0.15410  Biso   1.000  O
  O20      1.0000 0.07724  0.22181  0.84590  Biso   1.000  O
  N9       1.0000 0.13820  0.88824  0.98878  Biso   1.000  N
  N10      1.0000 0.86180  0.11176  0.01122  Biso   1.000  N
  C49      1.0000 0.96880  0.83949  0.10215  Biso   1.000  C
  C50      1.0000 0.03120  0.16051  0.89785  Biso   1.000  C
  C51      1.0000 0.10530  0.81851  0.04691  Biso   1.000  C
  C52      1.0000 0.89470  0.18149  0.95309  Biso   1.000  C
  C53      1.0000 0.19000  0.73473  0.05230  Biso   1.000  C
  C54      1.0000 0.81000  0.26527  0.94770  Biso   1.000  C
  H33      1.0000 0.16590  0.68770  0.09270  Biso   1.000  H
  H34      1.0000 0.83410  0.31230  0.90730  Biso   1.000  H
  C55      1.0000 0.31130  0.72218  0.99656  Biso   1.000  C
  C56      1.0000 0.68870  0.27782  0.00344  Biso   1.000  C
  H35      1.0000 0.37080  0.66670  0.99900  Biso   1.000  H
  H36      1.0000 0.62920  0.33330  0.00100  Biso   1.000  H
  C57      1.0000 0.34190  0.79255  0.93799  Biso   1.000  C
  C58      1.0000 0.65810  0.20745  0.06201  Biso   1.000  C
  H37      1.0000 0.42180  0.78480  0.89940  Biso   1.000  H
  H38      1.0000 0.57820  0.21520  0.10060  Biso   1.000  H
  C59      1.0000 0.25533  0.87501  0.93549  Biso   1.000  C
  C60      1.0000 0.74467  0.12499  0.06451  Biso   1.000  C
  H39      1.0000 0.27910  0.92260  0.89570  Biso   1.000  H
  H40      1.0000 0.72090  0.07740  0.10430  Biso   1.000  H
  O21      1.0000 0.65313  0.73219  0.07623  Biso   1.000  O
  O22      1.0000 0.34687  0.26781  0.92377  Biso   1.000  O
  O23      1.0000 0.61068  0.88827  0.15493  Biso   1.000  O
  O24      1.0000 0.38932  0.11173  0.84507  Biso   1.000  O
  O25      1.0000 0.46721  0.65069  0.21708  Biso   1.000  O
  O26      1.0000 0.53279  0.34931  0.78292  Biso   1.000  O
  O27      1.0000 0.79561  0.83533  0.30213  Biso   1.000  O
  O28      1.0000 0.20439  0.16467  0.69787  Biso   1.000  O
  O29      1.0000 0.16555  0.68947  0.26631  Biso   1.000  O
  O30      1.0000 0.83445  0.31053  0.73369  Biso   1.000  O
  Cl1      1.0000 0.89422  0.26468  0.50164  Biso   1.000  Cl
  Cl2      1.0000 0.10578  0.73532  0.49836  Biso   1.000  Cl
  O31      1.0000 0.79048  0.28972  0.56591  Biso   1.000  O
  O32      1.0000 0.20952  0.71028  0.43409  Biso   1.000  O
  O33      1.0000 0.93538  0.34571  0.45054  Biso   1.000  O
  O34      1.0000 0.06462  0.65429  0.54946  Biso   1.000  O
  O35      1.0000 0.02813  0.21482  0.53431  Biso   1.000  O
  O36      1.0000 0.97187  0.78518  0.46568  Biso   1.000  O
  O37      1.0000 0.81716  0.21178  0.45443  Biso   1.000  O
  O38      1.0000 0.18284  0.78821  0.54557  Biso   1.000  O
  Cl3      1.0000 0.70289  0.92451  0.90606  Biso   1.000  Cl
  Cl4      1.0000 0.29711  0.07549  0.09394  Biso   1.000  Cl
  O39      1.0000 0.60247  0.96352  0.84440  Biso   1.000  O
  O40      1.0000 0.39753  0.03648  0.15560  Biso   1.000  O
  O41      1.0000 0.84706  0.96157  0.89454  Biso   1.000  O
  O42      1.0000 0.15294  0.03843  0.10546  Biso   1.000  O
  O43      1.0000 0.63251  0.93439  0.98211  Biso   1.000  O
  O44      1.0000 0.36749  0.06561  0.01789  Biso   1.000  O
  O45      1.0000 0.72580  0.82970  0.90149  Biso   1.000  O
  O46      1.0000 0.27420  0.17030  0.09851  Biso   1.000  O
  Cl5      1.0000 0.34509  0.46281  0.11918  Biso   1.000  Cl
  Cl6      1.0000 0.65491  0.53719  0.88082  Biso   1.000  Cl
  O47      1.0000 0.37930  0.37529  0.09749  Biso   1.000  O
  O48      1.0000 0.62070  0.62471  0.90251  Biso   1.000  O
  O49      1.0000 0.25336  0.51762  0.05909  Biso   1.000  O
  O50      1.0000 0.74664  0.48238  0.94091  Biso   1.000  O
  O51      1.0000 0.48126  0.50674  0.12464  Biso   1.000  O
  O52      1.0000 0.51874  0.49326  0.87536  Biso   1.000  O
  O53      1.0000 0.25498  0.45574  0.19439  Biso   1.000  O
  O54      1.0000 0.74502  0.54425  0.80561  Biso   1.000  O
