data_image0
_cell_length_a       8.6757
_cell_length_b       14.8466
_cell_length_c       16.758
_cell_angle_alpha    81.346
_cell_angle_beta     85.909
_cell_angle_gamma    84.322

_symmetry_space_group_name_H-M    "P 1"
_symmetry_int_tables_number       1

loop_
  _symmetry_equiv_pos_as_xyz
  'x, y, z'

loop_
  _atom_site_label
  _atom_site_occupancy
  _atom_site_fract_x
  _atom_site_fract_y
  _atom_site_fract_z
  _atom_site_thermal_displace_type
  _atom_site_B_iso_or_equiv
  _atom_site_type_symbol
  Yb1      1.0000 0.68394  0.73821  0.22151  Biso   1.000  Yb
  Yb2      1.0000 0.31606  0.26179  0.77849  Biso   1.000  Yb
  Cu1      1.0000 0.42079  0.90653  0.49222  Biso   1.000  Cu
  Cu2      1.0000 0.57921  0.09347  0.50778  Biso   1.000  Cu
  O1       1.0000 0.50770  0.83164  0.41246  Biso   1.000  O
  O2       1.0000 0.49230  0.16836  0.58754  Biso   1.000  O
  O3       1.0000 0.46790  0.80111  0.28981  Biso   1.000  O
  O4       1.0000 0.53210  0.19889  0.71019  Biso   1.000  O
  N1       1.0000 0.27210  0.95497  0.41091  Biso   1.000  N
  N2       1.0000 0.72790  0.04503  0.58909  Biso   1.000  N
  C1       1.0000 0.43250  0.84138  0.34886  Biso   1.000  C
  C2       1.0000 0.56750  0.15862  0.65114  Biso   1.000  C
  C3       1.0000 0.29170  0.90871  0.34632  Biso   1.000  C
  C4       1.0000 0.70830  0.09129  0.65368  Biso   1.000  C
  C5       1.0000 0.18970  0.92468  0.28546  Biso   1.000  C
  C6       1.0000 0.81030  0.07532  0.71454  Biso   1.000  C
  H1       1.0000 0.20490  0.89290  0.24130  Biso   1.000  H
  H2       1.0000 0.79510  0.10710  0.75870  Biso   1.000  H
  C7       1.0000 0.06400  0.98890  0.29122  Biso   1.000  C
  C8       1.0000 0.93600  0.01110  0.70878  Biso   1.000  C
  H3       1.0000 0.99260  0.00010  0.25130  Biso   1.000  H
  H4       1.0000 0.00740  0.99990  0.74870  Biso   1.000  H
  C9       1.0000 0.04530  0.03605  0.35621  Biso   1.000  C
  C10      1.0000 0.95470  0.96395  0.64379  Biso   1.000  C
  H5       1.0000 0.96230  0.08020  0.36030  Biso   1.000  H
  H6       1.0000 0.03770  0.91980  0.63970  Biso   1.000  H
  C11      1.0000 0.15140  0.01715  0.41559  Biso   1.000  C
  C12      1.0000 0.84860  0.98285  0.58441  Biso   1.000  C
  H7       1.0000 0.13810  0.04860  0.45990  Biso   1.000  H
  H8       1.0000 0.86190  0.95140  0.54010  Biso   1.000  H
  O5       1.0000 0.33870  0.98564  0.56993  Biso   1.000  O
  O6       1.0000 0.66130  0.01436  0.43007  Biso   1.000  O
  O7       1.0000 0.32090  0.98775  0.70346  Biso   1.000  O
  O8       1.0000 0.67910  0.01225  0.29654  Biso   1.000  O
  N3       1.0000 0.54740  0.84724  0.58012  Biso   1.000  N
  N4       1.0000 0.45260  0.15276  0.41988  Biso   1.000  N
  C13      1.0000 0.37510  0.95576  0.64284  Biso   1.000  C
  C14      1.0000 0.62490  0.04424  0.35716  Biso   1.000  C
  C15      1.0000 0.49390  0.87430  0.65085  Biso   1.000  C
  C16      1.0000 0.50610  0.12570  0.34915  Biso   1.000  C
  C17      1.0000 0.55320  0.83460  0.72269  Biso   1.000  C
  C18      1.0000 0.44680  0.16540  0.27731  Biso   1.000  C
  H9       1.0000 0.51370  0.85380  0.77100  Biso   1.000  H
  H10      1.0000 0.48630  0.14620  0.22900  Biso   1.000  H
  C19      1.0000 0.67220  0.76590  0.72238  Biso   1.000  C
  C20      1.0000 0.32780  0.23410  0.27762  Biso   1.000  C
  H11      1.0000 0.71290  0.73740  0.77060  Biso   1.000  H
  H12      1.0000 0.28710  0.26260  0.22940  Biso   1.000  H
  C21      1.0000 0.73010  0.74000  0.64986  Biso   1.000  C
  C22      1.0000 0.26990  0.26000  0.35014  Biso   1.000  C
  H13      1.0000 0.81210  0.69480  0.64820  Biso   1.000  H
  H14      1.0000 0.18790  0.30520  0.35180  Biso   1.000  H
  C23      1.0000 0.66460  0.78220  0.57989  Biso   1.000  C
  C24      1.0000 0.33540  0.21780  0.42011  Biso   1.000  C
  H15      1.0000 0.70340  0.76470  0.53080  Biso   1.000  H
  H16      1.0000 0.29660  0.23530  0.46920  Biso   1.000  H
  Cu3      1.0000 0.00000  0.50000  0.50000  Biso   1.000  Cu
  O9       1.0000 0.93400  0.56820  0.39712  Biso   1.000  O
  O10      1.0000 0.06600  0.43180  0.60288  Biso   1.000  O
  O11      1.0000 0.73240  0.65400  0.34277  Biso   1.000  O
  O12      1.0000 0.26760  0.34600  0.65723  Biso   1.000  O
  N5       1.0000 0.78460  0.53215  0.53733  Biso   1.000  N
  N6       1.0000 0.21540  0.46785  0.46267  Biso   1.000  N
  C25      1.0000 0.79530  0.60365  0.39910  Biso   1.000  C
  C26      1.0000 0.20470  0.39635  0.60090  Biso   1.000  C
  C27      1.0000 0.70290  0.58324  0.47856  Biso   1.000  C
  C28      1.0000 0.29710  0.41676  0.52144  Biso   1.000  C
  C29      1.0000 0.55010  0.61452  0.49117  Biso   1.000  C
  C30      1.0000 0.44990  0.38548  0.50883  Biso   1.000  C
  H17      1.0000 0.49580  0.64970  0.44970  Biso   1.000  H
  H18      1.0000 0.50420  0.35030  0.55030  Biso   1.000  H
  C31      1.0000 0.47880  0.59220  0.56750  Biso   1.000  C
  C32      1.0000 0.52120  0.40780  0.43250  Biso   1.000  C
  H19      1.0000 0.37510  0.61170  0.57780  Biso   1.000  H
  H20      1.0000 0.62490  0.38830  0.42220  Biso   1.000  H
  C33      1.0000 0.56280  0.54100  0.62784  Biso   1.000  C
  C34      1.0000 0.43720  0.45900  0.37216  Biso   1.000  C
  H21      1.0000 0.51660  0.52640  0.67940  Biso   1.000  H
  H22      1.0000 0.48340  0.47360  0.32060  Biso   1.000  H
  C35      1.0000 0.71560  0.51178  0.61124  Biso   1.000  C
  C36      1.0000 0.28440  0.48822  0.38876  Biso   1.000  C
  H23      1.0000 0.77220  0.47720  0.65210  Biso   1.000  H
  H24      1.0000 0.22780  0.52280  0.34790  Biso   1.000  H
  Cu4      1.0000 0.00000  0.50000  0.00000  Biso   1.000  Cu
  O13      1.0000 0.89540  0.58930  0.06632  Biso   1.000  O
  O14      1.0000 0.10460  0.41070  0.93368  Biso   1.000  O
  O15      1.0000 0.79610  0.59897  0.19163  Biso   1.000  O
  O16      1.0000 0.20390  0.40103  0.80837  Biso   1.000  O
  N7       1.0000 0.95710  0.41206  0.09797  Biso   1.000  N
  N8       1.0000 0.04290  0.58794  0.90203  Biso   1.000  N
  C37      1.0000 0.85780  0.55563  0.13839  Biso   1.000  C
  C38      1.0000 0.14220  0.44437  0.86161  Biso   1.000  C
  C39      1.0000 0.88900  0.45358  0.15956  Biso   1.000  C
  C40      1.0000 0.11100  0.54642  0.84044  Biso   1.000  C
  C41      1.0000 0.85360  0.40683  0.23411  Biso   1.000  C
  C42      1.0000 0.14640  0.59317  0.76589  Biso   1.000  C
  H25      1.0000 0.80730  0.43750  0.27540  Biso   1.000  H
  H26      1.0000 0.19270  0.56250  0.72460  Biso   1.000  H
  C43      1.0000 0.88790  0.31300  0.24714  Biso   1.000  C
  C44      1.0000 0.11210  0.68700  0.75286  Biso   1.000  C
  H27      1.0000 0.86430  0.27930  0.29720  Biso   1.000  H
  H28      1.0000 0.13570  0.72070  0.70280  Biso   1.000  H
  C45      1.0000 0.95780  0.27001  0.18426  Biso   1.000  C
  C46      1.0000 0.04220  0.72999  0.81574  Biso   1.000  C
  H29      1.0000 0.98140  0.20690  0.19160  Biso   1.000  H
  H30      1.0000 0.01860  0.79310  0.80840  Biso   1.000  H
  C47      1.0000 0.99220  0.32152  0.11091  Biso   1.000  C
  C48      1.0000 0.00780  0.67848  0.88909  Biso   1.000  C
  H31      1.0000 0.04110  0.29260  0.06920  Biso   1.000  H
  H32      1.0000 0.95890  0.70740  0.93080  Biso   1.000  H
  Cu5      1.0000 0.00000  0.00000  0.00000  Biso   1.000  Cu
  O17      1.0000 0.90390  0.92007  0.09027  Biso   1.000  O
  O18      1.0000 0.09610  0.07993  0.90973  Biso   1.000  O
  O19      1.0000 0.92120  0.77606  0.15447  Biso   1.000  O
  O20      1.0000 0.07880  0.22394  0.84553  Biso   1.000  O
  N9       1.0000 0.13820  0.88748  0.98904  Biso   1.000  N
  N10      1.0000 0.86180  0.11252  0.01096  Biso   1.000  N
  C49      1.0000 0.96750  0.83846  0.10249  Biso   1.000  C
  C50      1.0000 0.03250  0.16154  0.89751  Biso   1.000  C
  C51      1.0000 0.10660  0.81730  0.04737  Biso   1.000  C
  C52      1.0000 0.89340  0.18270  0.95263  Biso   1.000  C
  C53      1.0000 0.19100  0.73378  0.05337  Biso   1.000  C
  C54      1.0000 0.80900  0.26622  0.94663  Biso   1.000  C
  H33      1.0000 0.16640  0.68680  0.09410  Biso   1.000  H
  H34      1.0000 0.83360  0.31320  0.90590  Biso   1.000  H
  C55      1.0000 0.31350  0.72077  0.99765  Biso   1.000  C
  C56      1.0000 0.68650  0.27923  0.00235  Biso   1.000  C
  H35      1.0000 0.37350  0.66500  0.00070  Biso   1.000  H
  H36      1.0000 0.62650  0.33500  0.99930  Biso   1.000  H
  C57      1.0000 0.34500  0.79100  0.93817  Biso   1.000  C
  C58      1.0000 0.65500  0.20900  0.06183  Biso   1.000  C
  H37      1.0000 0.42660  0.78330  0.89990  Biso   1.000  H
  H38      1.0000 0.57340  0.21670  0.10010  Biso   1.000  H
  C59      1.0000 0.25503  0.87367  0.93501  Biso   1.000  C
  C60      1.0000 0.74497  0.12633  0.06499  Biso   1.000  C
  H39      1.0000 0.27680  0.92100  0.89390  Biso   1.000  H
  H40      1.0000 0.72320  0.07900  0.10610  Biso   1.000  H
  O21      1.0000 0.65100  0.73416  0.08096  Biso   1.000  O
  O22      1.0000 0.34900  0.26584  0.91904  Biso   1.000  O
  O23      1.0000 0.61814  0.88464  0.15963  Biso   1.000  O
  O24      1.0000 0.38186  0.11536  0.84037  Biso   1.000  O
  O25      1.0000 0.47789  0.65132  0.22052  Biso   1.000  O
  O26      1.0000 0.52211  0.34868  0.77948  Biso   1.000  O
  O27      1.0000 0.79769  0.83163  0.30039  Biso   1.000  O
  O28      1.0000 0.20231  0.16837  0.69961  Biso   1.000  O
  O29      1.0000 0.17034  0.69091  0.26600  Biso   1.000  O
  O30      1.0000 0.82966  0.30909  0.73400  Biso   1.000  O
  Cl1      1.0000 0.89660  0.26384  0.50253  Biso   1.000  Cl
  Cl2      1.0000 0.10340  0.73616  0.49747  Biso   1.000  Cl
  O31      1.0000 0.78984  0.28872  0.56607  Biso   1.000  O
  O32      1.0000 0.21016  0.71128  0.43393  Biso   1.000  O
  O33      1.0000 0.93889  0.34495  0.45075  Biso   1.000  O
  O34      1.0000 0.06111  0.65505  0.54925  Biso   1.000  O
  O35      1.0000 0.02941  0.21314  0.53624  Biso   1.000  O
  O36      1.0000 0.97059  0.78686  0.46376  Biso   1.000  O
  O37      1.0000 0.82173  0.21026  0.45506  Biso   1.000  O
  O38      1.0000 0.17827  0.78974  0.54494  Biso   1.000  O
  Cl3      1.0000 0.70106  0.92463  0.90785  Biso   1.000  Cl
  Cl4      1.0000 0.29894  0.07537  0.09215  Biso   1.000  Cl
  O39      1.0000 0.59615  0.96418  0.84803  Biso   1.000  O
  O40      1.0000 0.40385  0.03582  0.15197  Biso   1.000  O
  O41      1.0000 0.84010  0.96742  0.89654  Biso   1.000  O
  O42      1.0000 0.15990  0.03258  0.10346  Biso   1.000  O
  O43      1.0000 0.63313  0.92851  0.98635  Biso   1.000  O
  O44      1.0000 0.36687  0.07149  0.01365  Biso   1.000  O
  O45      1.0000 0.73284  0.83051  0.89998  Biso   1.000  O
  O46      1.0000 0.26716  0.16949  0.10002  Biso   1.000  O
  Cl5      1.0000 0.34681  0.46460  0.12046  Biso   1.000  Cl
  Cl6      1.0000 0.65319  0.53540  0.87954  Biso   1.000  Cl
  O47      1.0000 0.38384  0.37566  0.10153  Biso   1.000  O
  O48      1.0000 0.61616  0.62434  0.89847  Biso   1.000  O
  O49      1.0000 0.25594  0.51571  0.05806  Biso   1.000  O
  O50      1.0000 0.74406  0.48429  0.94194  Biso   1.000  O
  O51      1.0000 0.48257  0.50992  0.12417  Biso   1.000  O
  O52      1.0000 0.51743  0.49008  0.87583  Biso   1.000  O
  O53      1.0000 0.25676  0.46027  0.19461  Biso   1.000  O
  O54      1.0000 0.74324  0.53973  0.80539  Biso   1.000  O
