data_image0
_cell_length_a       8.6886
_cell_length_b       14.8669
_cell_length_c       16.7575
_cell_angle_alpha    81.577
_cell_angle_beta     86.315
_cell_angle_gamma    84.663

_symmetry_space_group_name_H-M    "P 1"
_symmetry_int_tables_number       1

loop_
  _symmetry_equiv_pos_as_xyz
  'x, y, z'

loop_
  _atom_site_label
  _atom_site_occupancy
  _atom_site_fract_x
  _atom_site_fract_y
  _atom_site_fract_z
  _atom_site_thermal_displace_type
  _atom_site_B_iso_or_equiv
  _atom_site_type_symbol
  Pr1      1.0000 0.68031  0.73865  0.22041  Biso   1.000  Pr
  Pr2      1.0000 0.31969  0.26135  0.77958  Biso   1.000  Pr
  Cu1      1.0000 0.41879  0.90694  0.49210  Biso   1.000  Cu
  Cu2      1.0000 0.58121  0.09306  0.50790  Biso   1.000  Cu
  O1       1.0000 0.50180  0.83223  0.41183  Biso   1.000  O
  O2       1.0000 0.49820  0.16777  0.58817  Biso   1.000  O
  O3       1.0000 0.45920  0.80202  0.28961  Biso   1.000  O
  O4       1.0000 0.54080  0.19798  0.71039  Biso   1.000  O
  N1       1.0000 0.26950  0.95570  0.41160  Biso   1.000  N
  N2       1.0000 0.73050  0.04430  0.58840  Biso   1.000  N
  C1       1.0000 0.42620  0.84320  0.34980  Biso   1.000  C
  C2       1.0000 0.57380  0.15680  0.65020  Biso   1.000  C
  C3       1.0000 0.28610  0.90960  0.34700  Biso   1.000  C
  C4       1.0000 0.71390  0.09040  0.65300  Biso   1.000  C
  C5       1.0000 0.18630  0.92710  0.28590  Biso   1.000  C
  C6       1.0000 0.81370  0.07290  0.71410  Biso   1.000  C
  H1       1.0000 0.20200  0.89700  0.24090  Biso   1.000  H
  H2       1.0000 0.79800  0.10300  0.75910  Biso   1.000  H
  C7       1.0000 0.06070  0.99100  0.29260  Biso   1.000  C
  C8       1.0000 0.93930  0.00900  0.70740  Biso   1.000  C
  H3       1.0000 0.98930  0.00270  0.25250  Biso   1.000  H
  H4       1.0000 0.01070  0.99730  0.74750  Biso   1.000  H
  C9       1.0000 0.04200  0.03720  0.35890  Biso   1.000  C
  C10      1.0000 0.95800  0.96280  0.64110  Biso   1.000  C
  H5       1.0000 0.95880  0.08050  0.36390  Biso   1.000  H
  H6       1.0000 0.04120  0.91950  0.63610  Biso   1.000  H
  C11      1.0000 0.14810  0.01810  0.41690  Biso   1.000  C
  C12      1.0000 0.85190  0.98190  0.58310  Biso   1.000  C
  H7       1.0000 0.13620  0.04920  0.46150  Biso   1.000  H
  H8       1.0000 0.86380  0.95080  0.53850  Biso   1.000  H
  O5       1.0000 0.33850  0.98520  0.57071  Biso   1.000  O
  O6       1.0000 0.66150  0.01480  0.42929  Biso   1.000  O
  O7       1.0000 0.32400  0.98500  0.70413  Biso   1.000  O
  O8       1.0000 0.67600  0.01500  0.29587  Biso   1.000  O
  N3       1.0000 0.54720  0.84790  0.57840  Biso   1.000  N
  N4       1.0000 0.45280  0.15210  0.42160  Biso   1.000  N
  C13      1.0000 0.37540  0.95220  0.64340  Biso   1.000  C
  C14      1.0000 0.62460  0.04780  0.35660  Biso   1.000  C
  C15      1.0000 0.49460  0.87380  0.65030  Biso   1.000  C
  C16      1.0000 0.50540  0.12620  0.34970  Biso   1.000  C
  C17      1.0000 0.55360  0.83330  0.72200  Biso   1.000  C
  C18      1.0000 0.44640  0.16670  0.27800  Biso   1.000  C
  H9       1.0000 0.51510  0.85150  0.77070  Biso   1.000  H
  H10      1.0000 0.48490  0.14850  0.22930  Biso   1.000  H
  C19      1.0000 0.67250  0.76410  0.72000  Biso   1.000  C
  C20      1.0000 0.32750  0.23590  0.28000  Biso   1.000  C
  H11      1.0000 0.71240  0.73390  0.76780  Biso   1.000  H
  H12      1.0000 0.28760  0.26610  0.23220  Biso   1.000  H
  C21      1.0000 0.73090  0.74060  0.64690  Biso   1.000  C
  C22      1.0000 0.26910  0.25940  0.35310  Biso   1.000  C
  H13      1.0000 0.81380  0.69660  0.64420  Biso   1.000  H
  H14      1.0000 0.18620  0.30340  0.35580  Biso   1.000  H
  C23      1.0000 0.66370  0.78350  0.57830  Biso   1.000  C
  C24      1.0000 0.33630  0.21650  0.42170  Biso   1.000  C
  H15      1.0000 0.70170  0.76680  0.52890  Biso   1.000  H
  H16      1.0000 0.29830  0.23320  0.47110  Biso   1.000  H
  Cu3      1.0000 0.00000  0.50000  0.50000  Biso   1.000  Cu
  O9       1.0000 0.93410  0.56850  0.39852  Biso   1.000  O
  O10      1.0000 0.06590  0.43150  0.60148  Biso   1.000  O
  O11      1.0000 0.73170  0.65380  0.34561  Biso   1.000  O
  O12      1.0000 0.26830  0.34620  0.65439  Biso   1.000  O
  N5       1.0000 0.78870  0.53200  0.53750  Biso   1.000  N
  N6       1.0000 0.21130  0.46800  0.46250  Biso   1.000  N
  C25      1.0000 0.79430  0.60310  0.40140  Biso   1.000  C
  C26      1.0000 0.20570  0.39690  0.59860  Biso   1.000  C
  C27      1.0000 0.70390  0.58380  0.48020  Biso   1.000  C
  C28      1.0000 0.29610  0.41620  0.51980  Biso   1.000  C
  C29      1.0000 0.55200  0.61440  0.49230  Biso   1.000  C
  C30      1.0000 0.44800  0.38560  0.50770  Biso   1.000  C
  H17      1.0000 0.49770  0.64930  0.45090  Biso   1.000  H
  H18      1.0000 0.50230  0.35070  0.54910  Biso   1.000  H
  C31      1.0000 0.48090  0.59150  0.56890  Biso   1.000  C
  C32      1.0000 0.51910  0.40850  0.43110  Biso   1.000  C
  H19      1.0000 0.37780  0.61110  0.57950  Biso   1.000  H
  H20      1.0000 0.62220  0.38890  0.42050  Biso   1.000  H
  C33      1.0000 0.56540  0.53980  0.62840  Biso   1.000  C
  C34      1.0000 0.43460  0.46020  0.37160  Biso   1.000  C
  H21      1.0000 0.51990  0.52410  0.67970  Biso   1.000  H
  H22      1.0000 0.48010  0.47590  0.32030  Biso   1.000  H
  C35      1.0000 0.71880  0.51110  0.61140  Biso   1.000  C
  C36      1.0000 0.28120  0.48890  0.38860  Biso   1.000  C
  H23      1.0000 0.77540  0.47650  0.65210  Biso   1.000  H
  H24      1.0000 0.22460  0.52350  0.34790  Biso   1.000  H
  Cu4      1.0000 0.00000  0.50000  0.00000  Biso   1.000  Cu
  O13      1.0000 0.89580  0.58734  0.06666  Biso   1.000  O
  O14      1.0000 0.10420  0.41266  0.93334  Biso   1.000  O
  O15      1.0000 0.79260  0.59443  0.19114  Biso   1.000  O
  O16      1.0000 0.20740  0.40557  0.80886  Biso   1.000  O
  N7       1.0000 0.95770  0.41070  0.09758  Biso   1.000  N
  N8       1.0000 0.04230  0.58930  0.90242  Biso   1.000  N
  C37      1.0000 0.85650  0.55370  0.13710  Biso   1.000  C
  C38      1.0000 0.14350  0.44630  0.86290  Biso   1.000  C
  C39      1.0000 0.89130  0.45220  0.15750  Biso   1.000  C
  C40      1.0000 0.10870  0.54780  0.84250  Biso   1.000  C
  C41      1.0000 0.85590  0.40420  0.23260  Biso   1.000  C
  C42      1.0000 0.14410  0.59580  0.76740  Biso   1.000  C
  H25      1.0000 0.80920  0.43410  0.27400  Biso   1.000  H
  H26      1.0000 0.19080  0.56590  0.72600  Biso   1.000  H
  C43      1.0000 0.89170  0.31070  0.24470  Biso   1.000  C
  C44      1.0000 0.10830  0.68930  0.75530  Biso   1.000  C
  H27      1.0000 0.86910  0.27670  0.29450  Biso   1.000  H
  H28      1.0000 0.13090  0.72330  0.70550  Biso   1.000  H
  C45      1.0000 0.96080  0.26890  0.18240  Biso   1.000  C
  C46      1.0000 0.03920  0.73110  0.81760  Biso   1.000  C
  H29      1.0000 0.98480  0.20610  0.18930  Biso   1.000  H
  H30      1.0000 0.01520  0.79390  0.81070  Biso   1.000  H
  C47      1.0000 0.99440  0.32090  0.10930  Biso   1.000  C
  C48      1.0000 0.00560  0.67910  0.89070  Biso   1.000  C
  H31      1.0000 0.04360  0.29270  0.06740  Biso   1.000  H
  H32      1.0000 0.95640  0.70730  0.93260  Biso   1.000  H
  Cu5      1.0000 0.00000  0.00000  0.00000  Biso   1.000  Cu
  O17      1.0000 0.90460  0.92040  0.08920  Biso   1.000  O
  O18      1.0000 0.09540  0.07960  0.91080  Biso   1.000  O
  O19      1.0000 0.92260  0.77760  0.15368  Biso   1.000  O
  O20      1.0000 0.07740  0.22240  0.84632  Biso   1.000  O
  N9       1.0000 0.13860  0.88800  0.98920  Biso   1.000  N
  N10      1.0000 0.86140  0.11200  0.01080  Biso   1.000  N
  C49      1.0000 0.96970  0.84070  0.10060  Biso   1.000  C
  C50      1.0000 0.03030  0.15930  0.89940  Biso   1.000  C
  C51      1.0000 0.10570  0.81870  0.04660  Biso   1.000  C
  C52      1.0000 0.89430  0.18130  0.95340  Biso   1.000  C
  C53      1.0000 0.18990  0.73530  0.05160  Biso   1.000  C
  C54      1.0000 0.81010  0.26470  0.94840  Biso   1.000  C
  H33      1.0000 0.16420  0.68810  0.09180  Biso   1.000  H
  H34      1.0000 0.83580  0.31190  0.90820  Biso   1.000  H
  C55      1.0000 0.31150  0.72150  0.99740  Biso   1.000  C
  C56      1.0000 0.68850  0.27850  0.00260  Biso   1.000  C
  H35      1.0000 0.37150  0.66610  0.00090  Biso   1.000  H
  H36      1.0000 0.62850  0.33390  0.99910  Biso   1.000  H
  C57      1.0000 0.34240  0.79280  0.93730  Biso   1.000  C
  C58      1.0000 0.65760  0.20720  0.06270  Biso   1.000  C
  H37      1.0000 0.42180  0.78500  0.89840  Biso   1.000  H
  H38      1.0000 0.57820  0.21500  0.10160  Biso   1.000  H
  C59      1.0000 0.25536  0.87502  0.93542  Biso   1.000  C
  C60      1.0000 0.74464  0.12498  0.06458  Biso   1.000  C
  H39      1.0000 0.27860  0.92290  0.89550  Biso   1.000  H
  H40      1.0000 0.72140  0.07710  0.10450  Biso   1.000  H
  O21      1.0000 0.65316  0.73220  0.07617  Biso   1.000  O
  O22      1.0000 0.34684  0.26780  0.92383  Biso   1.000  O
  O23      1.0000 0.61071  0.88828  0.15487  Biso   1.000  O
  O24      1.0000 0.38929  0.11172  0.84513  Biso   1.000  O
  O25      1.0000 0.46724  0.65070  0.21701  Biso   1.000  O
  O26      1.0000 0.53276  0.34930  0.78299  Biso   1.000  O
  O27      1.0000 0.79564  0.83534  0.30206  Biso   1.000  O
  O28      1.0000 0.20436  0.16466  0.69794  Biso   1.000  O
  O29      1.0000 0.16558  0.68948  0.26625  Biso   1.000  O
  O30      1.0000 0.83442  0.31052  0.73375  Biso   1.000  O
  Cl1      1.0000 0.89425  0.26469  0.50158  Biso   1.000  Cl
  Cl2      1.0000 0.10575  0.73531  0.49842  Biso   1.000  Cl
  O31      1.0000 0.79051  0.28973  0.56584  Biso   1.000  O
  O32      1.0000 0.20949  0.71027  0.43416  Biso   1.000  O
  O33      1.0000 0.93541  0.34572  0.45047  Biso   1.000  O
  O34      1.0000 0.06459  0.65428  0.54953  Biso   1.000  O
  O35      1.0000 0.02817  0.21483  0.53425  Biso   1.000  O
  O36      1.0000 0.97183  0.78517  0.46575  Biso   1.000  O
  O37      1.0000 0.81719  0.21179  0.45436  Biso   1.000  O
  O38      1.0000 0.18281  0.78821  0.54564  Biso   1.000  O
  Cl3      1.0000 0.70292  0.92452  0.90600  Biso   1.000  Cl
  Cl4      1.0000 0.29708  0.07548  0.09400  Biso   1.000  Cl
  O39      1.0000 0.60250  0.96353  0.84433  Biso   1.000  O
  O40      1.0000 0.39750  0.03647  0.15567  Biso   1.000  O
  O41      1.0000 0.84709  0.96158  0.89447  Biso   1.000  O
  O42      1.0000 0.15291  0.03842  0.10553  Biso   1.000  O
  O43      1.0000 0.63255  0.93440  0.98204  Biso   1.000  O
  O44      1.0000 0.36745  0.06560  0.01796  Biso   1.000  O
  O45      1.0000 0.72583  0.82971  0.90143  Biso   1.000  O
  O46      1.0000 0.27417  0.17029  0.09857  Biso   1.000  O
  Cl5      1.0000 0.34513  0.46282  0.11911  Biso   1.000  Cl
  Cl6      1.0000 0.65487  0.53718  0.88089  Biso   1.000  Cl
  O47      1.0000 0.37934  0.37530  0.09742  Biso   1.000  O
  O48      1.0000 0.62066  0.62470  0.90258  Biso   1.000  O
  O49      1.0000 0.25339  0.51763  0.05902  Biso   1.000  O
  O50      1.0000 0.74661  0.48237  0.94098  Biso   1.000  O
  O51      1.0000 0.48129  0.50675  0.12457  Biso   1.000  O
  O52      1.0000 0.51871  0.49325  0.87543  Biso   1.000  O
  O53      1.0000 0.25501  0.45575  0.19432  Biso   1.000  O
  O54      1.0000 0.74499  0.54425  0.80568  Biso   1.000  O
