data_image0
_cell_length_a       8.714
_cell_length_b       14.8939
_cell_length_c       16.7935
_cell_angle_alpha    81.66
_cell_angle_beta     86.355
_cell_angle_gamma    84.568

_symmetry_space_group_name_H-M    "P 1"
_symmetry_int_tables_number       1

loop_
  _symmetry_equiv_pos_as_xyz
  'x, y, z'

loop_
  _atom_site_label
  _atom_site_occupancy
  _atom_site_fract_x
  _atom_site_fract_y
  _atom_site_fract_z
  _atom_site_thermal_displace_type
  _atom_site_B_iso_or_equiv
  _atom_site_type_symbol
  Eu1      1.0000 0.67997  0.73887  0.22041  Biso   1.000  Eu
  Eu2      1.0000 0.32003  0.26113  0.77959  Biso   1.000  Eu
  Cu1      1.0000 0.41833  0.90704  0.49229  Biso   1.000  Cu
  Cu2      1.0000 0.58167  0.09296  0.50771  Biso   1.000  Cu
  O1       1.0000 0.50180  0.83352  0.41206  Biso   1.000  O
  O2       1.0000 0.49820  0.16648  0.58794  Biso   1.000  O
  O3       1.0000 0.45920  0.80315  0.28948  Biso   1.000  O
  O4       1.0000 0.54080  0.19685  0.71052  Biso   1.000  O
  N1       1.0000 0.26770  0.95637  0.41186  Biso   1.000  N
  N2       1.0000 0.73230  0.04363  0.58814  Biso   1.000  N
  C1       1.0000 0.42620  0.84320  0.34910  Biso   1.000  C
  C2       1.0000 0.57380  0.15680  0.65090  Biso   1.000  C
  C3       1.0000 0.28550  0.91060  0.34630  Biso   1.000  C
  C4       1.0000 0.71450  0.08940  0.65370  Biso   1.000  C
  C5       1.0000 0.18310  0.92750  0.28720  Biso   1.000  C
  C6       1.0000 0.81690  0.07250  0.71280  Biso   1.000  C
  H1       1.0000 0.19660  0.89630  0.24280  Biso   1.000  H
  H2       1.0000 0.80340  0.10370  0.75720  Biso   1.000  H
  C7       1.0000 0.05990  0.99080  0.29330  Biso   1.000  C
  C8       1.0000 0.94010  0.00920  0.70670  Biso   1.000  C
  H3       1.0000 0.98800  0.00230  0.25360  Biso   1.000  H
  H4       1.0000 0.01200  0.99770  0.74640  Biso   1.000  H
  C9       1.0000 0.04410  0.03650  0.35800  Biso   1.000  C
  C10      1.0000 0.95590  0.96350  0.64200  Biso   1.000  C
  H5       1.0000 0.96170  0.08030  0.36250  Biso   1.000  H
  H6       1.0000 0.03830  0.91970  0.63750  Biso   1.000  H
  C11      1.0000 0.14860  0.01840  0.41650  Biso   1.000  C
  C12      1.0000 0.85140  0.98160  0.58350  Biso   1.000  C
  H7       1.0000 0.13630  0.05020  0.46060  Biso   1.000  H
  H8       1.0000 0.86370  0.94980  0.53940  Biso   1.000  H
  O5       1.0000 0.34090  0.98474  0.57076  Biso   1.000  O
  O6       1.0000 0.65910  0.01526  0.42924  Biso   1.000  O
  O7       1.0000 0.32310  0.98472  0.70301  Biso   1.000  O
  O8       1.0000 0.67690  0.01528  0.29699  Biso   1.000  O
  N3       1.0000 0.54790  0.84784  0.57947  Biso   1.000  N
  N4       1.0000 0.45210  0.15216  0.42053  Biso   1.000  N
  C13      1.0000 0.37660  0.95310  0.64260  Biso   1.000  C
  C14      1.0000 0.62340  0.04690  0.35740  Biso   1.000  C
  C15      1.0000 0.49590  0.87320  0.65050  Biso   1.000  C
  C16      1.0000 0.50410  0.12680  0.34950  Biso   1.000  C
  C17      1.0000 0.55460  0.83230  0.72090  Biso   1.000  C
  C18      1.0000 0.44540  0.16770  0.27910  Biso   1.000  C
  H9       1.0000 0.51590  0.85020  0.76960  Biso   1.000  H
  H10      1.0000 0.48410  0.14980  0.23040  Biso   1.000  H
  C19      1.0000 0.67220  0.76420  0.71920  Biso   1.000  C
  C20      1.0000 0.32780  0.23580  0.28080  Biso   1.000  C
  H11      1.0000 0.71170  0.73440  0.76700  Biso   1.000  H
  H12      1.0000 0.28830  0.26560  0.23300  Biso   1.000  H
  C21      1.0000 0.73120  0.74010  0.64680  Biso   1.000  C
  C22      1.0000 0.26880  0.25990  0.35320  Biso   1.000  C
  H13      1.0000 0.81370  0.69590  0.64460  Biso   1.000  H
  H14      1.0000 0.18630  0.30410  0.35540  Biso   1.000  H
  C23      1.0000 0.66430  0.78340  0.57710  Biso   1.000  C
  C24      1.0000 0.33570  0.21660  0.42290  Biso   1.000  C
  H15      1.0000 0.70160  0.76710  0.52760  Biso   1.000  H
  H16      1.0000 0.29840  0.23290  0.47240  Biso   1.000  H
  Cu3      1.0000 0.00000  0.50000  0.50000  Biso   1.000  Cu
  O9       1.0000 0.93260  0.56879  0.39885  Biso   1.000  O
  O10      1.0000 0.06740  0.43121  0.60115  Biso   1.000  O
  O11      1.0000 0.73170  0.65359  0.34552  Biso   1.000  O
  O12      1.0000 0.26830  0.34641  0.65448  Biso   1.000  O
  N5       1.0000 0.78660  0.53093  0.53875  Biso   1.000  N
  N6       1.0000 0.21340  0.46907  0.46125  Biso   1.000  N
  C25      1.0000 0.79560  0.60320  0.40090  Biso   1.000  C
  C26      1.0000 0.20440  0.39680  0.59910  Biso   1.000  C
  C27      1.0000 0.70580  0.58360  0.47970  Biso   1.000  C
  C28      1.0000 0.29420  0.41640  0.52030  Biso   1.000  C
  C29      1.0000 0.55300  0.61380  0.49390  Biso   1.000  C
  C30      1.0000 0.44700  0.38620  0.50610  Biso   1.000  C
  H17      1.0000 0.49820  0.64910  0.45300  Biso   1.000  H
  H18      1.0000 0.50180  0.35090  0.54700  Biso   1.000  H
  C31      1.0000 0.48190  0.59120  0.56970  Biso   1.000  C
  C32      1.0000 0.51810  0.40880  0.43030  Biso   1.000  C
  H19      1.0000 0.37950  0.61150  0.58060  Biso   1.000  H
  H20      1.0000 0.62050  0.38850  0.41940  Biso   1.000  H
  C33      1.0000 0.56640  0.53840  0.62790  Biso   1.000  C
  C34      1.0000 0.43360  0.46160  0.37210  Biso   1.000  C
  H21      1.0000 0.52050  0.52100  0.67860  Biso   1.000  H
  H22      1.0000 0.47950  0.47900  0.32140  Biso   1.000  H
  C35      1.0000 0.71820  0.51120  0.61170  Biso   1.000  C
  C36      1.0000 0.28180  0.48880  0.38830  Biso   1.000  C
  H23      1.0000 0.77520  0.47800  0.65280  Biso   1.000  H
  H24      1.0000 0.22480  0.52200  0.34720  Biso   1.000  H
  Cu4      1.0000 0.00000  0.50000  0.00000  Biso   1.000  Cu
  O13      1.0000 0.89480  0.58768  0.06634  Biso   1.000  O
  O14      1.0000 0.10520  0.41232  0.93366  Biso   1.000  O
  O15      1.0000 0.79190  0.59602  0.19055  Biso   1.000  O
  O16      1.0000 0.20810  0.40398  0.80945  Biso   1.000  O
  N7       1.0000 0.95850  0.41099  0.09719  Biso   1.000  N
  N8       1.0000 0.04150  0.58901  0.90281  Biso   1.000  N
  C37      1.0000 0.85500  0.55330  0.13770  Biso   1.000  C
  C38      1.0000 0.14500  0.44670  0.86230  Biso   1.000  C
  C39      1.0000 0.88860  0.45120  0.15780  Biso   1.000  C
  C40      1.0000 0.11140  0.54880  0.84220  Biso   1.000  C
  C41      1.0000 0.85550  0.40360  0.23160  Biso   1.000  C
  C42      1.0000 0.14450  0.59640  0.76840  Biso   1.000  C
  H25      1.0000 0.80890  0.43350  0.27290  Biso   1.000  H
  H26      1.0000 0.19110  0.56650  0.72710  Biso   1.000  H
  C43      1.0000 0.89180  0.31130  0.24410  Biso   1.000  C
  C44      1.0000 0.10820  0.68870  0.75590  Biso   1.000  C
  H27      1.0000 0.86890  0.27760  0.29380  Biso   1.000  H
  H28      1.0000 0.13110  0.72240  0.70620  Biso   1.000  H
  C45      1.0000 0.96270  0.26900  0.18200  Biso   1.000  C
  C46      1.0000 0.03730  0.73100  0.81800  Biso   1.000  C
  H29      1.0000 0.98770  0.20640  0.18900  Biso   1.000  H
  H30      1.0000 0.01230  0.79360  0.81100  Biso   1.000  H
  C47      1.0000 0.99620  0.32160  0.10890  Biso   1.000  C
  C48      1.0000 0.00380  0.67840  0.89110  Biso   1.000  C
  H31      1.0000 0.04610  0.29370  0.06720  Biso   1.000  H
  H32      1.0000 0.95390  0.70630  0.93280  Biso   1.000  H
  Cu5      1.0000 0.00000  0.00000  0.00000  Biso   1.000  Cu
  O17      1.0000 0.90510  0.92064  0.08916  Biso   1.000  O
  O18      1.0000 0.09490  0.07936  0.91084  Biso   1.000  O
  O19      1.0000 0.92330  0.77831  0.15407  Biso   1.000  O
  O20      1.0000 0.07670  0.22169  0.84593  Biso   1.000  O
  N9       1.0000 0.13750  0.88886  0.98920  Biso   1.000  N
  N10      1.0000 0.86250  0.11114  0.01080  Biso   1.000  N
  C49      1.0000 0.96830  0.84040  0.10220  Biso   1.000  C
  C50      1.0000 0.03170  0.15960  0.89780  Biso   1.000  C
  C51      1.0000 0.10590  0.81820  0.04710  Biso   1.000  C
  C52      1.0000 0.89410  0.18180  0.95290  Biso   1.000  C
  C53      1.0000 0.18950  0.73490  0.05280  Biso   1.000  C
  C54      1.0000 0.81050  0.26510  0.94720  Biso   1.000  C
  H33      1.0000 0.16520  0.68800  0.09310  Biso   1.000  H
  H34      1.0000 0.83480  0.31200  0.90690  Biso   1.000  H
  C55      1.0000 0.31120  0.72230  0.99690  Biso   1.000  C
  C56      1.0000 0.68880  0.27770  0.00310  Biso   1.000  C
  H35      1.0000 0.37080  0.66690  0.99940  Biso   1.000  H
  H36      1.0000 0.62920  0.33310  0.00060  Biso   1.000  H
  C57      1.0000 0.34160  0.79250  0.93850  Biso   1.000  C
  C58      1.0000 0.65840  0.20750  0.06150  Biso   1.000  C
  H37      1.0000 0.42170  0.78500  0.90010  Biso   1.000  H
  H38      1.0000 0.57830  0.21500  0.09990  Biso   1.000  H
  C59      1.0000 0.25347  0.87517  0.93611  Biso   1.000  C
  C60      1.0000 0.74653  0.12483  0.06389  Biso   1.000  C
  H39      1.0000 0.27640  0.92260  0.89600  Biso   1.000  H
  H40      1.0000 0.72360  0.07740  0.10400  Biso   1.000  H
  O21      1.0000 0.65222  0.73195  0.07493  Biso   1.000  O
  O22      1.0000 0.34778  0.26805  0.92507  Biso   1.000  O
  O23      1.0000 0.60931  0.88866  0.15395  Biso   1.000  O
  O24      1.0000 0.39069  0.11134  0.84605  Biso   1.000  O
  O25      1.0000 0.46471  0.65008  0.21712  Biso   1.000  O
  O26      1.0000 0.53529  0.34992  0.78288  Biso   1.000  O
  O27      1.0000 0.79441  0.83671  0.30302  Biso   1.000  O
  O28      1.0000 0.20559  0.16329  0.69698  Biso   1.000  O
  O29      1.0000 0.16345  0.68894  0.26674  Biso   1.000  O
  O30      1.0000 0.83655  0.31106  0.73326  Biso   1.000  O
  Cl1      1.0000 0.89408  0.26467  0.50138  Biso   1.000  Cl
  Cl2      1.0000 0.10592  0.73533  0.49862  Biso   1.000  Cl
  O31      1.0000 0.78917  0.28929  0.56484  Biso   1.000  O
  O32      1.0000 0.21083  0.71071  0.43516  Biso   1.000  O
  O33      1.0000 0.93524  0.34468  0.45066  Biso   1.000  O
  O34      1.0000 0.06476  0.65532  0.54934  Biso   1.000  O
  O35      1.0000 0.02772  0.21575  0.53332  Biso   1.000  O
  O36      1.0000 0.97228  0.78425  0.46668  Biso   1.000  O
  O37      1.0000 0.81775  0.21058  0.45339  Biso   1.000  O
  O38      1.0000 0.18225  0.78942  0.54661  Biso   1.000  O
  Cl3      1.0000 0.70397  0.92459  0.90551  Biso   1.000  Cl
  Cl4      1.0000 0.29603  0.07541  0.09449  Biso   1.000  Cl
  O39      1.0000 0.60369  0.96326  0.84365  Biso   1.000  O
  O40      1.0000 0.39631  0.03674  0.15635  Biso   1.000  O
  O41      1.0000 0.84674  0.96085  0.89398  Biso   1.000  O
  O42      1.0000 0.15326  0.03915  0.10602  Biso   1.000  O
  O43      1.0000 0.63383  0.93551  0.98160  Biso   1.000  O
  O44      1.0000 0.36617  0.06449  0.01840  Biso   1.000  O
  O45      1.0000 0.72670  0.82938  0.90310  Biso   1.000  O
  O46      1.0000 0.27330  0.17062  0.09690  Biso   1.000  O
  Cl5      1.0000 0.34468  0.46288  0.11913  Biso   1.000  Cl
  Cl6      1.0000 0.65532  0.53712  0.88087  Biso   1.000  Cl
  O47      1.0000 0.37808  0.37560  0.09756  Biso   1.000  O
  O48      1.0000 0.62192  0.62440  0.90244  Biso   1.000  O
  O49      1.0000 0.25518  0.51673  0.05830  Biso   1.000  O
  O50      1.0000 0.74482  0.48327  0.94170  Biso   1.000  O
  O51      1.0000 0.48320  0.50542  0.12481  Biso   1.000  O
  O52      1.0000 0.51680  0.49458  0.87519  Biso   1.000  O
  O53      1.0000 0.25592  0.45603  0.19365  Biso   1.000  O
  O54      1.0000 0.74408  0.54397  0.80635  Biso   1.000  O
