data_image0
_cell_length_a       8.7205
_cell_length_b       14.9373
_cell_length_c       16.8181
_cell_angle_alpha    81.6118
_cell_angle_beta     86.4485
_cell_angle_gamma    84.6135

_symmetry_space_group_name_H-M    "P 1"
_symmetry_int_tables_number       1

loop_
  _symmetry_equiv_pos_as_xyz
  'x, y, z'

loop_
  _atom_site_label
  _atom_site_occupancy
  _atom_site_fract_x
  _atom_site_fract_y
  _atom_site_fract_z
  _atom_site_thermal_displace_type
  _atom_site_B_iso_or_equiv
  _atom_site_type_symbol
  Sm1      1.0000 0.67953  0.73876  0.22032  Biso   1.000  Sm
  Sm2      1.0000 0.32047  0.26124  0.77968  Biso   1.000  Sm
  Cu1      1.0000 0.41800  0.90711  0.49211  Biso   1.000  Cu
  Cu2      1.0000 0.58200  0.09289  0.50790  Biso   1.000  Cu
  Cu3      1.0000 0.00000  0.50000  0.50000  Biso   1.000  Cu
  Cu4      1.0000 0.00000  0.50000  0.00000  Biso   1.000  Cu
  Cu5      1.0000 0.00000  0.00000  0.00000  Biso   1.000  Cu
  O1       1.0000 0.50110  0.83340  0.41140  Biso   1.000  O
  O2       1.0000 0.49890  0.16660  0.58860  Biso   1.000  O
  O3       1.0000 0.45750  0.80444  0.28911  Biso   1.000  O
  O4       1.0000 0.54250  0.19556  0.71089  Biso   1.000  O
  N1       1.0000 0.26840  0.95612  0.41180  Biso   1.000  N
  N2       1.0000 0.73160  0.04388  0.58820  Biso   1.000  N
  C1       1.0000 0.42460  0.84382  0.34891  Biso   1.000  C
  C2       1.0000 0.57540  0.15618  0.65109  Biso   1.000  C
  C3       1.0000 0.28550  0.91081  0.34725  Biso   1.000  C
  C4       1.0000 0.71450  0.08919  0.65275  Biso   1.000  C
  C5       1.0000 0.18310  0.92766  0.28669  Biso   1.000  C
  C6       1.0000 0.81690  0.07234  0.71331  Biso   1.000  C
  H1       1.0000 0.19710  0.89650  0.24240  Biso   1.000  H
  H2       1.0000 0.80290  0.10350  0.75760  Biso   1.000  H
  C7       1.0000 0.05830  0.99200  0.29265  Biso   1.000  C
  C8       1.0000 0.94170  0.00800  0.70735  Biso   1.000  C
  H3       1.0000 0.98680  0.00400  0.25280  Biso   1.000  H
  H4       1.0000 0.01320  0.99600  0.74720  Biso   1.000  H
  C9       1.0000 0.04260  0.03800  0.35902  Biso   1.000  C
  C10      1.0000 0.95740  0.96200  0.64098  Biso   1.000  C
  H5       1.0000 0.96090  0.08190  0.36390  Biso   1.000  H
  H6       1.0000 0.03910  0.91810  0.63610  Biso   1.000  H
  C11      1.0000 0.14790  0.01820  0.41699  Biso   1.000  C
  C12      1.0000 0.85210  0.98180  0.58301  Biso   1.000  C
  H7       1.0000 0.13590  0.04870  0.46170  Biso   1.000  H
  H8       1.0000 0.86410  0.95130  0.53830  Biso   1.000  H
  O5       1.0000 0.33950  0.98532  0.57051  Biso   1.000  O
  O6       1.0000 0.66050  0.01468  0.42949  Biso   1.000  O
  O7       1.0000 0.32480  0.98474  0.70350  Biso   1.000  O
  O8       1.0000 0.67520  0.01526  0.29650  Biso   1.000  O
  N3       1.0000 0.54640  0.84769  0.57897  Biso   1.000  N
  N4       1.0000 0.45360  0.15231  0.42103  Biso   1.000  N
  C13      1.0000 0.37580  0.95322  0.64264  Biso   1.000  C
  C14      1.0000 0.62420  0.04678  0.35736  Biso   1.000  C
  C15      1.0000 0.49480  0.87441  0.64988  Biso   1.000  C
  C16      1.0000 0.50520  0.12559  0.35012  Biso   1.000  C
  C17      1.0000 0.55390  0.83240  0.72111  Biso   1.000  C
  C18      1.0000 0.44610  0.16760  0.27889  Biso   1.000  C
  H9       1.0000 0.51460  0.84990  0.76970  Biso   1.000  H
  H10      1.0000 0.48540  0.15010  0.23030  Biso   1.000  H
  C19      1.0000 0.67250  0.76380  0.72020  Biso   1.000  C
  C20      1.0000 0.32750  0.23620  0.27980  Biso   1.000  C
  H11      1.0000 0.71270  0.73380  0.76780  Biso   1.000  H
  H12      1.0000 0.28730  0.26620  0.23220  Biso   1.000  H
  C21      1.0000 0.72870  0.74140  0.64670  Biso   1.000  C
  C22      1.0000 0.27130  0.25860  0.35330  Biso   1.000  C
  H13      1.0000 0.81100  0.69740  0.64390  Biso   1.000  H
  H14      1.0000 0.18900  0.30260  0.35610  Biso   1.000  H
  C23      1.0000 0.66340  0.78411  0.57728  Biso   1.000  C
  C24      1.0000 0.33660  0.21589  0.42272  Biso   1.000  C
  H15      1.0000 0.70200  0.76810  0.52800  Biso   1.000  H
  H16      1.0000 0.29800  0.23190  0.47200  Biso   1.000  H
  O9       1.0000 0.93140  0.56820  0.39889  Biso   1.000  O
  O10      1.0000 0.06860  0.43180  0.60111  Biso   1.000  O
  O11      1.0000 0.73120  0.65356  0.34573  Biso   1.000  O
  O12      1.0000 0.26880  0.34644  0.65427  Biso   1.000  O
  N5       1.0000 0.78700  0.53167  0.53846  Biso   1.000  N
  N6       1.0000 0.21300  0.46833  0.46154  Biso   1.000  N
  C25      1.0000 0.79420  0.60327  0.40233  Biso   1.000  C
  C26      1.0000 0.20580  0.39673  0.59767  Biso   1.000  C
  C27      1.0000 0.70520  0.58307  0.48014  Biso   1.000  C
  C28      1.0000 0.29480  0.41693  0.51986  Biso   1.000  C
  C29      1.0000 0.55340  0.61354  0.49432  Biso   1.000  C
  C30      1.0000 0.44660  0.38646  0.50568  Biso   1.000  C
  H17      1.0000 0.49870  0.64910  0.45360  Biso   1.000  H
  H18      1.0000 0.50130  0.35090  0.54640  Biso   1.000  H
  C31      1.0000 0.48250  0.59080  0.57010  Biso   1.000  C
  C32      1.0000 0.51750  0.40920  0.42990  Biso   1.000  C
  H19      1.0000 0.37960  0.60990  0.58050  Biso   1.000  H
  H20      1.0000 0.62040  0.39010  0.41950  Biso   1.000  H
  C33      1.0000 0.56840  0.53900  0.62950  Biso   1.000  C
  C34      1.0000 0.43160  0.46100  0.37050  Biso   1.000  C
  H21      1.0000 0.52390  0.52310  0.68070  Biso   1.000  H
  H22      1.0000 0.47610  0.47690  0.31930  Biso   1.000  H
  C35      1.0000 0.71910  0.51150  0.61227  Biso   1.000  C
  C36      1.0000 0.28090  0.48850  0.38773  Biso   1.000  C
  H23      1.0000 0.77670  0.47770  0.65280  Biso   1.000  H
  H24      1.0000 0.22330  0.52230  0.34720  Biso   1.000  H
  O13      1.0000 0.89470  0.58712  0.06634  Biso   1.000  O
  O14      1.0000 0.10530  0.41288  0.93366  Biso   1.000  O
  O15      1.0000 0.79300  0.59456  0.19044  Biso   1.000  O
  O16      1.0000 0.20700  0.40544  0.80956  Biso   1.000  O
  N7       1.0000 0.95870  0.41071  0.09656  Biso   1.000  N
  N8       1.0000 0.04130  0.58929  0.90344  Biso   1.000  N
  C37      1.0000 0.85560  0.55227  0.13693  Biso   1.000  C
  C38      1.0000 0.14440  0.44773  0.86307  Biso   1.000  C
  C39      1.0000 0.88950  0.45119  0.15768  Biso   1.000  C
  C40      1.0000 0.11050  0.54881  0.84232  Biso   1.000  C
  C41      1.0000 0.85570  0.40420  0.23165  Biso   1.000  C
  C42      1.0000 0.14430  0.59580  0.76835  Biso   1.000  C
  H25      1.0000 0.80940  0.43390  0.27300  Biso   1.000  H
  H26      1.0000 0.19060  0.56610  0.72700  Biso   1.000  H
  C43      1.0000 0.89210  0.31180  0.24320  Biso   1.000  C
  C44      1.0000 0.10790  0.68820  0.75680  Biso   1.000  C
  H27      1.0000 0.86820  0.27790  0.29260  Biso   1.000  H
  H28      1.0000 0.13180  0.72210  0.70740  Biso   1.000  H
  C45      1.0000 0.96360  0.26960  0.18190  Biso   1.000  C
  C46      1.0000 0.03640  0.73040  0.81810  Biso   1.000  C
  H29      1.0000 0.98950  0.20720  0.18930  Biso   1.000  H
  H30      1.0000 0.01050  0.79280  0.81070  Biso   1.000  H
  C47      1.0000 0.99650  0.32176  0.10878  Biso   1.000  C
  C48      1.0000 0.00350  0.67824  0.89122  Biso   1.000  C
  H31      1.0000 0.04640  0.29380  0.06730  Biso   1.000  H
  H32      1.0000 0.95360  0.70620  0.93270  Biso   1.000  H
  O17      1.0000 0.90520  0.92025  0.08942  Biso   1.000  O
  O18      1.0000 0.09480  0.07975  0.91058  Biso   1.000  O
  O19      1.0000 0.92440  0.77920  0.15385  Biso   1.000  O
  O20      1.0000 0.07560  0.22080  0.84615  Biso   1.000  O
  N9       1.0000 0.13850  0.88919  0.98898  Biso   1.000  N
  N10      1.0000 0.86150  0.11081  0.01102  Biso   1.000  N
  C49      1.0000 0.96950  0.84041  0.10161  Biso   1.000  C
  C50      1.0000 0.03050  0.15959  0.89839  Biso   1.000  C
  C51      1.0000 0.10610  0.81919  0.04675  Biso   1.000  C
  C52      1.0000 0.89390  0.18081  0.95325  Biso   1.000  C
  C53      1.0000 0.18970  0.73592  0.05238  Biso   1.000  C
  C54      1.0000 0.81030  0.26408  0.94762  Biso   1.000  C
  H33      1.0000 0.16530  0.68930  0.09280  Biso   1.000  H
  H34      1.0000 0.83470  0.31070  0.90720  Biso   1.000  H
  C55      1.0000 0.31030  0.72270  0.99716  Biso   1.000  C
  C56      1.0000 0.68970  0.27730  0.00284  Biso   1.000  C
  H35      1.0000 0.36940  0.66720  0.00020  Biso   1.000  H
  H36      1.0000 0.63060  0.33280  0.99980  Biso   1.000  H
  C57      1.0000 0.34150  0.79250  0.93781  Biso   1.000  C
  C58      1.0000 0.65850  0.20750  0.06219  Biso   1.000  C
  H37      1.0000 0.42090  0.78440  0.89930  Biso   1.000  H
  H38      1.0000 0.57910  0.21560  0.10070  Biso   1.000  H
  C59      1.0000 0.25450  0.87500  0.93539  Biso   1.000  C
  C60      1.0000 0.74550  0.12500  0.06461  Biso   1.000  C
  H39      1.0000 0.27750  0.92220  0.89520  Biso   1.000  H
  H40      1.0000 0.72250  0.07780  0.10480  Biso   1.000  H
  O21      1.0000 0.65410  0.73165  0.07482  Biso   1.000  O
  O22      1.0000 0.34590  0.26835  0.92518  Biso   1.000  O
  O23      1.0000 0.60960  0.88931  0.15387  Biso   1.000  O
  O24      1.0000 0.39040  0.11069  0.84613  Biso   1.000  O
  O25      1.0000 0.46400  0.65027  0.21676  Biso   1.000  O
  O26      1.0000 0.53600  0.34973  0.78324  Biso   1.000  O
  O27      1.0000 0.79560  0.83650  0.30353  Biso   1.000  O
  O28      1.0000 0.20440  0.16350  0.69647  Biso   1.000  O
  O29      1.0000 0.16350  0.68883  0.26628  Biso   1.000  O
  O30      1.0000 0.83650  0.31117  0.73372  Biso   1.000  O
  Cl1      1.0000 0.89377  0.26465  0.50147  Biso   1.000  Cl
  Cl2      1.0000 0.10623  0.73535  0.49853  Biso   1.000  Cl
  O31      1.0000 0.79070  0.28937  0.56568  Biso   1.000  O
  O32      1.0000 0.20930  0.71063  0.43432  Biso   1.000  O
  O33      1.0000 0.93460  0.34580  0.45049  Biso   1.000  O
  O34      1.0000 0.06540  0.65420  0.54951  Biso   1.000  O
  O35      1.0000 0.02720  0.21440  0.53300  Biso   1.000  O
  O36      1.0000 0.97280  0.78560  0.46700  Biso   1.000  O
  O37      1.0000 0.81700  0.21178  0.45436  Biso   1.000  O
  O38      1.0000 0.18300  0.78822  0.54564  Biso   1.000  O
  Cl3      1.0000 0.70375  0.92423  0.90547  Biso   1.000  Cl
  Cl4      1.0000 0.29625  0.07577  0.09453  Biso   1.000  Cl
  O39      1.0000 0.60370  0.96297  0.84383  Biso   1.000  O
  O40      1.0000 0.39630  0.03703  0.15617  Biso   1.000  O
  O41      1.0000 0.84650  0.96140  0.89411  Biso   1.000  O
  O42      1.0000 0.15350  0.03860  0.10589  Biso   1.000  O
  O43      1.0000 0.63300  0.93580  0.98098  Biso   1.000  O
  O44      1.0000 0.36700  0.06420  0.01902  Biso   1.000  O
  O45      1.0000 0.72440  0.82943  0.90250  Biso   1.000  O
  O46      1.0000 0.27560  0.17057  0.09750  Biso   1.000  O
  Cl5      1.0000 0.34503  0.46241  0.11875  Biso   1.000  Cl
  Cl6      1.0000 0.65497  0.53759  0.88125  Biso   1.000  Cl
  O47      1.0000 0.37950  0.37545  0.09680  Biso   1.000  O
  O48      1.0000 0.62050  0.62455  0.90320  Biso   1.000  O
  O49      1.0000 0.25420  0.51720  0.05884  Biso   1.000  O
  O50      1.0000 0.74580  0.48280  0.94116  Biso   1.000  O
  O51      1.0000 0.48230  0.50580  0.12450  Biso   1.000  O
  O52      1.0000 0.51770  0.49420  0.87550  Biso   1.000  O
  O53      1.0000 0.25560  0.45580  0.19271  Biso   1.000  O
  O54      1.0000 0.74440  0.54420  0.80729  Biso   1.000  O
