data_image0
_cell_length_a       8.7179
_cell_length_b       14.9062
_cell_length_c       16.8218
_cell_angle_alpha    81.548
_cell_angle_beta     86.229
_cell_angle_gamma    84.455

_symmetry_space_group_name_H-M    "P 1"
_symmetry_int_tables_number       1

loop_
  _symmetry_equiv_pos_as_xyz
  'x, y, z'

loop_
  _atom_site_label
  _atom_site_occupancy
  _atom_site_fract_x
  _atom_site_fract_y
  _atom_site_fract_z
  _atom_site_thermal_displace_type
  _atom_site_B_iso_or_equiv
  _atom_site_type_symbol
  Dy1      1.0000 0.68170  0.73856  0.22094  Biso   1.000  Dy
  Dy2      1.0000 0.31830  0.26144  0.77906  Biso   1.000  Dy
  Cu1      1.0000 0.41946  0.90674  0.49221  Biso   1.000  Cu
  Cu2      1.0000 0.58054  0.09326  0.50779  Biso   1.000  Cu
  O1       1.0000 0.50420  0.83262  0.41188  Biso   1.000  O
  O2       1.0000 0.49580  0.16738  0.58812  Biso   1.000  O
  O3       1.0000 0.46320  0.80189  0.28982  Biso   1.000  O
  O4       1.0000 0.53680  0.19811  0.71018  Biso   1.000  O
  N1       1.0000 0.26960  0.95608  0.41128  Biso   1.000  N
  N2       1.0000 0.73040  0.04392  0.58872  Biso   1.000  N
  C1       1.0000 0.42860  0.84203  0.34872  Biso   1.000  C
  C2       1.0000 0.57140  0.15797  0.65128  Biso   1.000  C
  C3       1.0000 0.28780  0.91000  0.34698  Biso   1.000  C
  C4       1.0000 0.71220  0.09000  0.65302  Biso   1.000  C
  C5       1.0000 0.18680  0.92630  0.28647  Biso   1.000  C
  C6       1.0000 0.81320  0.07370  0.71353  Biso   1.000  C
  H1       1.0000 0.20230  0.89500  0.24230  Biso   1.000  H
  H2       1.0000 0.79770  0.10500  0.75770  Biso   1.000  H
  C7       1.0000 0.06160  0.98970  0.29190  Biso   1.000  C
  C8       1.0000 0.93840  0.01030  0.70810  Biso   1.000  C
  H3       1.0000 0.99020  0.00080  0.25200  Biso   1.000  H
  H4       1.0000 0.00980  0.99920  0.74800  Biso   1.000  H
  C9       1.0000 0.04420  0.03630  0.35740  Biso   1.000  C
  C10      1.0000 0.95580  0.96370  0.64260  Biso   1.000  C
  H5       1.0000 0.96150  0.07990  0.36160  Biso   1.000  H
  H6       1.0000 0.03850  0.92010  0.63840  Biso   1.000  H
  C11      1.0000 0.14970  0.01810  0.41670  Biso   1.000  C
  C12      1.0000 0.85030  0.98190  0.58330  Biso   1.000  C
  H7       1.0000 0.13700  0.04940  0.46090  Biso   1.000  H
  H8       1.0000 0.86300  0.95060  0.53910  Biso   1.000  H
  O5       1.0000 0.33940  0.98546  0.57067  Biso   1.000  O
  O6       1.0000 0.66060  0.01454  0.42933  Biso   1.000  O
  O7       1.0000 0.32150  0.98572  0.70398  Biso   1.000  O
  O8       1.0000 0.67850  0.01428  0.29602  Biso   1.000  O
  N3       1.0000 0.54860  0.84730  0.57977  Biso   1.000  N
  N4       1.0000 0.45140  0.15270  0.42023  Biso   1.000  N
  C13      1.0000 0.37410  0.95440  0.64279  Biso   1.000  C
  C14      1.0000 0.62590  0.04560  0.35721  Biso   1.000  C
  C15      1.0000 0.49380  0.87400  0.65064  Biso   1.000  C
  C16      1.0000 0.50620  0.12600  0.34936  Biso   1.000  C
  C17      1.0000 0.55410  0.83360  0.72201  Biso   1.000  C
  C18      1.0000 0.44590  0.16640  0.27799  Biso   1.000  C
  H9       1.0000 0.51580  0.85250  0.77030  Biso   1.000  H
  H10      1.0000 0.48420  0.14750  0.22970  Biso   1.000  H
  C19      1.0000 0.67260  0.76440  0.72130  Biso   1.000  C
  C20      1.0000 0.32740  0.23560  0.27870  Biso   1.000  C
  H11      1.0000 0.71210  0.73470  0.76910  Biso   1.000  H
  H12      1.0000 0.28790  0.26530  0.23090  Biso   1.000  H
  C21      1.0000 0.73020  0.74080  0.64870  Biso   1.000  C
  C22      1.0000 0.26980  0.25920  0.35130  Biso   1.000  C
  H13      1.0000 0.81300  0.69680  0.64640  Biso   1.000  H
  H14      1.0000 0.18700  0.30320  0.35360  Biso   1.000  H
  C23      1.0000 0.66390  0.78320  0.57880  Biso   1.000  C
  C24      1.0000 0.33610  0.21680  0.42120  Biso   1.000  C
  H15      1.0000 0.70160  0.76590  0.52980  Biso   1.000  H
  H16      1.0000 0.29840  0.23410  0.47020  Biso   1.000  H
  Cu3      1.0000 0.00000  0.50000  0.50000  Biso   1.000  Cu
  O9       1.0000 0.93320  0.56864  0.39800  Biso   1.000  O
  O10      1.0000 0.06680  0.43136  0.60200  Biso   1.000  O
  O11      1.0000 0.73220  0.65368  0.34395  Biso   1.000  O
  O12      1.0000 0.26780  0.34632  0.65605  Biso   1.000  O
  N5       1.0000 0.78600  0.53182  0.53782  Biso   1.000  N
  N6       1.0000 0.21400  0.46818  0.46218  Biso   1.000  N
  C25      1.0000 0.79700  0.60310  0.40055  Biso   1.000  C
  C26      1.0000 0.20300  0.39690  0.59945  Biso   1.000  C
  C27      1.0000 0.70400  0.58298  0.47927  Biso   1.000  C
  C28      1.0000 0.29600  0.41702  0.52073  Biso   1.000  C
  C29      1.0000 0.55210  0.61390  0.49270  Biso   1.000  C
  C30      1.0000 0.44790  0.38610  0.50730  Biso   1.000  C
  H17      1.0000 0.49800  0.64920  0.45160  Biso   1.000  H
  H18      1.0000 0.50200  0.35080  0.54840  Biso   1.000  H
  C31      1.0000 0.48060  0.59200  0.56820  Biso   1.000  C
  C32      1.0000 0.51940  0.40800  0.43180  Biso   1.000  C
  H19      1.0000 0.37750  0.61140  0.57820  Biso   1.000  H
  H20      1.0000 0.62250  0.38860  0.42180  Biso   1.000  H
  C33      1.0000 0.56480  0.54090  0.62820  Biso   1.000  C
  C34      1.0000 0.43520  0.45910  0.37180  Biso   1.000  C
  H21      1.0000 0.51950  0.52680  0.67950  Biso   1.000  H
  H22      1.0000 0.48050  0.47320  0.32050  Biso   1.000  H
  C35      1.0000 0.71760  0.51060  0.61163  Biso   1.000  C
  C36      1.0000 0.28240  0.48940  0.38837  Biso   1.000  C
  H23      1.0000 0.77350  0.47520  0.65190  Biso   1.000  H
  H24      1.0000 0.22650  0.52480  0.34810  Biso   1.000  H
  Cu4      1.0000 0.00000  0.50000  0.00000  Biso   1.000  Cu
  O13      1.0000 0.89470  0.58807  0.06679  Biso   1.000  O
  O14      1.0000 0.10530  0.41193  0.93321  Biso   1.000  O
  O15      1.0000 0.79460  0.59678  0.19101  Biso   1.000  O
  O16      1.0000 0.20540  0.40322  0.80899  Biso   1.000  O
  N7       1.0000 0.95660  0.41184  0.09755  Biso   1.000  N
  N8       1.0000 0.04340  0.58816  0.90245  Biso   1.000  N
  C37      1.0000 0.85550  0.55360  0.13807  Biso   1.000  C
  C38      1.0000 0.14450  0.44640  0.86193  Biso   1.000  C
  C39      1.0000 0.88960  0.45240  0.15867  Biso   1.000  C
  C40      1.0000 0.11040  0.54760  0.84133  Biso   1.000  C
  C41      1.0000 0.85480  0.40570  0.23290  Biso   1.000  C
  C42      1.0000 0.14520  0.59430  0.76710  Biso   1.000  C
  H25      1.0000 0.80830  0.43600  0.27400  Biso   1.000  H
  H26      1.0000 0.19170  0.56400  0.72600  Biso   1.000  H
  C43      1.0000 0.89070  0.31180  0.24570  Biso   1.000  C
  C44      1.0000 0.10930  0.68820  0.75430  Biso   1.000  C
  H27      1.0000 0.86800  0.27800  0.29540  Biso   1.000  H
  H28      1.0000 0.13200  0.72200  0.70460  Biso   1.000  H
  C45      1.0000 0.96000  0.26990  0.18350  Biso   1.000  C
  C46      1.0000 0.04000  0.73010  0.81650  Biso   1.000  C
  H29      1.0000 0.98420  0.20720  0.19070  Biso   1.000  H
  H30      1.0000 0.01580  0.79280  0.80930  Biso   1.000  H
  C47      1.0000 0.99400  0.32140  0.10986  Biso   1.000  C
  C48      1.0000 0.00600  0.67860  0.89014  Biso   1.000  C
  H31      1.0000 0.04330  0.29290  0.06840  Biso   1.000  H
  H32      1.0000 0.95670  0.70710  0.93160  Biso   1.000  H
  Cu5      1.0000 0.00000  0.00000  0.00000  Biso   1.000  Cu
  O17      1.0000 0.90490  0.92043  0.08977  Biso   1.000  O
  O18      1.0000 0.09510  0.07957  0.91023  Biso   1.000  O
  O19      1.0000 0.92190  0.77777  0.15407  Biso   1.000  O
  O20      1.0000 0.07810  0.22223  0.84593  Biso   1.000  O
  N9       1.0000 0.13910  0.88825  0.98908  Biso   1.000  N
  N10      1.0000 0.86090  0.11175  0.01092  Biso   1.000  N
  C49      1.0000 0.96770  0.83970  0.10159  Biso   1.000  C
  C50      1.0000 0.03230  0.16030  0.89841  Biso   1.000  C
  C51      1.0000 0.10680  0.81770  0.04709  Biso   1.000  C
  C52      1.0000 0.89320  0.18230  0.95291  Biso   1.000  C
  C53      1.0000 0.19070  0.73400  0.05310  Biso   1.000  C
  C54      1.0000 0.80930  0.26600  0.94690  Biso   1.000  C
  H33      1.0000 0.16710  0.68740  0.09390  Biso   1.000  H
  H34      1.0000 0.83290  0.31260  0.90610  Biso   1.000  H
  C55      1.0000 0.31260  0.72100  0.99630  Biso   1.000  C
  C56      1.0000 0.68740  0.27900  0.00370  Biso   1.000  C
  H35      1.0000 0.37110  0.66520  0.99820  Biso   1.000  H
  H36      1.0000 0.62890  0.33480  0.00180  Biso   1.000  H
  C57      1.0000 0.34370  0.79120  0.93850  Biso   1.000  C
  C58      1.0000 0.65630  0.20880  0.06150  Biso   1.000  C
  H37      1.0000 0.42470  0.78380  0.90050  Biso   1.000  H
  H38      1.0000 0.57530  0.21620  0.09950  Biso   1.000  H
  C59      1.0000 0.25527  0.87410  0.93561  Biso   1.000  C
  C60      1.0000 0.74473  0.12590  0.06439  Biso   1.000  C
  H39      1.0000 0.27780  0.92120  0.89510  Biso   1.000  H
  H40      1.0000 0.72220  0.07880  0.10490  Biso   1.000  H
  O21      1.0000 0.65271  0.73318  0.07792  Biso   1.000  O
  O22      1.0000 0.34729  0.26682  0.92208  Biso   1.000  O
  O23      1.0000 0.61412  0.88662  0.15668  Biso   1.000  O
  O24      1.0000 0.38588  0.11338  0.84332  Biso   1.000  O
  O25      1.0000 0.47072  0.65071  0.21854  Biso   1.000  O
  O26      1.0000 0.52928  0.34929  0.78146  Biso   1.000  O
  O27      1.0000 0.79628  0.83417  0.30180  Biso   1.000  O
  O28      1.0000 0.20372  0.16583  0.69820  Biso   1.000  O
  O29      1.0000 0.16732  0.69069  0.26659  Biso   1.000  O
  O30      1.0000 0.83268  0.30931  0.73341  Biso   1.000  O
  Cl1      1.0000 0.89530  0.26445  0.50172  Biso   1.000  Cl
  Cl2      1.0000 0.10470  0.73555  0.49828  Biso   1.000  Cl
  O31      1.0000 0.79045  0.28909  0.56589  Biso   1.000  O
  O32      1.0000 0.20955  0.71091  0.43411  Biso   1.000  O
  O33      1.0000 0.93589  0.34497  0.45043  Biso   1.000  O
  O34      1.0000 0.06411  0.65503  0.54957  Biso   1.000  O
  O35      1.0000 0.02775  0.21412  0.53478  Biso   1.000  O
  O36      1.0000 0.97225  0.78588  0.46522  Biso   1.000  O
  O37      1.0000 0.82053  0.21093  0.45423  Biso   1.000  O
  O38      1.0000 0.17947  0.78907  0.54577  Biso   1.000  O
  Cl3      1.0000 0.70237  0.92448  0.90668  Biso   1.000  Cl
  Cl4      1.0000 0.29763  0.07552  0.09332  Biso   1.000  Cl
  O39      1.0000 0.59987  0.96328  0.84570  Biso   1.000  O
  O40      1.0000 0.40013  0.03672  0.15430  Biso   1.000  O
  O41      1.0000 0.84258  0.96486  0.89537  Biso   1.000  O
  O42      1.0000 0.15742  0.03514  0.10463  Biso   1.000  O
  O43      1.0000 0.63357  0.93148  0.98414  Biso   1.000  O
  O44      1.0000 0.36643  0.06852  0.01586  Biso   1.000  O
  O45      1.0000 0.72947  0.82978  0.90173  Biso   1.000  O
  O46      1.0000 0.27053  0.17022  0.09827  Biso   1.000  O
  Cl5      1.0000 0.34543  0.46343  0.11964  Biso   1.000  Cl
  Cl6      1.0000 0.65457  0.53657  0.88036  Biso   1.000  Cl
  O47      1.0000 0.38059  0.37591  0.09824  Biso   1.000  O
  O48      1.0000 0.61941  0.62409  0.90176  Biso   1.000  O
  O49      1.0000 0.25514  0.51613  0.05843  Biso   1.000  O
  O50      1.0000 0.74486  0.48387  0.94157  Biso   1.000  O
  O51      1.0000 0.48288  0.50775  0.12416  Biso   1.000  O
  O52      1.0000 0.51712  0.49225  0.87584  Biso   1.000  O
  O53      1.0000 0.25696  0.45679  0.19388  Biso   1.000  O
  O54      1.0000 0.74304  0.54321  0.80612  Biso   1.000  O
