data_image0
_cell_length_a       12.347
_cell_length_b       12.658
_cell_length_c       19.676
_cell_angle_alpha    76.529
_cell_angle_beta     87.164
_cell_angle_gamma    64.664

_symmetry_space_group_name_H-M    "P 1"
_symmetry_int_tables_number       1

loop_
  _symmetry_equiv_pos_as_xyz
  'x, y, z'

loop_
  _atom_site_label
  _atom_site_occupancy
  _atom_site_fract_x
  _atom_site_fract_y
  _atom_site_fract_z
  _atom_site_thermal_displace_type
  _atom_site_B_iso_or_equiv
  _atom_site_type_symbol
  La1      1.0000 0.47856  0.45274  0.22913  Biso   1.000  La
  La2      1.0000 0.52144  0.54726  0.77087  Biso   1.000  La
  La3      1.0000 0.13806  0.50082  0.28128  Biso   1.000  La
  La4      1.0000 0.86194  0.49918  0.71872  Biso   1.000  La
  Cu1      1.0000 0.50314  0.69365  0.28429  Biso   1.000  Cu
  Cu2      1.0000 0.49686  0.30635  0.71571  Biso   1.000  Cu
  Cu3      1.0000 0.06134  0.32310  0.19134  Biso   1.000  Cu
  Cu4      1.0000 0.93866  0.67690  0.80866  Biso   1.000  Cu
  C1       1.0000 0.44430  0.73800  0.13700  Biso   1.000  C
  C2       1.0000 0.55570  0.26200  0.86300  Biso   1.000  C
  C3       1.0000 0.41120  0.70400  0.08040  Biso   1.000  C
  C4       1.0000 0.58880  0.29600  0.91960  Biso   1.000  C
  C5       1.0000 0.37870  0.78010  0.01500  Biso   1.000  C
  C6       1.0000 0.62130  0.21990  0.98500  Biso   1.000  C
  H1       1.0000 0.35860  0.75570  0.97830  Biso   1.000  H
  H2       1.0000 0.64140  0.24430  0.02170  Biso   1.000  H
  C7       1.0000 0.37610  0.89400  0.00390  Biso   1.000  C
  C8       1.0000 0.62390  0.10600  0.99610  Biso   1.000  C
  H3       1.0000 0.35270  0.94640  0.95990  Biso   1.000  H
  H4       1.0000 0.64730  0.05360  0.04010  Biso   1.000  H
  C9       1.0000 0.40770  0.92910  0.05730  Biso   1.000  C
  C10      1.0000 0.59230  0.07090  0.94270  Biso   1.000  C
  H5       1.0000 0.40680  0.00490  0.04910  Biso   1.000  H
  H6       1.0000 0.59320  0.99510  0.95090  Biso   1.000  H
  C11      1.0000 0.44150  0.85330  0.12400  Biso   1.000  C
  C12      1.0000 0.55850  0.14670  0.87600  Biso   1.000  C
  C13      1.0000 0.48640  0.89340  0.17460  Biso   1.000  C
  C14      1.0000 0.51360  0.10660  0.82540  Biso   1.000  C
  H7       1.0000 0.49290  0.96550  0.15900  Biso   1.000  H
  H8       1.0000 0.50710  0.03450  0.84100  Biso   1.000  H
  C15      1.0000 0.58090  0.88080  0.28080  Biso   1.000  C
  C16      1.0000 0.41910  0.11920  0.71920  Biso   1.000  C
  H9       1.0000 0.59610  0.94490  0.25070  Biso   1.000  H
  H10      1.0000 0.40390  0.05510  0.74930  Biso   1.000  H
  H11      1.0000 0.65800  0.81480  0.29850  Biso   1.000  H
  H12      1.0000 0.34200  0.18520  0.70150  Biso   1.000  H
  C17      1.0000 0.51210  0.92640  0.34290  Biso   1.000  C
  C18      1.0000 0.48790  0.07360  0.65710  Biso   1.000  C
  C19      1.0000 0.42120  0.05660  0.31760  Biso   1.000  C
  C20      1.0000 0.57880  0.94340  0.68240  Biso   1.000  C
  H13      1.0000 0.37430  0.08350  0.35580  Biso   1.000  H
  H14      1.0000 0.62570  0.91650  0.64420  Biso   1.000  H
  H15      1.0000 0.36930  0.06280  0.28070  Biso   1.000  H
  H16      1.0000 0.63070  0.93720  0.71930  Biso   1.000  H
  H17      1.0000 0.46260  0.10580  0.30050  Biso   1.000  H
  H18      1.0000 0.53740  0.89420  0.69950  Biso   1.000  H
  C21      1.0000 0.60580  0.91650  0.39440  Biso   1.000  C
  C22      1.0000 0.39420  0.08350  0.60560  Biso   1.000  C
  H19      1.0000 0.64960  0.96030  0.37130  Biso   1.000  H
  H20      1.0000 0.35040  0.03970  0.62870  Biso   1.000  H
  H21      1.0000 0.66020  0.83350  0.41140  Biso   1.000  H
  H22      1.0000 0.33980  0.16650  0.58860  Biso   1.000  H
  H23      1.0000 0.56670  0.94950  0.43290  Biso   1.000  H
  H24      1.0000 0.43330  0.05050  0.56710  Biso   1.000  H
  C23      1.0000 0.44420  0.85250  0.37790  Biso   1.000  C
  C24      1.0000 0.55580  0.14750  0.62210  Biso   1.000  C
  H25      1.0000 0.43340  0.85840  0.42620  Biso   1.000  H
  H26      1.0000 0.56660  0.14160  0.57380  Biso   1.000  H
  H27      1.0000 0.36520  0.88690  0.35450  Biso   1.000  H
  H28      1.0000 0.63480  0.11310  0.64550  Biso   1.000  H
  C25      1.0000 0.54550  0.64290  0.43310  Biso   1.000  C
  C26      1.0000 0.45450  0.35710  0.56690  Biso   1.000  C
  H29      1.0000 0.53580  0.66800  0.47470  Biso   1.000  H
  H30      1.0000 0.46420  0.33200  0.52530  Biso   1.000  H
  C27      1.0000 0.60340  0.51520  0.43750  Biso   1.000  C
  C28      1.0000 0.39660  0.48480  0.56250  Biso   1.000  C
  C29      1.0000 0.66890  0.43980  0.50060  Biso   1.000  C
  C30      1.0000 0.33110  0.56020  0.49940  Biso   1.000  C
  H31      1.0000 0.67110  0.47290  0.53770  Biso   1.000  H
  H32      1.0000 0.32890  0.52710  0.46230  Biso   1.000  H
  C31      1.0000 0.72920  0.31840  0.50730  Biso   1.000  C
  C32      1.0000 0.27080  0.68160  0.49270  Biso   1.000  C
  H33      1.0000 0.77320  0.26980  0.54880  Biso   1.000  H
  H34      1.0000 0.22680  0.73020  0.45120  Biso   1.000  H
  C33      1.0000 0.72570  0.26710  0.45300  Biso   1.000  C
  C34      1.0000 0.27430  0.73290  0.54700  Biso   1.000  C
  H35      1.0000 0.76790  0.18460  0.45770  Biso   1.000  H
  H36      1.0000 0.23210  0.81540  0.54230  Biso   1.000  H
  C35      1.0000 0.65860  0.33970  0.39170  Biso   1.000  C
  C36      1.0000 0.34140  0.66030  0.60830  Biso   1.000  C
  C37      1.0000 0.59650  0.46440  0.38310  Biso   1.000  C
  C38      1.0000 0.40350  0.53560  0.61690  Biso   1.000  C
  C39      1.0000 0.36250  0.55700  0.04740  Biso   1.000  C
  C40      1.0000 0.63750  0.44300  0.95260  Biso   1.000  C
  H37      1.0000 0.27710  0.60370  0.04490  Biso   1.000  H
  H38      1.0000 0.72290  0.39630  0.95510  Biso   1.000  H
  H39      1.0000 0.38080  0.47310  0.06180  Biso   1.000  H
  H40      1.0000 0.61920  0.52690  0.93820  Biso   1.000  H
  H41      1.0000 0.39280  0.57330  0.00210  Biso   1.000  H
  H42      1.0000 0.60720  0.42670  0.99790  Biso   1.000  H
  C41      1.0000 0.73190  0.17670  0.33380  Biso   1.000  C
  C42      1.0000 0.26810  0.82330  0.66620  Biso   1.000  C
  H43      1.0000 0.81220  0.16650  0.34190  Biso   1.000  H
  H44      1.0000 0.18780  0.83350  0.65810  Biso   1.000  H
  H45      1.0000 0.72460  0.16110  0.28920  Biso   1.000  H
  H46      1.0000 0.27540  0.83890  0.71080  Biso   1.000  H
  H47      1.0000 0.71450  0.12170  0.37000  Biso   1.000  H
  H48      1.0000 0.28550  0.87830  0.63000  Biso   1.000  H
  C43      1.0000 0.93890  0.58190  0.14200  Biso   1.000  C
  C44      1.0000 0.06110  0.41810  0.85800  Biso   1.000  C
  C45      1.0000 0.90440  0.69760  0.15360  Biso   1.000  C
  C46      1.0000 0.09560  0.30240  0.84640  Biso   1.000  C
  C47      1.0000 0.80030  0.79360  0.12220  Biso   1.000  C
  C48      1.0000 0.19970  0.20640  0.87780  Biso   1.000  C
  H49      1.0000 0.77690  0.86840  0.13220  Biso   1.000  H
  H50      1.0000 0.22310  0.13160  0.86780  Biso   1.000  H
  C49      1.0000 0.73140  0.77790  0.07620  Biso   1.000  C
  C50      1.0000 0.26860  0.22210  0.92380  Biso   1.000  C
  H51      1.0000 0.66070  0.84250  0.05570  Biso   1.000  H
  H52      1.0000 0.33930  0.15750  0.94430  Biso   1.000  H
  C51      1.0000 0.76480  0.66940  0.06020  Biso   1.000  C
  C52      1.0000 0.23520  0.33060  0.93980  Biso   1.000  C
  H53      1.0000 0.71830  0.66110  0.02780  Biso   1.000  H
  H54      1.0000 0.28170  0.33890  0.97220  Biso   1.000  H
  C53      1.0000 0.86970  0.57000  0.09250  Biso   1.000  C
  C54      1.0000 0.13030  0.43000  0.90750  Biso   1.000  C
  C55      1.0000 0.90690  0.46070  0.06890  Biso   1.000  C
  C56      1.0000 0.09310  0.53930  0.93110  Biso   1.000  C
  H55      1.0000 0.86600  0.46620  0.02880  Biso   1.000  H
  H56      1.0000 0.13400  0.53380  0.97120  Biso   1.000  H
  C57      1.0000 0.02210  0.26420  0.05730  Biso   1.000  C
  C58      1.0000 0.97790  0.73580  0.94270  Biso   1.000  C
  H57      1.0000 0.10020  0.25010  0.03890  Biso   1.000  H
  H58      1.0000 0.89980  0.74990  0.96110  Biso   1.000  H
  H59      1.0000 0.96470  0.29360  0.01770  Biso   1.000  H
  H60      1.0000 0.03530  0.70640  0.98230  Biso   1.000  H
  C59      1.0000 0.02700  0.14450  0.09950  Biso   1.000  C
  C60      1.0000 0.97300  0.85550  0.90050  Biso   1.000  C
  C61      1.0000 0.05580  0.06210  0.04840  Biso   1.000  C
  C62      1.0000 0.94420  0.93790  0.95160  Biso   1.000  C
  H61      1.0000 0.12760  0.05780  0.02550  Biso   1.000  H
  H62      1.0000 0.87240  0.94220  0.97450  Biso   1.000  H
  H63      1.0000 0.99040  0.09390  0.01400  Biso   1.000  H
  H64      1.0000 0.00960  0.90610  0.98600  Biso   1.000  H
  H65      1.0000 0.06760  0.98300  0.07380  Biso   1.000  H
  H66      1.0000 0.93240  0.01700  0.92620  Biso   1.000  H
  C63      1.0000 0.90700  0.16170  0.13010  Biso   1.000  C
  C64      1.0000 0.09300  0.83830  0.86990  Biso   1.000  C
  H67      1.0000 0.91220  0.08580  0.15720  Biso   1.000  H
  H68      1.0000 0.08780  0.91420  0.84280  Biso   1.000  H
  H69      1.0000 0.84630  0.19270  0.09280  Biso   1.000  H
  H70      1.0000 0.15370  0.80730  0.90720  Biso   1.000  H
  H71      1.0000 0.88640  0.21730  0.15960  Biso   1.000  H
  H72      1.0000 0.11360  0.78270  0.84040  Biso   1.000  H
  C65      1.0000 0.12670  0.08710  0.15590  Biso   1.000  C
  C66      1.0000 0.87330  0.91290  0.84410  Biso   1.000  C
  H73      1.0000 0.13780  0.00520  0.17580  Biso   1.000  H
  H74      1.0000 0.86220  0.99480  0.82420  Biso   1.000  H
  H75      1.0000 0.20050  0.08320  0.13470  Biso   1.000  H
  H76      1.0000 0.79950  0.91680  0.86530  Biso   1.000  H
  C67      1.0000 0.11000  0.08860  0.27480  Biso   1.000  C
  C68      1.0000 0.89000  0.91140  0.72520  Biso   1.000  C
  H77      1.0000 0.11700  0.01110  0.27960  Biso   1.000  H
  H78      1.0000 0.88300  0.98890  0.72040  Biso   1.000  H
  C69      1.0000 0.10400  0.12850  0.33830  Biso   1.000  C
  C70      1.0000 0.89600  0.87150  0.66170  Biso   1.000  C
  C71      1.0000 0.09200  0.05470  0.40150  Biso   1.000  C
  C72      1.0000 0.90800  0.94530  0.59850  Biso   1.000  C
  H79      1.0000 0.08230  0.98630  0.40020  Biso   1.000  H
  H80      1.0000 0.91770  0.01370  0.59980  Biso   1.000  H
  C73      1.0000 0.09430  0.08200  0.46360  Biso   1.000  C
  C74      1.0000 0.90570  0.91800  0.53640  Biso   1.000  C
  H81      1.0000 0.08380  0.03380  0.50450  Biso   1.000  H
  H82      1.0000 0.91620  0.96620  0.49550  Biso   1.000  H
  C75      1.0000 0.11240  0.18270  0.46640  Biso   1.000  C
  C76      1.0000 0.88760  0.81730  0.53360  Biso   1.000  C
  H83      1.0000 0.11690  0.20020  0.50920  Biso   1.000  H
  H84      1.0000 0.88310  0.79980  0.49080  Biso   1.000  H
  C77      1.0000 0.12340  0.25560  0.40550  Biso   1.000  C
  C78      1.0000 0.87660  0.74440  0.59450  Biso   1.000  C
  C79      1.0000 0.11870  0.23190  0.34000  Biso   1.000  C
  C80      1.0000 0.88130  0.76810  0.66000  Biso   1.000  C
  C81      1.0000 0.96300  0.82280  0.20290  Biso   1.000  C
  C82      1.0000 0.03700  0.17720  0.79710  Biso   1.000  C
  H85      1.0000 0.95740  0.87160  0.15660  Biso   1.000  H
  H86      1.0000 0.04260  0.12840  0.84340  Biso   1.000  H
  H87      1.0000 0.02880  0.81750  0.22960  Biso   1.000  H
  H88      1.0000 0.97120  0.18250  0.77040  Biso   1.000  H
  H89      1.0000 0.88970  0.85840  0.22540  Biso   1.000  H
  H90      1.0000 0.11030  0.14160  0.77460  Biso   1.000  H
  C83      1.0000 0.15020  0.38350  0.46960  Biso   1.000  C
  C84      1.0000 0.84980  0.61650  0.53040  Biso   1.000  C
  H91      1.0000 0.07890  0.39210  0.49420  Biso   1.000  H
  H92      1.0000 0.92110  0.60790  0.50580  Biso   1.000  H
  H93      1.0000 0.15940  0.45690  0.46190  Biso   1.000  H
  H94      1.0000 0.84060  0.54310  0.53810  Biso   1.000  H
  H95      1.0000 0.21870  0.31900  0.49700  Biso   1.000  H
  H96      1.0000 0.78130  0.68100  0.50300  Biso   1.000  H
  C85      1.0000 0.84960  0.54970  0.36310  Biso   1.000  C
  C86      1.0000 0.15040  0.45030  0.63690  Biso   1.000  C
  H97      1.0000 0.86400  0.47660  0.39730  Biso   1.000  H
  H98      1.0000 0.13600  0.52340  0.60270  Biso   1.000  H
  H99      1.0000 0.76710  0.58830  0.34600  Biso   1.000  H
  H100     1.0000 0.23290  0.41170  0.65400  Biso   1.000  H
  H101     1.0000 0.86680  0.60240  0.38420  Biso   1.000  H
  H102     1.0000 0.13320  0.39760  0.61580  Biso   1.000  H
  N1       1.0000 0.51770  0.83930  0.23850  Biso   1.000  N
  N2       1.0000 0.48230  0.16070  0.76150  Biso   1.000  N
  N3       1.0000 0.50640  0.72440  0.37610  Biso   1.000  N
  N4       1.0000 0.49360  0.27560  0.62390  Biso   1.000  N
  N5       1.0000 0.98900  0.35760  0.09638  Biso   1.000  N
  N6       1.0000 0.01100  0.64240  0.90362  Biso   1.000  N
  N7       1.0000 0.10680  0.14910  0.21240  Biso   1.000  N
  N8       1.0000 0.89320  0.85090  0.78760  Biso   1.000  N
  N9       1.0000 0.25990  0.62690  0.24150  Biso   1.000  N
  N10      1.0000 0.74010  0.37310  0.75850  Biso   1.000  N
  N11      1.0000 0.26090  0.70600  0.26450  Biso   1.000  N
  N12      1.0000 0.73910  0.29400  0.73550  Biso   1.000  N
  N13      1.0000 0.26590  0.78140  0.28600  Biso   1.000  N
  N14      1.0000 0.73410  0.21860  0.71400  Biso   1.000  N
  N15      1.0000 0.36470  0.38490  0.33690  Biso   1.000  N
  N16      1.0000 0.63530  0.61510  0.66310  Biso   1.000  N
  N17      1.0000 0.40490  0.30800  0.38300  Biso   1.000  N
  N18      1.0000 0.59510  0.69200  0.61700  Biso   1.000  N
  N19      1.0000 0.44740  0.22680  0.43310  Biso   1.000  N
  N20      1.0000 0.55260  0.77320  0.56690  Biso   1.000  N
  N21      1.0000 0.29610  0.42350  0.18890  Biso   1.000  N
  N22      1.0000 0.70390  0.57650  0.81110  Biso   1.000  N
  N23      1.0000 0.29140  0.35290  0.15970  Biso   1.000  N
  N24      1.0000 0.70860  0.64710  0.84030  Biso   1.000  N
  N25      1.0000 0.28330  0.28660  0.13070  Biso   1.000  N
  N26      1.0000 0.71670  0.71340  0.86930  Biso   1.000  N
  N27      1.0000 0.55800  0.26900  0.18250  Biso   1.000  N
  N28      1.0000 0.44200  0.73100  0.81750  Biso   1.000  N
  N29      1.0000 0.61220  0.17360  0.17460  Biso   1.000  N
  N30      1.0000 0.38780  0.82640  0.82540  Biso   1.000  N
  N31      1.0000 0.66820  0.07820  0.16630  Biso   1.000  N
  N32      1.0000 0.33180  0.92180  0.83370  Biso   1.000  N
  N33      1.0000 0.07210  0.64250  0.36220  Biso   1.000  N
  N34      1.0000 0.92790  0.35750  0.63780  Biso   1.000  N
  N35      1.0000 0.02620  0.74100  0.36630  Biso   1.000  N
  N36      1.0000 0.97380  0.25900  0.63370  Biso   1.000  N
  N37      1.0000 0.98120  0.83960  0.37260  Biso   1.000  N
  N38      1.0000 0.01880  0.16040  0.62740  Biso   1.000  N
  N39      1.0000 0.86600  0.37950  0.24430  Biso   1.000  N
  N40      1.0000 0.13400  0.62050  0.75570  Biso   1.000  N
  N41      1.0000 0.77450  0.40660  0.21480  Biso   1.000  N
  N42      1.0000 0.22550  0.59340  0.78520  Biso   1.000  N
  N43      1.0000 0.68470  0.43210  0.18380  Biso   1.000  N
  N44      1.0000 0.31530  0.56790  0.81620  Biso   1.000  N
  O1       1.0000 0.47780  0.65900  0.19769  Biso   1.000  O
  O2       1.0000 0.52220  0.34100  0.80231  Biso   1.000  O
  O3       1.0000 0.53560  0.52840  0.32190  Biso   1.000  O
  O4       1.0000 0.46440  0.47160  0.67810  Biso   1.000  O
  O5       1.0000 0.64840  0.29830  0.33419  Biso   1.000  O
  O6       1.0000 0.35160  0.70170  0.66581  Biso   1.000  O
  O7       1.0000 0.41750  0.58860  0.09711  Biso   1.000  O
  O8       1.0000 0.58250  0.41140  0.90289  Biso   1.000  O
  O9       1.0000 0.03550  0.49200  0.17679  Biso   1.000  O
  O10      1.0000 0.96450  0.50800  0.82321  Biso   1.000  O
  O11      1.0000 0.13150  0.30510  0.28302  Biso   1.000  O
  O12      1.0000 0.86850  0.69490  0.71698  Biso   1.000  O
  O13      1.0000 0.14070  0.35760  0.40373  Biso   1.000  O
  O14      1.0000 0.85930  0.64240  0.59627  Biso   1.000  O
  O15      1.0000 0.98230  0.70410  0.19835  Biso   1.000  O
  O16      1.0000 0.01770  0.29590  0.80165  Biso   1.000  O
  O17      1.0000 0.92360  0.52330  0.30753  Biso   1.000  O
  O18      1.0000 0.07640  0.47670  0.69247  Biso   1.000  O
  H103     1.0000 0.90440  0.48560  0.28540  Biso   1.000  H
  H104     1.0000 0.09560  0.51440  0.71460  Biso   1.000  H
