data_image0
_cell_length_a       12.254
_cell_length_b       12.594
_cell_length_c       19.666
_cell_angle_alpha    76.546
_cell_angle_beta     87.219
_cell_angle_gamma    64.86

_symmetry_space_group_name_H-M    "P 1"
_symmetry_int_tables_number       1

loop_
  _symmetry_equiv_pos_as_xyz
  'x, y, z'

loop_
  _atom_site_label
  _atom_site_occupancy
  _atom_site_fract_x
  _atom_site_fract_y
  _atom_site_fract_z
  _atom_site_thermal_displace_type
  _atom_site_B_iso_or_equiv
  _atom_site_type_symbol
  Ce1      1.0000 0.47669  0.45354  0.22961  Biso   1.000  Ce
  Ce2      1.0000 0.52331  0.54646  0.77039  Biso   1.000  Ce
  Ce3      1.0000 0.13811  0.50096  0.28090  Biso   1.000  Ce
  Ce4      1.0000 0.86189  0.49904  0.71910  Biso   1.000  Ce
  Cu1      1.0000 0.50294  0.69286  0.28431  Biso   1.000  Cu
  Cu2      1.0000 0.49706  0.30714  0.71569  Biso   1.000  Cu
  Cu3      1.0000 0.06027  0.32478  0.19108  Biso   1.000  Cu
  Cu4      1.0000 0.93973  0.67522  0.80892  Biso   1.000  Cu
  C1       1.0000 0.44300  0.73760  0.13690  Biso   1.000  C
  C2       1.0000 0.55700  0.26240  0.86310  Biso   1.000  C
  C3       1.0000 0.41080  0.70230  0.08090  Biso   1.000  C
  C4       1.0000 0.58920  0.29770  0.91910  Biso   1.000  C
  C5       1.0000 0.37760  0.77890  0.01680  Biso   1.000  C
  C6       1.0000 0.62240  0.22110  0.98320  Biso   1.000  C
  H1       1.0000 0.35540  0.75490  0.98050  Biso   1.000  H
  H2       1.0000 0.64460  0.24510  0.01950  Biso   1.000  H
  C7       1.0000 0.37630  0.89280  0.00430  Biso   1.000  C
  C8       1.0000 0.62370  0.10720  0.99570  Biso   1.000  C
  H3       1.0000 0.35480  0.94410  0.95990  Biso   1.000  H
  H4       1.0000 0.64520  0.05590  0.04010  Biso   1.000  H
  C9       1.0000 0.40660  0.92760  0.05740  Biso   1.000  C
  C10      1.0000 0.59340  0.07240  0.94260  Biso   1.000  C
  H5       1.0000 0.40440  0.00430  0.04930  Biso   1.000  H
  H6       1.0000 0.59560  0.99570  0.95070  Biso   1.000  H
  C11      1.0000 0.44120  0.85230  0.12440  Biso   1.000  C
  C12      1.0000 0.55880  0.14770  0.87560  Biso   1.000  C
  C13      1.0000 0.48530  0.89260  0.17500  Biso   1.000  C
  C14      1.0000 0.51470  0.10740  0.82500  Biso   1.000  C
  H7       1.0000 0.49020  0.96600  0.15950  Biso   1.000  H
  H8       1.0000 0.50980  0.03400  0.84050  Biso   1.000  H
  C15      1.0000 0.58140  0.87970  0.28070  Biso   1.000  C
  C16      1.0000 0.41860  0.12030  0.71930  Biso   1.000  C
  H9       1.0000 0.59730  0.94380  0.25050  Biso   1.000  H
  H10      1.0000 0.40270  0.05620  0.74950  Biso   1.000  H
  H11      1.0000 0.65870  0.81330  0.29830  Biso   1.000  H
  H12      1.0000 0.34130  0.18670  0.70170  Biso   1.000  H
  C17      1.0000 0.51330  0.92590  0.34290  Biso   1.000  C
  C18      1.0000 0.48670  0.07410  0.65710  Biso   1.000  C
  C19      1.0000 0.42240  0.05570  0.31720  Biso   1.000  C
  C20      1.0000 0.57760  0.94430  0.68280  Biso   1.000  C
  H13      1.0000 0.37710  0.08410  0.35550  Biso   1.000  H
  H14      1.0000 0.62290  0.91590  0.64450  Biso   1.000  H
  H15      1.0000 0.36850  0.06080  0.28150  Biso   1.000  H
  H16      1.0000 0.63150  0.93920  0.71850  Biso   1.000  H
  H17      1.0000 0.46410  0.10470  0.29820  Biso   1.000  H
  H18      1.0000 0.53590  0.89530  0.70180  Biso   1.000  H
  C21      1.0000 0.60690  0.91620  0.39480  Biso   1.000  C
  C22      1.0000 0.39310  0.08380  0.60520  Biso   1.000  C
  H19      1.0000 0.65390  0.95690  0.37140  Biso   1.000  H
  H20      1.0000 0.34610  0.04310  0.62860  Biso   1.000  H
  H21      1.0000 0.65900  0.83270  0.41360  Biso   1.000  H
  H22      1.0000 0.34100  0.16730  0.58640  Biso   1.000  H
  H23      1.0000 0.56690  0.95280  0.43210  Biso   1.000  H
  H24      1.0000 0.43310  0.04720  0.56790  Biso   1.000  H
  C23      1.0000 0.44530  0.85110  0.37820  Biso   1.000  C
  C24      1.0000 0.55470  0.14890  0.62180  Biso   1.000  C
  H25      1.0000 0.43520  0.85680  0.42660  Biso   1.000  H
  H26      1.0000 0.56480  0.14320  0.57340  Biso   1.000  H
  H27      1.0000 0.36550  0.88560  0.35510  Biso   1.000  H
  H28      1.0000 0.63450  0.11440  0.64490  Biso   1.000  H
  C25      1.0000 0.54560  0.64180  0.43310  Biso   1.000  C
  C26      1.0000 0.45440  0.35820  0.56690  Biso   1.000  C
  H29      1.0000 0.53620  0.66690  0.47480  Biso   1.000  H
  H30      1.0000 0.46380  0.33310  0.52520  Biso   1.000  H
  C27      1.0000 0.60290  0.51430  0.43770  Biso   1.000  C
  C28      1.0000 0.39710  0.48570  0.56230  Biso   1.000  C
  C29      1.0000 0.66920  0.43790  0.49990  Biso   1.000  C
  C30      1.0000 0.33080  0.56210  0.50010  Biso   1.000  C
  H31      1.0000 0.67170  0.47090  0.53710  Biso   1.000  H
  H32      1.0000 0.32830  0.52910  0.46290  Biso   1.000  H
  C31      1.0000 0.72930  0.31770  0.50700  Biso   1.000  C
  C32      1.0000 0.27070  0.68230  0.49300  Biso   1.000  C
  H33      1.0000 0.77340  0.26910  0.54860  Biso   1.000  H
  H34      1.0000 0.22660  0.73090  0.45140  Biso   1.000  H
  C33      1.0000 0.72550  0.26630  0.45210  Biso   1.000  C
  C34      1.0000 0.27450  0.73370  0.54790  Biso   1.000  C
  H35      1.0000 0.76800  0.18360  0.45670  Biso   1.000  H
  H36      1.0000 0.23200  0.81640  0.54330  Biso   1.000  H
  C35      1.0000 0.65870  0.33850  0.39110  Biso   1.000  C
  C36      1.0000 0.34130  0.66150  0.60890  Biso   1.000  C
  C37      1.0000 0.59690  0.46340  0.38220  Biso   1.000  C
  C38      1.0000 0.40310  0.53660  0.61780  Biso   1.000  C
  C39      1.0000 0.36390  0.55420  0.04790  Biso   1.000  C
  C40      1.0000 0.63610  0.44580  0.95210  Biso   1.000  C
  H37      1.0000 0.27830  0.60290  0.04290  Biso   1.000  H
  H38      1.0000 0.72170  0.39710  0.95710  Biso   1.000  H
  H39      1.0000 0.37960  0.47070  0.06370  Biso   1.000  H
  H40      1.0000 0.62040  0.52930  0.93630  Biso   1.000  H
  H41      1.0000 0.39850  0.56650  0.00350  Biso   1.000  H
  H42      1.0000 0.60150  0.43350  0.99650  Biso   1.000  H
  C41      1.0000 0.73180  0.17730  0.33120  Biso   1.000  C
  C42      1.0000 0.26820  0.82270  0.66880  Biso   1.000  C
  H43      1.0000 0.81250  0.16810  0.33890  Biso   1.000  H
  H44      1.0000 0.18750  0.83190  0.66110  Biso   1.000  H
  H45      1.0000 0.72330  0.16400  0.28600  Biso   1.000  H
  H46      1.0000 0.27670  0.83600  0.71400  Biso   1.000  H
  H47      1.0000 0.71620  0.11960  0.36680  Biso   1.000  H
  H48      1.0000 0.28380  0.88040  0.63320  Biso   1.000  H
  C43      1.0000 0.93800  0.58430  0.14200  Biso   1.000  C
  C44      1.0000 0.06200  0.41570  0.85800  Biso   1.000  C
  C45      1.0000 0.90370  0.69950  0.15440  Biso   1.000  C
  C46      1.0000 0.09630  0.30050  0.84560  Biso   1.000  C
  C47      1.0000 0.80070  0.79580  0.12230  Biso   1.000  C
  C48      1.0000 0.19930  0.20420  0.87770  Biso   1.000  C
  H49      1.0000 0.77830  0.87110  0.13160  Biso   1.000  H
  H50      1.0000 0.22170  0.12890  0.86840  Biso   1.000  H
  C49      1.0000 0.73010  0.78020  0.07590  Biso   1.000  C
  C50      1.0000 0.26990  0.21980  0.92410  Biso   1.000  C
  H51      1.0000 0.65930  0.84510  0.05510  Biso   1.000  H
  H52      1.0000 0.34070  0.15490  0.94490  Biso   1.000  H
  C51      1.0000 0.76280  0.67210  0.06060  Biso   1.000  C
  C52      1.0000 0.23720  0.32790  0.93940  Biso   1.000  C
  H53      1.0000 0.71520  0.66380  0.02860  Biso   1.000  H
  H54      1.0000 0.28480  0.33620  0.97140  Biso   1.000  H
  C53      1.0000 0.86810  0.57200  0.09240  Biso   1.000  C
  C54      1.0000 0.13190  0.42800  0.90760  Biso   1.000  C
  C55      1.0000 0.90420  0.46320  0.06900  Biso   1.000  C
  C56      1.0000 0.09580  0.53680  0.93100  Biso   1.000  C
  H55      1.0000 0.86280  0.46830  0.02910  Biso   1.000  H
  H56      1.0000 0.13720  0.53170  0.97090  Biso   1.000  H
  C57      1.0000 0.01970  0.26630  0.05740  Biso   1.000  C
  C58      1.0000 0.98030  0.73370  0.94260  Biso   1.000  C
  H57      1.0000 0.09850  0.25190  0.03920  Biso   1.000  H
  H58      1.0000 0.90150  0.74810  0.96080  Biso   1.000  H
  H59      1.0000 0.96200  0.29670  0.01770  Biso   1.000  H
  H60      1.0000 0.03800  0.70330  0.98230  Biso   1.000  H
  C59      1.0000 0.02330  0.14800  0.09850  Biso   1.000  C
  C60      1.0000 0.97670  0.85200  0.90150  Biso   1.000  C
  C61      1.0000 0.05230  0.06650  0.04720  Biso   1.000  C
  C62      1.0000 0.94770  0.93350  0.95280  Biso   1.000  C
  H61      1.0000 0.12370  0.06380  0.02390  Biso   1.000  H
  H62      1.0000 0.87630  0.93620  0.97610  Biso   1.000  H
  H63      1.0000 0.98580  0.09790  0.01330  Biso   1.000  H
  H64      1.0000 0.01420  0.90210  0.98670  Biso   1.000  H
  H65      1.0000 0.06550  0.98660  0.07240  Biso   1.000  H
  H66      1.0000 0.93450  0.01340  0.92760  Biso   1.000  H
  C63      1.0000 0.90440  0.16490  0.12990  Biso   1.000  C
  C64      1.0000 0.09560  0.83510  0.87010  Biso   1.000  C
  H67      1.0000 0.91260  0.09100  0.16160  Biso   1.000  H
  H68      1.0000 0.08740  0.90900  0.83840  Biso   1.000  H
  H69      1.0000 0.84440  0.18690  0.09330  Biso   1.000  H
  H70      1.0000 0.15560  0.81310  0.90670  Biso   1.000  H
  H71      1.0000 0.88020  0.22770  0.15490  Biso   1.000  H
  H72      1.0000 0.11980  0.77230  0.84510  Biso   1.000  H
  C65      1.0000 0.12540  0.08930  0.15440  Biso   1.000  C
  C66      1.0000 0.87460  0.91070  0.84560  Biso   1.000  C
  H73      1.0000 0.13690  0.00690  0.17410  Biso   1.000  H
  H74      1.0000 0.86310  0.99310  0.82590  Biso   1.000  H
  H75      1.0000 0.19910  0.08630  0.13270  Biso   1.000  H
  H76      1.0000 0.80090  0.91370  0.86730  Biso   1.000  H
  C67      1.0000 0.11070  0.09050  0.27280  Biso   1.000  C
  C68      1.0000 0.88930  0.90950  0.72720  Biso   1.000  C
  H77      1.0000 0.11950  0.01210  0.27720  Biso   1.000  H
  H78      1.0000 0.88050  0.98790  0.72280  Biso   1.000  H
  C69      1.0000 0.10430  0.12890  0.33750  Biso   1.000  C
  C70      1.0000 0.89570  0.87110  0.66250  Biso   1.000  C
  C71      1.0000 0.09270  0.05540  0.39970  Biso   1.000  C
  C72      1.0000 0.90730  0.94460  0.60030  Biso   1.000  C
  H79      1.0000 0.08360  0.98640  0.39810  Biso   1.000  H
  H80      1.0000 0.91640  0.01360  0.60190  Biso   1.000  H
  C73      1.0000 0.09450  0.08210  0.46230  Biso   1.000  C
  C74      1.0000 0.90550  0.91790  0.53770  Biso   1.000  C
  H81      1.0000 0.08380  0.03350  0.50310  Biso   1.000  H
  H82      1.0000 0.91620  0.96650  0.49690  Biso   1.000  H
  C75      1.0000 0.11250  0.18330  0.46480  Biso   1.000  C
  C76      1.0000 0.88750  0.81670  0.53520  Biso   1.000  C
  H83      1.0000 0.11630  0.20130  0.50770  Biso   1.000  H
  H84      1.0000 0.88370  0.79870  0.49230  Biso   1.000  H
  C77      1.0000 0.12460  0.25630  0.40420  Biso   1.000  C
  C78      1.0000 0.87540  0.74370  0.59580  Biso   1.000  C
  C79      1.0000 0.11920  0.23300  0.33890  Biso   1.000  C
  C80      1.0000 0.88080  0.76700  0.66110  Biso   1.000  C
  C81      1.0000 0.96440  0.82310  0.20350  Biso   1.000  C
  C82      1.0000 0.03560  0.17690  0.79650  Biso   1.000  C
  H85      1.0000 0.95930  0.87150  0.15710  Biso   1.000  H
  H86      1.0000 0.04070  0.12850  0.84290  Biso   1.000  H
  H87      1.0000 0.03100  0.81750  0.23010  Biso   1.000  H
  H88      1.0000 0.96900  0.18250  0.76990  Biso   1.000  H
  H89      1.0000 0.89080  0.85980  0.22590  Biso   1.000  H
  H90      1.0000 0.10920  0.14020  0.77410  Biso   1.000  H
  C83      1.0000 0.15140  0.38420  0.46860  Biso   1.000  C
  C84      1.0000 0.84860  0.61580  0.53140  Biso   1.000  C
  H91      1.0000 0.08200  0.38760  0.49450  Biso   1.000  H
  H92      1.0000 0.91800  0.61240  0.50550  Biso   1.000  H
  H93      1.0000 0.15580  0.46040  0.46090  Biso   1.000  H
  H94      1.0000 0.84420  0.53960  0.53910  Biso   1.000  H
  H95      1.0000 0.22310  0.32190  0.49470  Biso   1.000  H
  H96      1.0000 0.77690  0.67810  0.50530  Biso   1.000  H
  C85      1.0000 0.85120  0.55050  0.36270  Biso   1.000  C
  C86      1.0000 0.14880  0.44950  0.63730  Biso   1.000  C
  H97      1.0000 0.85990  0.47670  0.39470  Biso   1.000  H
  H98      1.0000 0.14010  0.52330  0.60530  Biso   1.000  H
  H99      1.0000 0.76850  0.59640  0.34540  Biso   1.000  H
  H100     1.0000 0.23150  0.40360  0.65460  Biso   1.000  H
  H101     1.0000 0.87500  0.59660  0.38640  Biso   1.000  H
  H102     1.0000 0.12500  0.40340  0.61360  Biso   1.000  H
  N1       1.0000 0.51840  0.83870  0.23850  Biso   1.000  N
  N2       1.0000 0.48160  0.16130  0.76150  Biso   1.000  N
  N3       1.0000 0.50630  0.72390  0.37630  Biso   1.000  N
  N4       1.0000 0.49370  0.27610  0.62370  Biso   1.000  N
  N5       1.0000 0.98740  0.35940  0.09710  Biso   1.000  N
  N6       1.0000 0.01260  0.64060  0.90290  Biso   1.000  N
  N7       1.0000 0.10560  0.15130  0.21130  Biso   1.000  N
  N8       1.0000 0.89440  0.84870  0.78870  Biso   1.000  N
  N9       1.0000 0.25870  0.62640  0.24150  Biso   1.000  N
  N10      1.0000 0.74130  0.37360  0.75850  Biso   1.000  N
  N11      1.0000 0.26050  0.70480  0.26490  Biso   1.000  N
  N12      1.0000 0.73950  0.29520  0.73510  Biso   1.000  N
  N13      1.0000 0.26430  0.78160  0.28590  Biso   1.000  N
  N14      1.0000 0.73570  0.21840  0.71410  Biso   1.000  N
  N15      1.0000 0.36440  0.38580  0.33410  Biso   1.000  N
  N16      1.0000 0.63560  0.61420  0.66590  Biso   1.000  N
  N17      1.0000 0.40420  0.30710  0.38310  Biso   1.000  N
  N18      1.0000 0.59580  0.69290  0.61690  Biso   1.000  N
  N19      1.0000 0.44630  0.22850  0.43240  Biso   1.000  N
  N20      1.0000 0.55370  0.77150  0.56760  Biso   1.000  N
  N21      1.0000 0.29360  0.42670  0.18940  Biso   1.000  N
  N22      1.0000 0.70640  0.57330  0.81060  Biso   1.000  N
  N23      1.0000 0.28970  0.35610  0.15930  Biso   1.000  N
  N24      1.0000 0.71030  0.64390  0.84070  Biso   1.000  N
  N25      1.0000 0.28190  0.28930  0.13010  Biso   1.000  N
  N26      1.0000 0.71810  0.71070  0.86990  Biso   1.000  N
  N27      1.0000 0.55530  0.27290  0.18380  Biso   1.000  N
  N28      1.0000 0.44470  0.72710  0.81620  Biso   1.000  N
  N29      1.0000 0.60800  0.17800  0.17440  Biso   1.000  N
  N30      1.0000 0.39200  0.82200  0.82560  Biso   1.000  N
  N31      1.0000 0.66390  0.08310  0.16560  Biso   1.000  N
  N32      1.0000 0.33610  0.91690  0.83440  Biso   1.000  N
  N33      1.0000 0.07580  0.63940  0.36050  Biso   1.000  N
  N34      1.0000 0.92420  0.36060  0.63950  Biso   1.000  N
  N35      1.0000 0.02750  0.73730  0.36720  Biso   1.000  N
  N36      1.0000 0.97250  0.26270  0.63280  Biso   1.000  N
  N37      1.0000 0.97950  0.83590  0.37330  Biso   1.000  N
  N38      1.0000 0.02050  0.16410  0.62670  Biso   1.000  N
  N39      1.0000 0.86510  0.38070  0.24460  Biso   1.000  N
  N40      1.0000 0.13490  0.61930  0.75540  Biso   1.000  N
  N41      1.0000 0.77280  0.40740  0.21520  Biso   1.000  N
  N42      1.0000 0.22720  0.59260  0.78480  Biso   1.000  N
  N43      1.0000 0.68240  0.43310  0.18490  Biso   1.000  N
  N44      1.0000 0.31760  0.56690  0.81510  Biso   1.000  N
  O1       1.0000 0.47690  0.65880  0.19781  Biso   1.000  O
  O2       1.0000 0.52310  0.34120  0.80219  Biso   1.000  O
  O3       1.0000 0.53470  0.52750  0.32143  Biso   1.000  O
  O4       1.0000 0.46530  0.47250  0.67857  Biso   1.000  O
  O5       1.0000 0.64720  0.29700  0.33425  Biso   1.000  O
  O6       1.0000 0.35280  0.70300  0.66575  Biso   1.000  O
  O7       1.0000 0.41640  0.58750  0.09767  Biso   1.000  O
  O8       1.0000 0.58360  0.41250  0.90233  Biso   1.000  O
  O9       1.0000 0.03490  0.49300  0.17738  Biso   1.000  O
  O10      1.0000 0.96510  0.50700  0.82262  Biso   1.000  O
  O11      1.0000 0.13190  0.30720  0.28203  Biso   1.000  O
  O12      1.0000 0.86810  0.69280  0.71797  Biso   1.000  O
  O13      1.0000 0.14170  0.35870  0.40298  Biso   1.000  O
  O14      1.0000 0.85830  0.64130  0.59702  Biso   1.000  O
  O15      1.0000 0.98210  0.70560  0.19955  Biso   1.000  O
  O16      1.0000 0.01790  0.29440  0.80045  Biso   1.000  O
  O17      1.0000 0.92360  0.52420  0.30735  Biso   1.000  O
  O18      1.0000 0.07640  0.47580  0.69265  Biso   1.000  O
  H103     1.0000 0.90440  0.48650  0.28520  Biso   1.000  H
  H104     1.0000 0.09560  0.51350  0.71480  Biso   1.000  H
