data_image0
_cell_length_a       12.2038
_cell_length_b       12.5702
_cell_length_c       19.689
_cell_angle_alpha    76.538
_cell_angle_beta     87.325
_cell_angle_gamma    65.045

_symmetry_space_group_name_H-M    "P 1"
_symmetry_int_tables_number       1

loop_
  _symmetry_equiv_pos_as_xyz
  'x, y, z'

loop_
  _atom_site_label
  _atom_site_occupancy
  _atom_site_fract_x
  _atom_site_fract_y
  _atom_site_fract_z
  _atom_site_thermal_displace_type
  _atom_site_B_iso_or_equiv
  _atom_site_type_symbol
  Pr1      1.0000 0.47540  0.45430  0.22991  Biso   1.000  Pr
  Pr2      1.0000 0.52460  0.54570  0.77009  Biso   1.000  Pr
  Pr3      1.0000 0.13818  0.50100  0.28073  Biso   1.000  Pr
  Pr4      1.0000 0.86182  0.49900  0.71927  Biso   1.000  Pr
  Cu1      1.0000 0.50253  0.69274  0.28445  Biso   1.000  Cu
  Cu2      1.0000 0.49747  0.30726  0.71555  Biso   1.000  Cu
  Cu3      1.0000 0.05983  0.32614  0.19092  Biso   1.000  Cu
  Cu4      1.0000 0.94017  0.67386  0.80908  Biso   1.000  Cu
  C1       1.0000 0.44250  0.73610  0.13750  Biso   1.000  C
  C2       1.0000 0.55750  0.26390  0.86250  Biso   1.000  C
  C3       1.0000 0.40940  0.70170  0.08180  Biso   1.000  C
  C4       1.0000 0.59060  0.29830  0.91820  Biso   1.000  C
  C5       1.0000 0.37600  0.77670  0.01710  Biso   1.000  C
  C6       1.0000 0.62400  0.22330  0.98290  Biso   1.000  C
  H1       1.0000 0.35460  0.75170  0.98090  Biso   1.000  H
  H2       1.0000 0.64540  0.24830  0.01910  Biso   1.000  H
  C7       1.0000 0.37390  0.89170  0.00500  Biso   1.000  C
  C8       1.0000 0.62610  0.10830  0.99500  Biso   1.000  C
  H3       1.0000 0.35110  0.94320  0.96080  Biso   1.000  H
  H4       1.0000 0.64890  0.05680  0.03920  Biso   1.000  H
  C9       1.0000 0.40500  0.92790  0.05770  Biso   1.000  C
  C10      1.0000 0.59500  0.07210  0.94230  Biso   1.000  C
  H5       1.0000 0.40340  0.00450  0.04910  Biso   1.000  H
  H6       1.0000 0.59660  0.99550  0.95090  Biso   1.000  H
  C11      1.0000 0.43940  0.85230  0.12470  Biso   1.000  C
  C12      1.0000 0.56060  0.14770  0.87530  Biso   1.000  C
  C13      1.0000 0.48490  0.89220  0.17470  Biso   1.000  C
  C14      1.0000 0.51510  0.10780  0.82530  Biso   1.000  C
  H7       1.0000 0.49100  0.96510  0.15890  Biso   1.000  H
  H8       1.0000 0.50900  0.03490  0.84110  Biso   1.000  H
  C15      1.0000 0.58210  0.87950  0.28060  Biso   1.000  C
  C16      1.0000 0.41790  0.12050  0.71940  Biso   1.000  C
  H9       1.0000 0.59830  0.94360  0.25040  Biso   1.000  H
  H10      1.0000 0.40170  0.05640  0.74960  Biso   1.000  H
  H11      1.0000 0.65950  0.81290  0.29810  Biso   1.000  H
  H12      1.0000 0.34050  0.18710  0.70190  Biso   1.000  H
  C17      1.0000 0.51400  0.92550  0.34260  Biso   1.000  C
  C18      1.0000 0.48600  0.07450  0.65740  Biso   1.000  C
  C19      1.0000 0.42320  0.05570  0.31750  Biso   1.000  C
  C20      1.0000 0.57680  0.94430  0.68250  Biso   1.000  C
  H13      1.0000 0.37590  0.08250  0.35550  Biso   1.000  H
  H14      1.0000 0.62410  0.91750  0.64450  Biso   1.000  H
  H15      1.0000 0.37080  0.06190  0.28040  Biso   1.000  H
  H16      1.0000 0.62920  0.93810  0.71960  Biso   1.000  H
  H17      1.0000 0.46540  0.10520  0.30050  Biso   1.000  H
  H18      1.0000 0.53460  0.89480  0.69950  Biso   1.000  H
  C21      1.0000 0.60920  0.91540  0.39440  Biso   1.000  C
  C22      1.0000 0.39080  0.08460  0.60560  Biso   1.000  C
  H19      1.0000 0.65670  0.95570  0.37070  Biso   1.000  H
  H20      1.0000 0.34330  0.04430  0.62930  Biso   1.000  H
  H21      1.0000 0.66100  0.83180  0.41330  Biso   1.000  H
  H22      1.0000 0.33900  0.16820  0.58670  Biso   1.000  H
  H23      1.0000 0.56980  0.95240  0.43160  Biso   1.000  H
  H24      1.0000 0.43020  0.04760  0.56840  Biso   1.000  H
  C23      1.0000 0.44540  0.85130  0.37800  Biso   1.000  C
  C24      1.0000 0.55460  0.14870  0.62200  Biso   1.000  C
  H25      1.0000 0.43550  0.85700  0.42630  Biso   1.000  H
  H26      1.0000 0.56450  0.14300  0.57370  Biso   1.000  H
  H27      1.0000 0.36530  0.88600  0.35490  Biso   1.000  H
  H28      1.0000 0.63470  0.11400  0.64510  Biso   1.000  H
  C25      1.0000 0.54580  0.64180  0.43270  Biso   1.000  C
  C26      1.0000 0.45420  0.35820  0.56730  Biso   1.000  C
  H29      1.0000 0.53700  0.66680  0.47430  Biso   1.000  H
  H30      1.0000 0.46300  0.33320  0.52570  Biso   1.000  H
  C27      1.0000 0.60290  0.51310  0.43730  Biso   1.000  C
  C28      1.0000 0.39710  0.48690  0.56270  Biso   1.000  C
  C29      1.0000 0.66990  0.43750  0.49930  Biso   1.000  C
  C30      1.0000 0.33010  0.56250  0.50070  Biso   1.000  C
  H31      1.0000 0.67310  0.47060  0.53630  Biso   1.000  H
  H32      1.0000 0.32690  0.52940  0.46370  Biso   1.000  H
  C31      1.0000 0.73040  0.31610  0.50610  Biso   1.000  C
  C32      1.0000 0.26960  0.68390  0.49390  Biso   1.000  C
  H33      1.0000 0.77550  0.26710  0.54740  Biso   1.000  H
  H34      1.0000 0.22450  0.73290  0.45260  Biso   1.000  H
  C33      1.0000 0.72490  0.26570  0.45190  Biso   1.000  C
  C34      1.0000 0.27510  0.73430  0.54810  Biso   1.000  C
  H35      1.0000 0.76640  0.18280  0.45670  Biso   1.000  H
  H36      1.0000 0.23360  0.81720  0.54330  Biso   1.000  H
  C35      1.0000 0.65810  0.33790  0.39050  Biso   1.000  C
  C36      1.0000 0.34190  0.66210  0.60950  Biso   1.000  C
  C37      1.0000 0.59550  0.46340  0.38212  Biso   1.000  C
  C38      1.0000 0.40450  0.53660  0.61788  Biso   1.000  C
  C39      1.0000 0.36340  0.55180  0.04900  Biso   1.000  C
  C40      1.0000 0.63660  0.44820  0.95100  Biso   1.000  C
  H37      1.0000 0.27750  0.60000  0.04440  Biso   1.000  H
  H38      1.0000 0.72250  0.40000  0.95560  Biso   1.000  H
  H39      1.0000 0.37950  0.46810  0.06480  Biso   1.000  H
  H40      1.0000 0.62050  0.53190  0.93520  Biso   1.000  H
  H41      1.0000 0.39720  0.56470  0.00450  Biso   1.000  H
  H42      1.0000 0.60280  0.43530  0.99550  Biso   1.000  H
  C41      1.0000 0.72980  0.17740  0.33130  Biso   1.000  C
  C42      1.0000 0.27020  0.82260  0.66870  Biso   1.000  C
  H43      1.0000 0.81060  0.16690  0.34090  Biso   1.000  H
  H44      1.0000 0.18940  0.83310  0.65910  Biso   1.000  H
  H45      1.0000 0.72380  0.16400  0.28580  Biso   1.000  H
  H46      1.0000 0.27620  0.83600  0.71420  Biso   1.000  H
  H47      1.0000 0.71130  0.12060  0.36600  Biso   1.000  H
  H48      1.0000 0.28870  0.87940  0.63400  Biso   1.000  H
  C43      1.0000 0.93780  0.58520  0.14304  Biso   1.000  C
  C44      1.0000 0.06220  0.41480  0.85696  Biso   1.000  C
  C45      1.0000 0.90380  0.70040  0.15490  Biso   1.000  C
  C46      1.0000 0.09620  0.29960  0.84510  Biso   1.000  C
  C47      1.0000 0.80030  0.79800  0.12340  Biso   1.000  C
  C48      1.0000 0.19970  0.20200  0.87660  Biso   1.000  C
  H49      1.0000 0.77820  0.87300  0.13320  Biso   1.000  H
  H50      1.0000 0.22180  0.12700  0.86680  Biso   1.000  H
  C49      1.0000 0.72930  0.78270  0.07670  Biso   1.000  C
  C50      1.0000 0.27070  0.21730  0.92330  Biso   1.000  C
  H51      1.0000 0.65830  0.84770  0.05590  Biso   1.000  H
  H52      1.0000 0.34170  0.15230  0.94410  Biso   1.000  H
  C51      1.0000 0.76180  0.67470  0.06110  Biso   1.000  C
  C52      1.0000 0.23820  0.32530  0.93890  Biso   1.000  C
  H53      1.0000 0.71460  0.66680  0.02860  Biso   1.000  H
  H54      1.0000 0.28540  0.33320  0.97140  Biso   1.000  H
  C53      1.0000 0.86680  0.57390  0.09360  Biso   1.000  C
  C54      1.0000 0.13320  0.42610  0.90640  Biso   1.000  C
  C55      1.0000 0.90340  0.46520  0.06940  Biso   1.000  C
  C56      1.0000 0.09660  0.53480  0.93060  Biso   1.000  C
  H55      1.0000 0.86200  0.47120  0.02930  Biso   1.000  H
  H56      1.0000 0.13800  0.52880  0.97070  Biso   1.000  H
  C57      1.0000 0.01860  0.26890  0.05710  Biso   1.000  C
  C58      1.0000 0.98140  0.73110  0.94290  Biso   1.000  C
  H57      1.0000 0.09760  0.25450  0.03900  Biso   1.000  H
  H58      1.0000 0.90240  0.74550  0.96100  Biso   1.000  H
  H59      1.0000 0.96060  0.29950  0.01740  Biso   1.000  H
  H60      1.0000 0.03940  0.70050  0.98260  Biso   1.000  H
  C59      1.0000 0.02160  0.14980  0.09860  Biso   1.000  C
  C60      1.0000 0.97840  0.85020  0.90140  Biso   1.000  C
  C61      1.0000 0.04920  0.06920  0.04700  Biso   1.000  C
  C62      1.0000 0.95080  0.93080  0.95300  Biso   1.000  C
  H61      1.0000 0.12200  0.06470  0.02450  Biso   1.000  H
  H62      1.0000 0.87800  0.93530  0.97550  Biso   1.000  H
  H63      1.0000 0.98320  0.10250  0.01240  Biso   1.000  H
  H64      1.0000 0.01680  0.89750  0.98760  Biso   1.000  H
  H65      1.0000 0.05980  0.98970  0.07170  Biso   1.000  H
  H66      1.0000 0.94020  0.01030  0.92830  Biso   1.000  H
  C63      1.0000 0.90150  0.16770  0.12970  Biso   1.000  C
  C64      1.0000 0.09850  0.83230  0.87030  Biso   1.000  C
  H67      1.0000 0.90680  0.09210  0.15800  Biso   1.000  H
  H68      1.0000 0.09320  0.90790  0.84200  Biso   1.000  H
  H69      1.0000 0.83990  0.19710  0.09270  Biso   1.000  H
  H70      1.0000 0.16010  0.80290  0.90730  Biso   1.000  H
  H71      1.0000 0.88120  0.22520  0.15810  Biso   1.000  H
  H72      1.0000 0.11880  0.77480  0.84190  Biso   1.000  H
  C65      1.0000 0.12470  0.09070  0.15430  Biso   1.000  C
  C66      1.0000 0.87530  0.90930  0.84570  Biso   1.000  C
  H73      1.0000 0.13640  0.00810  0.17380  Biso   1.000  H
  H74      1.0000 0.86360  0.99190  0.82620  Biso   1.000  H
  H75      1.0000 0.19840  0.08820  0.13250  Biso   1.000  H
  H76      1.0000 0.80160  0.91180  0.86750  Biso   1.000  H
  C67      1.0000 0.11020  0.09080  0.27250  Biso   1.000  C
  C68      1.0000 0.88980  0.90920  0.72750  Biso   1.000  C
  H77      1.0000 0.11850  0.01240  0.27690  Biso   1.000  H
  H78      1.0000 0.88150  0.98760  0.72310  Biso   1.000  H
  C69      1.0000 0.10440  0.12960  0.33680  Biso   1.000  C
  C70      1.0000 0.89560  0.87040  0.66320  Biso   1.000  C
  C71      1.0000 0.09250  0.05590  0.39940  Biso   1.000  C
  C72      1.0000 0.90750  0.94410  0.60060  Biso   1.000  C
  H79      1.0000 0.08230  0.98720  0.39780  Biso   1.000  H
  H80      1.0000 0.91770  0.01280  0.60220  Biso   1.000  H
  C73      1.0000 0.09530  0.08200  0.46140  Biso   1.000  C
  C74      1.0000 0.90470  0.91800  0.53860  Biso   1.000  C
  H81      1.0000 0.08570  0.03240  0.50210  Biso   1.000  H
  H82      1.0000 0.91430  0.96760  0.49790  Biso   1.000  H
  C75      1.0000 0.11250  0.18350  0.46460  Biso   1.000  C
  C76      1.0000 0.88750  0.81650  0.53540  Biso   1.000  C
  H83      1.0000 0.11590  0.20130  0.50760  Biso   1.000  H
  H84      1.0000 0.88410  0.79870  0.49240  Biso   1.000  H
  C77      1.0000 0.12450  0.25690  0.40420  Biso   1.000  C
  C78      1.0000 0.87550  0.74310  0.59580  Biso   1.000  C
  C79      1.0000 0.11920  0.23360  0.33830  Biso   1.000  C
  C80      1.0000 0.88080  0.76640  0.66170  Biso   1.000  C
  C81      1.0000 0.96520  0.82320  0.20500  Biso   1.000  C
  C82      1.0000 0.03480  0.17680  0.79500  Biso   1.000  C
  H85      1.0000 0.96190  0.87160  0.15890  Biso   1.000  H
  H86      1.0000 0.03810  0.12840  0.84110  Biso   1.000  H
  H87      1.0000 0.03110  0.81730  0.23270  Biso   1.000  H
  H88      1.0000 0.96890  0.18270  0.76730  Biso   1.000  H
  H89      1.0000 0.89060  0.85990  0.22640  Biso   1.000  H
  H90      1.0000 0.10940  0.14010  0.77360  Biso   1.000  H
  C83      1.0000 0.15140  0.38540  0.46810  Biso   1.000  C
  C84      1.0000 0.84860  0.61460  0.53190  Biso   1.000  C
  H91      1.0000 0.08000  0.39230  0.49280  Biso   1.000  H
  H92      1.0000 0.92000  0.60770  0.50720  Biso   1.000  H
  H93      1.0000 0.15940  0.46000  0.46040  Biso   1.000  H
  H94      1.0000 0.84060  0.54000  0.53960  Biso   1.000  H
  H95      1.0000 0.22120  0.32140  0.49520  Biso   1.000  H
  H96      1.0000 0.77880  0.67860  0.50480  Biso   1.000  H
  C85      1.0000 0.85320  0.54850  0.36300  Biso   1.000  C
  C86      1.0000 0.14680  0.45150  0.63700  Biso   1.000  C
  H97      1.0000 0.87040  0.47430  0.39720  Biso   1.000  H
  H98      1.0000 0.12960  0.52570  0.60280  Biso   1.000  H
  H99      1.0000 0.76940  0.58510  0.34710  Biso   1.000  H
  H100     1.0000 0.23060  0.41490  0.65290  Biso   1.000  H
  H101     1.0000 0.87010  0.60240  0.38360  Biso   1.000  H
  H102     1.0000 0.12990  0.39760  0.61640  Biso   1.000  H
  N1       1.0000 0.51790  0.83870  0.23832  Biso   1.000  N
  N2       1.0000 0.48210  0.16130  0.76168  Biso   1.000  N
  N3       1.0000 0.50630  0.72380  0.37602  Biso   1.000  N
  N4       1.0000 0.49370  0.27620  0.62398  Biso   1.000  N
  N5       1.0000 0.98650  0.36100  0.09688  Biso   1.000  N
  N6       1.0000 0.01350  0.63900  0.90312  Biso   1.000  N
  N7       1.0000 0.10510  0.15220  0.21089  Biso   1.000  N
  N8       1.0000 0.89490  0.84780  0.78911  Biso   1.000  N
  N9       1.0000 0.25900  0.62630  0.24204  Biso   1.000  N
  N10      1.0000 0.74100  0.37370  0.75796  Biso   1.000  N
  N11      1.0000 0.25960  0.70510  0.26503  Biso   1.000  N
  N12      1.0000 0.74040  0.29490  0.73497  Biso   1.000  N
  N13      1.0000 0.26360  0.78170  0.28570  Biso   1.000  N
  N14      1.0000 0.73640  0.21830  0.71430  Biso   1.000  N
  N15      1.0000 0.36270  0.38620  0.33334  Biso   1.000  N
  N16      1.0000 0.63730  0.61380  0.66666  Biso   1.000  N
  N17      1.0000 0.40440  0.30720  0.38294  Biso   1.000  N
  N18      1.0000 0.59560  0.69280  0.61706  Biso   1.000  N
  N19      1.0000 0.44480  0.23000  0.43230  Biso   1.000  N
  N20      1.0000 0.55520  0.77000  0.56770  Biso   1.000  N
  N21      1.0000 0.29320  0.42670  0.18990  Biso   1.000  N
  N22      1.0000 0.70680  0.57330  0.81010  Biso   1.000  N
  N23      1.0000 0.28880  0.35670  0.15960  Biso   1.000  N
  N24      1.0000 0.71120  0.64330  0.84040  Biso   1.000  N
  N25      1.0000 0.28070  0.29160  0.12960  Biso   1.000  N
  N26      1.0000 0.71930  0.70840  0.87040  Biso   1.000  N
  N27      1.0000 0.55220  0.27500  0.18430  Biso   1.000  N
  N28      1.0000 0.44780  0.72500  0.81570  Biso   1.000  N
  N29      1.0000 0.60610  0.17970  0.17420  Biso   1.000  N
  N30      1.0000 0.39390  0.82030  0.82580  Biso   1.000  N
  N31      1.0000 0.66110  0.08500  0.16540  Biso   1.000  N
  N32      1.0000 0.33890  0.91500  0.83460  Biso   1.000  N
  N33      1.0000 0.07720  0.63740  0.36000  Biso   1.000  N
  N34      1.0000 0.92280  0.36260  0.64000  Biso   1.000  N
  N35      1.0000 0.02810  0.73570  0.36720  Biso   1.000  N
  N36      1.0000 0.97190  0.26430  0.63280  Biso   1.000  N
  N37      1.0000 0.98000  0.83280  0.37490  Biso   1.000  N
  N38      1.0000 0.02000  0.16720  0.62510  Biso   1.000  N
  N39      1.0000 0.86400  0.38100  0.24470  Biso   1.000  N
  N40      1.0000 0.13600  0.61900  0.75530  Biso   1.000  N
  N41      1.0000 0.77110  0.40890  0.21580  Biso   1.000  N
  N42      1.0000 0.22890  0.59110  0.78420  Biso   1.000  N
  N43      1.0000 0.68080  0.43330  0.18540  Biso   1.000  N
  N44      1.0000 0.31920  0.56670  0.81460  Biso   1.000  N
  O1       1.0000 0.47650  0.65770  0.19839  Biso   1.000  O
  O2       1.0000 0.52350  0.34230  0.80161  Biso   1.000  O
  O3       1.0000 0.53350  0.52720  0.32147  Biso   1.000  O
  O4       1.0000 0.46650  0.47280  0.67853  Biso   1.000  O
  O5       1.0000 0.64600  0.29740  0.33309  Biso   1.000  O
  O6       1.0000 0.35400  0.70260  0.66691  Biso   1.000  O
  O7       1.0000 0.41680  0.58540  0.09871  Biso   1.000  O
  O8       1.0000 0.58320  0.41460  0.90129  Biso   1.000  O
  O9       1.0000 0.03480  0.49430  0.17763  Biso   1.000  O
  O10      1.0000 0.96520  0.50570  0.82237  Biso   1.000  O
  O11      1.0000 0.13220  0.30810  0.28187  Biso   1.000  O
  O12      1.0000 0.86780  0.69190  0.71813  Biso   1.000  O
  O13      1.0000 0.14210  0.35940  0.40225  Biso   1.000  O
  O14      1.0000 0.85790  0.64060  0.59775  Biso   1.000  O
  O15      1.0000 0.98310  0.70590  0.20046  Biso   1.000  O
  O16      1.0000 0.01690  0.29410  0.79954  Biso   1.000  O
  O17      1.0000 0.92470  0.52480  0.30696  Biso   1.000  O
  O18      1.0000 0.07530  0.47520  0.69304  Biso   1.000  O
  H103     1.0000 0.90550  0.48710  0.28480  Biso   1.000  H
  H104     1.0000 0.09450  0.51290  0.71520  Biso   1.000  H
