data_image0
_cell_length_a       12.179
_cell_length_b       12.571
_cell_length_c       19.723
_cell_angle_alpha    76.538
_cell_angle_beta     87.492
_cell_angle_gamma    65.094

_symmetry_space_group_name_H-M    "P 1"
_symmetry_int_tables_number       1

loop_
  _symmetry_equiv_pos_as_xyz
  'x, y, z'

loop_
  _atom_site_label
  _atom_site_occupancy
  _atom_site_fract_x
  _atom_site_fract_y
  _atom_site_fract_z
  _atom_site_thermal_displace_type
  _atom_site_B_iso_or_equiv
  _atom_site_type_symbol
  Nd1      1.0000 0.47334  0.45549  0.23043  Biso   1.000  Nd
  Nd2      1.0000 0.52666  0.54451  0.76957  Biso   1.000  Nd
  Nd3      1.0000 0.13748  0.50127  0.28070  Biso   1.000  Nd
  Nd4      1.0000 0.86252  0.49873  0.71930  Biso   1.000  Nd
  Cu1      1.0000 0.50149  0.69285  0.28472  Biso   1.000  Cu
  Cu2      1.0000 0.49851  0.30715  0.71528  Biso   1.000  Cu
  Cu3      1.0000 0.05848  0.32796  0.19065  Biso   1.000  Cu
  Cu4      1.0000 0.94152  0.67204  0.80935  Biso   1.000  Cu
  C1       1.0000 0.44090  0.73600  0.13814  Biso   1.000  C
  C2       1.0000 0.55910  0.26400  0.86186  Biso   1.000  C
  C3       1.0000 0.40880  0.69980  0.08261  Biso   1.000  C
  C4       1.0000 0.59120  0.30020  0.91739  Biso   1.000  C
  C5       1.0000 0.37530  0.77630  0.01720  Biso   1.000  C
  C6       1.0000 0.62470  0.22370  0.98280  Biso   1.000  C
  H1       1.0000 0.35420  0.75130  0.98090  Biso   1.000  H
  H2       1.0000 0.64580  0.24870  0.01910  Biso   1.000  H
  C7       1.0000 0.37290  0.89050  0.00510  Biso   1.000  C
  C8       1.0000 0.62710  0.10950  0.99490  Biso   1.000  C
  H3       1.0000 0.35050  0.94170  0.96070  Biso   1.000  H
  H4       1.0000 0.64950  0.05830  0.03930  Biso   1.000  H
  C9       1.0000 0.40300  0.92770  0.05780  Biso   1.000  C
  C10      1.0000 0.59700  0.07230  0.94220  Biso   1.000  C
  H5       1.0000 0.40010  0.00480  0.04930  Biso   1.000  H
  H6       1.0000 0.59990  0.99520  0.95070  Biso   1.000  H
  C11      1.0000 0.43840  0.85230  0.12480  Biso   1.000  C
  C12      1.0000 0.56160  0.14770  0.87520  Biso   1.000  C
  C13      1.0000 0.48400  0.89280  0.17500  Biso   1.000  C
  C14      1.0000 0.51600  0.10720  0.82500  Biso   1.000  C
  H7       1.0000 0.49020  0.96560  0.15920  Biso   1.000  H
  H8       1.0000 0.50980  0.03440  0.84080  Biso   1.000  H
  C15      1.0000 0.58220  0.87940  0.28070  Biso   1.000  C
  C16      1.0000 0.41780  0.12060  0.71930  Biso   1.000  C
  H9       1.0000 0.59800  0.94360  0.25040  Biso   1.000  H
  H10      1.0000 0.40200  0.05640  0.74960  Biso   1.000  H
  H11      1.0000 0.65990  0.81290  0.29810  Biso   1.000  H
  H12      1.0000 0.34010  0.18710  0.70190  Biso   1.000  H
  C17      1.0000 0.51430  0.92530  0.34270  Biso   1.000  C
  C18      1.0000 0.48570  0.07470  0.65730  Biso   1.000  C
  C19      1.0000 0.42350  0.05620  0.31800  Biso   1.000  C
  C20      1.0000 0.57650  0.94380  0.68200  Biso   1.000  C
  H13      1.0000 0.37520  0.08190  0.35580  Biso   1.000  H
  H14      1.0000 0.62480  0.91810  0.64420  Biso   1.000  H
  H15      1.0000 0.37190  0.06340  0.28010  Biso   1.000  H
  H16      1.0000 0.62810  0.93660  0.71990  Biso   1.000  H
  H17      1.0000 0.46610  0.10580  0.30230  Biso   1.000  H
  H18      1.0000 0.53390  0.89420  0.69770  Biso   1.000  H
  C21      1.0000 0.60960  0.91520  0.39410  Biso   1.000  C
  C22      1.0000 0.39040  0.08480  0.60590  Biso   1.000  C
  H19      1.0000 0.65940  0.95240  0.37010  Biso   1.000  H
  H20      1.0000 0.34060  0.04760  0.62990  Biso   1.000  H
  H21      1.0000 0.65930  0.83160  0.41460  Biso   1.000  H
  H22      1.0000 0.34070  0.16840  0.58540  Biso   1.000  H
  H23      1.0000 0.57030  0.95520  0.43020  Biso   1.000  H
  H24      1.0000 0.42970  0.04480  0.56980  Biso   1.000  H
  C23      1.0000 0.44550  0.85110  0.37830  Biso   1.000  C
  C24      1.0000 0.55450  0.14890  0.62170  Biso   1.000  C
  H25      1.0000 0.43630  0.85660  0.42660  Biso   1.000  H
  H26      1.0000 0.56370  0.14340  0.57340  Biso   1.000  H
  H27      1.0000 0.36500  0.88600  0.35550  Biso   1.000  H
  H28      1.0000 0.63500  0.11400  0.64450  Biso   1.000  H
  C25      1.0000 0.54540  0.64120  0.43266  Biso   1.000  C
  C26      1.0000 0.45460  0.35880  0.56734  Biso   1.000  C
  H29      1.0000 0.53610  0.66610  0.47420  Biso   1.000  H
  H30      1.0000 0.46390  0.33390  0.52580  Biso   1.000  H
  C27      1.0000 0.60300  0.51290  0.43722  Biso   1.000  C
  C28      1.0000 0.39700  0.48710  0.56278  Biso   1.000  C
  C29      1.0000 0.67010  0.43630  0.49910  Biso   1.000  C
  C30      1.0000 0.32990  0.56370  0.50090  Biso   1.000  C
  H31      1.0000 0.67310  0.46860  0.53640  Biso   1.000  H
  H32      1.0000 0.32690  0.53140  0.46360  Biso   1.000  H
  C31      1.0000 0.73100  0.31490  0.50530  Biso   1.000  C
  C32      1.0000 0.26900  0.68510  0.49470  Biso   1.000  C
  H33      1.0000 0.77700  0.26560  0.54630  Biso   1.000  H
  H34      1.0000 0.22300  0.73440  0.45370  Biso   1.000  H
  C33      1.0000 0.72440  0.26500  0.45080  Biso   1.000  C
  C34      1.0000 0.27560  0.73500  0.54920  Biso   1.000  C
  H35      1.0000 0.76600  0.18220  0.45520  Biso   1.000  H
  H36      1.0000 0.23400  0.81780  0.54480  Biso   1.000  H
  C35      1.0000 0.65670  0.33760  0.39022  Biso   1.000  C
  C36      1.0000 0.34330  0.66240  0.60978  Biso   1.000  C
  C37      1.0000 0.59490  0.46320  0.38202  Biso   1.000  C
  C38      1.0000 0.40510  0.53680  0.61798  Biso   1.000  C
  C39      1.0000 0.36480  0.54910  0.05000  Biso   1.000  C
  C40      1.0000 0.63520  0.45090  0.95000  Biso   1.000  C
  H37      1.0000 0.27840  0.59490  0.04570  Biso   1.000  H
  H38      1.0000 0.72160  0.40510  0.95430  Biso   1.000  H
  H39      1.0000 0.38390  0.46470  0.06510  Biso   1.000  H
  H40      1.0000 0.61610  0.53530  0.93490  Biso   1.000  H
  H41      1.0000 0.39780  0.56450  0.00560  Biso   1.000  H
  H42      1.0000 0.60220  0.43550  0.99440  Biso   1.000  H
  C41      1.0000 0.72930  0.17750  0.33040  Biso   1.000  C
  C42      1.0000 0.27070  0.82250  0.66960  Biso   1.000  C
  H43      1.0000 0.81020  0.16800  0.33920  Biso   1.000  H
  H44      1.0000 0.18980  0.83200  0.66080  Biso   1.000  H
  H45      1.0000 0.72210  0.16400  0.28510  Biso   1.000  H
  H46      1.0000 0.27790  0.83600  0.71490  Biso   1.000  H
  H47      1.0000 0.71220  0.12010  0.36540  Biso   1.000  H
  H48      1.0000 0.28780  0.87990  0.63460  Biso   1.000  H
  C43      1.0000 0.93600  0.58780  0.14368  Biso   1.000  C
  C44      1.0000 0.06400  0.41220  0.85632  Biso   1.000  C
  C45      1.0000 0.90290  0.70230  0.15641  Biso   1.000  C
  C46      1.0000 0.09710  0.29770  0.84359  Biso   1.000  C
  C47      1.0000 0.79940  0.79970  0.12480  Biso   1.000  C
  C48      1.0000 0.20060  0.20030  0.87520  Biso   1.000  C
  H49      1.0000 0.77750  0.87450  0.13480  Biso   1.000  H
  H50      1.0000 0.22250  0.12550  0.86520  Biso   1.000  H
  C49      1.0000 0.72760  0.78560  0.07780  Biso   1.000  C
  C50      1.0000 0.27240  0.21440  0.92220  Biso   1.000  C
  H51      1.0000 0.65660  0.85100  0.05720  Biso   1.000  H
  H52      1.0000 0.34340  0.14900  0.94280  Biso   1.000  H
  C51      1.0000 0.75990  0.67810  0.06160  Biso   1.000  C
  C52      1.0000 0.24010  0.32190  0.93840  Biso   1.000  C
  H53      1.0000 0.71220  0.67090  0.02890  Biso   1.000  H
  H54      1.0000 0.28780  0.32910  0.97110  Biso   1.000  H
  C53      1.0000 0.86470  0.57720  0.09364  Biso   1.000  C
  C54      1.0000 0.13530  0.42280  0.90636  Biso   1.000  C
  C55      1.0000 0.90090  0.46860  0.06950  Biso   1.000  C
  C56      1.0000 0.09910  0.53140  0.93050  Biso   1.000  C
  H55      1.0000 0.85870  0.47500  0.02940  Biso   1.000  H
  H56      1.0000 0.14130  0.52500  0.97060  Biso   1.000  H
  C57      1.0000 0.01550  0.27240  0.05660  Biso   1.000  C
  C58      1.0000 0.98450  0.72760  0.94340  Biso   1.000  C
  H57      1.0000 0.09440  0.25810  0.03840  Biso   1.000  H
  H58      1.0000 0.90560  0.74190  0.96160  Biso   1.000  H
  H59      1.0000 0.95700  0.30320  0.01710  Biso   1.000  H
  H60      1.0000 0.04300  0.69680  0.98290  Biso   1.000  H
  C59      1.0000 0.01890  0.15300  0.09780  Biso   1.000  C
  C60      1.0000 0.98110  0.84700  0.90220  Biso   1.000  C
  C61      1.0000 0.04650  0.07190  0.04640  Biso   1.000  C
  C62      1.0000 0.95350  0.92810  0.95360  Biso   1.000  C
  H61      1.0000 0.12150  0.06420  0.02560  Biso   1.000  H
  H62      1.0000 0.87850  0.93580  0.97440  Biso   1.000  H
  H63      1.0000 0.98210  0.10700  0.01060  Biso   1.000  H
  H64      1.0000 0.01790  0.89300  0.98940  Biso   1.000  H
  H65      1.0000 0.05330  0.99360  0.07080  Biso   1.000  H
  H66      1.0000 0.94670  0.00640  0.92920  Biso   1.000  H
  C63      1.0000 0.89840  0.17070  0.12880  Biso   1.000  C
  C64      1.0000 0.10160  0.82930  0.87120  Biso   1.000  C
  H67      1.0000 0.90520  0.09600  0.15910  Biso   1.000  H
  H68      1.0000 0.09480  0.90400  0.84090  Biso   1.000  H
  H69      1.0000 0.83750  0.19590  0.09190  Biso   1.000  H
  H70      1.0000 0.16250  0.80410  0.90810  Biso   1.000  H
  H71      1.0000 0.87600  0.23130  0.15510  Biso   1.000  H
  H72      1.0000 0.12400  0.76870  0.84490  Biso   1.000  H
  C65      1.0000 0.12260  0.09270  0.15340  Biso   1.000  C
  C66      1.0000 0.87740  0.90730  0.84660  Biso   1.000  C
  H73      1.0000 0.13370  0.01030  0.17280  Biso   1.000  H
  H74      1.0000 0.86630  0.98970  0.82720  Biso   1.000  H
  H75      1.0000 0.19650  0.08980  0.13170  Biso   1.000  H
  H76      1.0000 0.80350  0.91020  0.86830  Biso   1.000  H
  C67      1.0000 0.10890  0.09180  0.27220  Biso   1.000  C
  C68      1.0000 0.89110  0.90820  0.72780  Biso   1.000  C
  H77      1.0000 0.11700  0.01350  0.27660  Biso   1.000  H
  H78      1.0000 0.88300  0.98650  0.72340  Biso   1.000  H
  C69      1.0000 0.10360  0.13040  0.33610  Biso   1.000  C
  C70      1.0000 0.89640  0.86960  0.66390  Biso   1.000  C
  C71      1.0000 0.09200  0.05580  0.39870  Biso   1.000  C
  C72      1.0000 0.90800  0.94420  0.60130  Biso   1.000  C
  H79      1.0000 0.08180  0.98710  0.39720  Biso   1.000  H
  H80      1.0000 0.91820  0.01290  0.60280  Biso   1.000  H
  C73      1.0000 0.09530  0.08200  0.46050  Biso   1.000  C
  C74      1.0000 0.90470  0.91800  0.53950  Biso   1.000  C
  H81      1.0000 0.08620  0.03230  0.50120  Biso   1.000  H
  H82      1.0000 0.91380  0.96770  0.49880  Biso   1.000  H
  C75      1.0000 0.11260  0.18390  0.46380  Biso   1.000  C
  C76      1.0000 0.88740  0.81610  0.53620  Biso   1.000  C
  H83      1.0000 0.11560  0.20170  0.50670  Biso   1.000  H
  H84      1.0000 0.88440  0.79830  0.49330  Biso   1.000  H
  C77      1.0000 0.12490  0.25780  0.40348  Biso   1.000  C
  C78      1.0000 0.87510  0.74220  0.59652  Biso   1.000  C
  C79      1.0000 0.11930  0.23430  0.33799  Biso   1.000  C
  C80      1.0000 0.88070  0.76570  0.66201  Biso   1.000  C
  C81      1.0000 0.96520  0.82450  0.20640  Biso   1.000  C
  C82      1.0000 0.03480  0.17550  0.79360  Biso   1.000  C
  H85      1.0000 0.96330  0.87270  0.16050  Biso   1.000  H
  H86      1.0000 0.03670  0.12730  0.83950  Biso   1.000  H
  H87      1.0000 0.03080  0.81800  0.23480  Biso   1.000  H
  H88      1.0000 0.96920  0.18200  0.76520  Biso   1.000  H
  H89      1.0000 0.88990  0.86200  0.22710  Biso   1.000  H
  H90      1.0000 0.11010  0.13800  0.77290  Biso   1.000  H
  C83      1.0000 0.15150  0.38530  0.46765  Biso   1.000  C
  C84      1.0000 0.84850  0.61470  0.53235  Biso   1.000  C
  H91      1.0000 0.08030  0.39130  0.49240  Biso   1.000  H
  H92      1.0000 0.91970  0.60870  0.50760  Biso   1.000  H
  H93      1.0000 0.15880  0.46020  0.46020  Biso   1.000  H
  H94      1.0000 0.84120  0.53980  0.53980  Biso   1.000  H
  H95      1.0000 0.22180  0.32150  0.49460  Biso   1.000  H
  H96      1.0000 0.77820  0.67850  0.50540  Biso   1.000  H
  C85      1.0000 0.85300  0.54810  0.36310  Biso   1.000  C
  C86      1.0000 0.14700  0.45190  0.63690  Biso   1.000  C
  H97      1.0000 0.87540  0.47520  0.39910  Biso   1.000  H
  H98      1.0000 0.12460  0.52480  0.60090  Biso   1.000  H
  H99      1.0000 0.76940  0.57780  0.34780  Biso   1.000  H
  H100     1.0000 0.23060  0.42220  0.65220  Biso   1.000  H
  H101     1.0000 0.86430  0.60770  0.38110  Biso   1.000  H
  H102     1.0000 0.13570  0.39230  0.61890  Biso   1.000  H
  N1       1.0000 0.51690  0.83860  0.23908  Biso   1.000  N
  N2       1.0000 0.48310  0.16140  0.76092  Biso   1.000  N
  N3       1.0000 0.50620  0.72300  0.37631  Biso   1.000  N
  N4       1.0000 0.49380  0.27700  0.62369  Biso   1.000  N
  N5       1.0000 0.98400  0.36450  0.09634  Biso   1.000  N
  N6       1.0000 0.01600  0.63550  0.90366  Biso   1.000  N
  N7       1.0000 0.10340  0.15430  0.21008  Biso   1.000  N
  N8       1.0000 0.89660  0.84570  0.78992  Biso   1.000  N
  N9       1.0000 0.25840  0.62570  0.24262  Biso   1.000  N
  N10      1.0000 0.74160  0.37430  0.75738  Biso   1.000  N
  N11      1.0000 0.25880  0.70460  0.26558  Biso   1.000  N
  N12      1.0000 0.74120  0.29540  0.73442  Biso   1.000  N
  N13      1.0000 0.26230  0.78190  0.28640  Biso   1.000  N
  N14      1.0000 0.73770  0.21810  0.71360  Biso   1.000  N
  N15      1.0000 0.36100  0.38670  0.33315  Biso   1.000  N
  N16      1.0000 0.63900  0.61330  0.66685  Biso   1.000  N
  N17      1.0000 0.40300  0.30810  0.38293  Biso   1.000  N
  N18      1.0000 0.59700  0.69190  0.61707  Biso   1.000  N
  N19      1.0000 0.44350  0.23080  0.43210  Biso   1.000  N
  N20      1.0000 0.55650  0.76920  0.56790  Biso   1.000  N
  N21      1.0000 0.29090  0.42880  0.18990  Biso   1.000  N
  N22      1.0000 0.70910  0.57120  0.81010  Biso   1.000  N
  N23      1.0000 0.28670  0.35910  0.15960  Biso   1.000  N
  N24      1.0000 0.71330  0.64090  0.84040  Biso   1.000  N
  N25      1.0000 0.27940  0.29340  0.12960  Biso   1.000  N
  N26      1.0000 0.72060  0.70660  0.87040  Biso   1.000  N
  N27      1.0000 0.54990  0.27740  0.18520  Biso   1.000  N
  N28      1.0000 0.45010  0.72260  0.81480  Biso   1.000  N
  N29      1.0000 0.60360  0.18170  0.17480  Biso   1.000  N
  N30      1.0000 0.39640  0.81830  0.82520  Biso   1.000  N
  N31      1.0000 0.65750  0.08760  0.16540  Biso   1.000  N
  N32      1.0000 0.34250  0.91240  0.83460  Biso   1.000  N
  N33      1.0000 0.07830  0.63620  0.35973  Biso   1.000  N
  N34      1.0000 0.92170  0.36380  0.64027  Biso   1.000  N
  N35      1.0000 0.02810  0.73350  0.36803  Biso   1.000  N
  N36      1.0000 0.97190  0.26650  0.63197  Biso   1.000  N
  N37      1.0000 0.97940  0.83020  0.37670  Biso   1.000  N
  N38      1.0000 0.02060  0.16980  0.62330  Biso   1.000  N
  N39      1.0000 0.86260  0.38230  0.24440  Biso   1.000  N
  N40      1.0000 0.13740  0.61770  0.75560  Biso   1.000  N
  N41      1.0000 0.76920  0.40970  0.21601  Biso   1.000  N
  N42      1.0000 0.23080  0.59030  0.78399  Biso   1.000  N
  N43      1.0000 0.67830  0.43470  0.18660  Biso   1.000  N
  N44      1.0000 0.32170  0.56530  0.81340  Biso   1.000  N
  O1       1.0000 0.47540  0.65760  0.19897  Biso   1.000  O
  O2       1.0000 0.52460  0.34240  0.80103  Biso   1.000  O
  O3       1.0000 0.53140  0.52760  0.32157  Biso   1.000  O
  O4       1.0000 0.46860  0.47240  0.67843  Biso   1.000  O
  O5       1.0000 0.64420  0.29790  0.33249  Biso   1.000  O
  O6       1.0000 0.35580  0.70210  0.66751  Biso   1.000  O
  O7       1.0000 0.41620  0.58400  0.10009  Biso   1.000  O
  O8       1.0000 0.58380  0.41600  0.89991  Biso   1.000  O
  O9       1.0000 0.03302  0.49626  0.17827  Biso   1.000  O
  O10      1.0000 0.96698  0.50374  0.82173  Biso   1.000  O
  O11      1.0000 0.13200  0.30932  0.28151  Biso   1.000  O
  O12      1.0000 0.86800  0.69068  0.71849  Biso   1.000  O
  O13      1.0000 0.14190  0.35980  0.40190  Biso   1.000  O
  O14      1.0000 0.85810  0.64020  0.59810  Biso   1.000  O
  O15      1.0000 0.98240  0.70680  0.20169  Biso   1.000  O
  O16      1.0000 0.01760  0.29320  0.79831  Biso   1.000  O
  O17      1.0000 0.92540  0.52440  0.30685  Biso   1.000  O
  O18      1.0000 0.07460  0.47560  0.69315  Biso   1.000  O
  H103     1.0000 0.90620  0.48670  0.28470  Biso   1.000  H
  H104     1.0000 0.09380  0.51330  0.71530  Biso   1.000  H
