data_image0
_cell_length_a       9.4183
_cell_length_b       21.2326
_cell_length_c       37.9387
_cell_angle_alpha    90
_cell_angle_beta     90
_cell_angle_gamma    90

_symmetry_space_group_name_H-M    "P 1"
_symmetry_int_tables_number       1

loop_
  _symmetry_equiv_pos_as_xyz
  'x, y, z'

loop_
  _atom_site_label
  _atom_site_occupancy
  _atom_site_fract_x
  _atom_site_fract_y
  _atom_site_fract_z
  _atom_site_thermal_displace_type
  _atom_site_B_iso_or_equiv
  _atom_site_type_symbol
  Gd1      1.0000 0.04122  0.22696  0.12595  Biso   1.000  Gd
  Gd2      1.0000 0.95878  0.77304  0.62595  Biso   1.000  Gd
  Gd3      1.0000 0.54122  0.27304  0.62595  Biso   1.000  Gd
  Gd4      1.0000 0.45878  0.72696  0.12595  Biso   1.000  Gd
  Gd5      1.0000 0.04185  0.22631  0.82672  Biso   1.000  Gd
  Gd6      1.0000 0.95815  0.77369  0.32672  Biso   1.000  Gd
  Gd7      1.0000 0.54185  0.27369  0.32672  Biso   1.000  Gd
  Gd8      1.0000 0.45815  0.72631  0.82672  Biso   1.000  Gd
  Cu1      1.0000 0.20760  0.48393  0.80466  Biso   1.000  Cu
  Cu2      1.0000 0.79240  0.51607  0.30466  Biso   1.000  Cu
  Cu3      1.0000 0.70760  0.01607  0.30466  Biso   1.000  Cu
  Cu4      1.0000 0.29240  0.98393  0.80466  Biso   1.000  Cu
  Cu5      1.0000 0.20770  0.48422  0.14823  Biso   1.000  Cu
  Cu6      1.0000 0.79230  0.51578  0.64823  Biso   1.000  Cu
  Cu7      1.0000 0.70770  0.01578  0.64823  Biso   1.000  Cu
  Cu8      1.0000 0.29230  0.98422  0.14823  Biso   1.000  Cu
  Cu9      1.0000 0.12960  0.22401  0.97610  Biso   1.000  Cu
  Cu10     1.0000 0.87040  0.77599  0.47610  Biso   1.000  Cu
  Cu11     1.0000 0.62960  0.27599  0.47610  Biso   1.000  Cu
  Cu12     1.0000 0.37040  0.72401  0.97610  Biso   1.000  Cu
  S1       1.0000 0.88580  0.24540  0.74290  Biso   1.000  S
  S2       1.0000 0.11420  0.75460  0.24290  Biso   1.000  S
  S3       1.0000 0.38580  0.25460  0.24290  Biso   1.000  S
  S4       1.0000 0.61420  0.74540  0.74290  Biso   1.000  S
  S5       1.0000 0.70070  0.18560  0.09580  Biso   1.000  S
  S6       1.0000 0.29930  0.81440  0.59580  Biso   1.000  S
  S7       1.0000 0.20070  0.31440  0.59580  Biso   1.000  S
  S8       1.0000 0.79930  0.68560  0.09580  Biso   1.000  S
  S9       1.0000 0.70520  0.15780  0.84680  Biso   1.000  S
  S10      1.0000 0.29480  0.84220  0.34680  Biso   1.000  S
  S11      1.0000 0.20520  0.34220  0.34680  Biso   1.000  S
  S12      1.0000 0.79480  0.65780  0.84680  Biso   1.000  S
  S13      1.0000 0.19050  0.50780  0.71740  Biso   1.000  S
  S14      1.0000 0.80950  0.49220  0.21740  Biso   1.000  S
  S15      1.0000 0.69050  0.99220  0.21740  Biso   1.000  S
  S16      1.0000 0.30950  0.00780  0.71740  Biso   1.000  S
  S17      1.0000 0.89260  0.24760  0.21300  Biso   1.000  S
  S18      1.0000 0.10740  0.75240  0.71300  Biso   1.000  S
  S19      1.0000 0.39260  0.25240  0.71300  Biso   1.000  S
  S20      1.0000 0.60740  0.74760  0.21300  Biso   1.000  S
  N1       1.0000 0.29800  0.40790  0.82000  Biso   1.000  N
  N2       1.0000 0.70200  0.59210  0.32000  Biso   1.000  N
  N3       1.0000 0.79800  0.09210  0.32000  Biso   1.000  N
  N4       1.0000 0.20200  0.90790  0.82000  Biso   1.000  N
  N5       1.0000 0.38700  0.52130  0.82020  Biso   1.000  N
  N6       1.0000 0.61300  0.47870  0.32020  Biso   1.000  N
  N7       1.0000 0.88700  0.97870  0.32020  Biso   1.000  N
  N8       1.0000 0.11300  0.02130  0.82020  Biso   1.000  N
  N9       1.0000 0.00400  0.26070  0.94440  Biso   1.000  N
  N10      1.0000 0.99600  0.73930  0.44440  Biso   1.000  N
  N11      1.0000 0.50400  0.23930  0.44440  Biso   1.000  N
  N12      1.0000 0.49600  0.76070  0.94440  Biso   1.000  N
  N13      1.0000 0.03300  0.27670  0.01000  Biso   1.000  N
  N14      1.0000 0.96700  0.72330  0.51000  Biso   1.000  N
  N15      1.0000 0.53300  0.22330  0.51000  Biso   1.000  N
  N16      1.0000 0.46700  0.77670  0.01000  Biso   1.000  N
  O1       1.0000 0.79370  0.21390  0.11620  Biso   1.000  O
  O2       1.0000 0.20630  0.78610  0.61620  Biso   1.000  O
  O3       1.0000 0.29370  0.28610  0.61620  Biso   1.000  O
  O4       1.0000 0.70630  0.71390  0.11620  Biso   1.000  O
  O5       1.0000 0.17100  0.18460  0.07860  Biso   1.000  O
  O6       1.0000 0.82900  0.81540  0.57860  Biso   1.000  O
  O7       1.0000 0.67100  0.31540  0.57860  Biso   1.000  O
  O8       1.0000 0.32900  0.68460  0.07860  Biso   1.000  O
  O9       1.0000 0.22780  0.30020  0.12730  Biso   1.000  O
  O10      1.0000 0.77220  0.69980  0.62730  Biso   1.000  O
  O11      1.0000 0.72780  0.19980  0.62730  Biso   1.000  O
  O12      1.0000 0.27220  0.80020  0.12730  Biso   1.000  O
  O13      1.0000 0.98600  0.21820  0.76540  Biso   1.000  O
  O14      1.0000 0.01400  0.78180  0.26540  Biso   1.000  O
  O15      1.0000 0.48600  0.28180  0.26540  Biso   1.000  O
  O16      1.0000 0.51400  0.71820  0.76540  Biso   1.000  O
  O17      1.0000 0.02930  0.43350  0.80530  Biso   1.000  O
  O18      1.0000 0.97070  0.56650  0.30530  Biso   1.000  O
  O19      1.0000 0.52930  0.06650  0.30530  Biso   1.000  O
  O20      1.0000 0.47070  0.93350  0.80530  Biso   1.000  O
  O21      1.0000 0.96710  0.32920  0.80670  Biso   1.000  O
  O22      1.0000 0.03290  0.67080  0.30670  Biso   1.000  O
  O23      1.0000 0.46710  0.17080  0.30670  Biso   1.000  O
  O24      1.0000 0.53290  0.82920  0.80670  Biso   1.000  O
  O25      1.0000 0.50340  0.61590  0.12420  Biso   1.000  O
  O26      1.0000 0.49660  0.38410  0.62420  Biso   1.000  O
  O27      1.0000 0.00340  0.88410  0.62420  Biso   1.000  O
  O28      1.0000 0.99660  0.11590  0.12420  Biso   1.000  O
  O29      1.0000 0.27100  0.66840  0.15170  Biso   1.000  O
  O30      1.0000 0.72900  0.33160  0.65170  Biso   1.000  O
  O31      1.0000 0.77100  0.83160  0.65170  Biso   1.000  O
  O32      1.0000 0.22900  0.16840  0.15170  Biso   1.000  O
  O33      1.0000 0.96800  0.27270  0.07010  Biso   1.000  O
  O34      1.0000 0.03200  0.72730  0.57010  Biso   1.000  O
  O35      1.0000 0.46800  0.22730  0.57010  Biso   1.000  O
  O36      1.0000 0.53200  0.77270  0.07010  Biso   1.000  O
  O37      1.0000 0.23770  0.30170  0.83070  Biso   1.000  O
  O38      1.0000 0.76230  0.69830  0.33070  Biso   1.000  O
  O39      1.0000 0.73770  0.19830  0.33070  Biso   1.000  O
  O40      1.0000 0.26230  0.80170  0.83070  Biso   1.000  O
  O41      1.0000 0.24300  0.19840  0.93420  Biso   1.000  O
  O42      1.0000 0.75700  0.80160  0.43420  Biso   1.000  O
  O43      1.0000 0.74300  0.30160  0.43420  Biso   1.000  O
  O44      1.0000 0.25700  0.69840  0.93420  Biso   1.000  O
  O45      1.0000 0.98600  0.27620  0.88300  Biso   1.000  O
  O46      1.0000 0.01400  0.72380  0.38300  Biso   1.000  O
  O47      1.0000 0.48600  0.22380  0.38300  Biso   1.000  O
  O48      1.0000 0.51400  0.77620  0.88300  Biso   1.000  O
  O49      1.0000 0.02900  0.22210  0.18950  Biso   1.000  O
  O50      1.0000 0.97100  0.77790  0.68950  Biso   1.000  O
  O51      1.0000 0.52900  0.27790  0.68950  Biso   1.000  O
  O52      1.0000 0.47100  0.72210  0.18950  Biso   1.000  O
  O53      1.0000 0.20070  0.18060  0.01820  Biso   1.000  O
  O54      1.0000 0.79930  0.81940  0.51820  Biso   1.000  O
  O55      1.0000 0.70070  0.31940  0.51820  Biso   1.000  O
  O56      1.0000 0.29930  0.68060  0.01820  Biso   1.000  O
  O57      1.0000 0.14800  0.57370  0.80130  Biso   1.000  O
  O58      1.0000 0.85200  0.42630  0.30130  Biso   1.000  O
  O59      1.0000 0.64800  0.92630  0.30130  Biso   1.000  O
  O60      1.0000 0.35200  0.07370  0.80130  Biso   1.000  O
  O61      1.0000 0.49000  0.61260  0.82570  Biso   1.000  O
  O62      1.0000 0.51000  0.38740  0.32570  Biso   1.000  O
  O63      1.0000 0.99000  0.88740  0.32570  Biso   1.000  O
  O64      1.0000 0.01000  0.11260  0.82570  Biso   1.000  O
  O65      1.0000 0.25000  0.66830  0.80300  Biso   1.000  O
  O66      1.0000 0.75000  0.33170  0.30300  Biso   1.000  O
  O67      1.0000 0.75000  0.83170  0.30300  Biso   1.000  O
  O68      1.0000 0.25000  0.16830  0.80300  Biso   1.000  O
  O69      1.0000 0.79200  0.21310  0.82720  Biso   1.000  O
  O70      1.0000 0.20800  0.78690  0.32720  Biso   1.000  O
  O71      1.0000 0.29200  0.28690  0.32720  Biso   1.000  O
  O72      1.0000 0.70800  0.71310  0.82720  Biso   1.000  O
  O73      1.0000 0.25700  0.46620  0.74570  Biso   1.000  O
  O74      1.0000 0.74300  0.53380  0.24570  Biso   1.000  O
  O75      1.0000 0.75700  0.03380  0.24570  Biso   1.000  O
  O76      1.0000 0.24300  0.96620  0.74570  Biso   1.000  O
  N17      1.0000 0.28700  0.40530  0.12960  Biso   1.000  N
  N18      1.0000 0.71300  0.59470  0.62960  Biso   1.000  N
  N19      1.0000 0.78700  0.09470  0.62960  Biso   1.000  N
  N20      1.0000 0.21300  0.90530  0.12960  Biso   1.000  N
  O77      1.0000 0.03300  0.42890  0.15740  Biso   1.000  O
  O78      1.0000 0.96700  0.57110  0.65740  Biso   1.000  O
  O79      1.0000 0.53300  0.07110  0.65740  Biso   1.000  O
  O80      1.0000 0.46700  0.92890  0.15740  Biso   1.000  O
  O81      1.0000 0.16500  0.57490  0.16090  Biso   1.000  O
  O82      1.0000 0.83500  0.42510  0.66090  Biso   1.000  O
  O83      1.0000 0.66500  0.92510  0.66090  Biso   1.000  O
  O84      1.0000 0.33500  0.07490  0.16090  Biso   1.000  O
  N21      1.0000 0.38200  0.51680  0.12990  Biso   1.000  N
  N22      1.0000 0.61800  0.48320  0.62990  Biso   1.000  N
  N23      1.0000 0.88200  0.98320  0.62990  Biso   1.000  N
  N24      1.0000 0.11800  0.01680  0.12990  Biso   1.000  N
  O85      1.0000 0.96500  0.33440  0.14260  Biso   1.000  O
  O86      1.0000 0.03500  0.66560  0.64260  Biso   1.000  O
  O87      1.0000 0.46500  0.16560  0.64260  Biso   1.000  O
  O88      1.0000 0.53500  0.83440  0.14260  Biso   1.000  O
  O89      1.0000 0.18600  0.18690  0.87950  Biso   1.000  O
  O90      1.0000 0.81400  0.81310  0.37950  Biso   1.000  O
  O91      1.0000 0.68600  0.31310  0.37950  Biso   1.000  O
  O92      1.0000 0.31400  0.68690  0.87950  Biso   1.000  O
  C1       1.0000 0.45000  0.41320  0.83080  Biso   1.000  C
  C2       1.0000 0.55000  0.58680  0.33080  Biso   1.000  C
  C3       1.0000 0.95000  0.08680  0.33080  Biso   1.000  C
  C4       1.0000 0.05000  0.91320  0.83080  Biso   1.000  C
  C5       1.0000 0.51500  0.36270  0.84720  Biso   1.000  C
  C6       1.0000 0.48500  0.63730  0.34720  Biso   1.000  C
  C7       1.0000 0.01500  0.13730  0.34720  Biso   1.000  C
  C8       1.0000 0.98500  0.86270  0.84720  Biso   1.000  C
  C9       1.0000 0.64600  0.37050  0.84720  Biso   1.000  C
  C10      1.0000 0.35400  0.62950  0.34720  Biso   1.000  C
  C11      1.0000 0.14600  0.12950  0.34720  Biso   1.000  C
  C12      1.0000 0.85400  0.87050  0.84720  Biso   1.000  C
  C13      1.0000 0.72000  0.44120  0.85610  Biso   1.000  C
  C14      1.0000 0.28000  0.55880  0.35610  Biso   1.000  C
  C15      1.0000 0.22000  0.05880  0.35610  Biso   1.000  C
  C16      1.0000 0.78000  0.94120  0.85610  Biso   1.000  C
  C17      1.0000 0.61900  0.48240  0.84780  Biso   1.000  C
  C18      1.0000 0.38100  0.51760  0.34780  Biso   1.000  C
  C19      1.0000 0.11900  0.01760  0.34780  Biso   1.000  C
  C20      1.0000 0.88100  0.98240  0.84780  Biso   1.000  C
  C21      1.0000 0.49700  0.47800  0.83590  Biso   1.000  C
  C22      1.0000 0.50300  0.52200  0.33590  Biso   1.000  C
  C23      1.0000 0.99700  0.02200  0.33590  Biso   1.000  C
  C24      1.0000 0.00300  0.97800  0.83590  Biso   1.000  C
  C25      1.0000 0.94200  0.31930  0.95730  Biso   1.000  C
  C26      1.0000 0.05800  0.68070  0.45730  Biso   1.000  C
  C27      1.0000 0.44200  0.18070  0.45730  Biso   1.000  C
  C28      1.0000 0.55800  0.81930  0.95730  Biso   1.000  C
  C29      1.0000 0.21600  0.35670  0.82160  Biso   1.000  C
  C30      1.0000 0.78400  0.64330  0.32160  Biso   1.000  C
  C31      1.0000 0.71600  0.14330  0.32160  Biso   1.000  C
  C32      1.0000 0.28400  0.85670  0.82160  Biso   1.000  C
  C33      1.0000 0.02400  0.25190  0.90970  Biso   1.000  C
  C34      1.0000 0.97600  0.74810  0.40970  Biso   1.000  C
  C35      1.0000 0.52400  0.24810  0.40970  Biso   1.000  C
  C36      1.0000 0.47600  0.75190  0.90970  Biso   1.000  C
  C37      1.0000 0.05400  0.25560  0.04110  Biso   1.000  C
  C38      1.0000 0.94600  0.74440  0.54110  Biso   1.000  C
  C39      1.0000 0.55400  0.24440  0.54110  Biso   1.000  C
  C40      1.0000 0.44600  0.75560  0.04110  Biso   1.000  C
  C41      1.0000 0.10800  0.19700  0.90700  Biso   1.000  C
  C42      1.0000 0.89200  0.80300  0.40700  Biso   1.000  C
  C43      1.0000 0.60800  0.30300  0.40700  Biso   1.000  C
  C44      1.0000 0.39200  0.69700  0.90700  Biso   1.000  C
  C45      1.0000 0.40600  0.57920  0.82020  Biso   1.000  C
  C46      1.0000 0.59400  0.42080  0.32020  Biso   1.000  C
  C47      1.0000 0.90600  0.92080  0.32020  Biso   1.000  C
  C48      1.0000 0.09400  0.07920  0.82020  Biso   1.000  C
  C49      1.0000 0.26100  0.60970  0.80880  Biso   1.000  C
  C50      1.0000 0.73900  0.39030  0.30880  Biso   1.000  C
  C51      1.0000 0.76100  0.89030  0.30880  Biso   1.000  C
  C52      1.0000 0.23900  0.10970  0.80880  Biso   1.000  C
  C53      1.0000 0.78600  0.40860  0.96030  Biso   1.000  C
  C54      1.0000 0.21400  0.59140  0.46030  Biso   1.000  C
  C55      1.0000 0.28600  0.09140  0.46030  Biso   1.000  C
  C56      1.0000 0.71400  0.90860  0.96030  Biso   1.000  C
  C57      1.0000 0.70400  0.38100  0.99650  Biso   1.000  C
  C58      1.0000 0.29600  0.61900  0.49650  Biso   1.000  C
  C59      1.0000 0.20400  0.11900  0.49650  Biso   1.000  C
  C60      1.0000 0.79600  0.88100  0.99650  Biso   1.000  C
  C61      1.0000 0.77400  0.33000  0.02470  Biso   1.000  C
  C62      1.0000 0.22600  0.67000  0.52470  Biso   1.000  C
  C63      1.0000 0.27400  0.17000  0.52470  Biso   1.000  C
  C64      1.0000 0.72600  0.83000  0.02470  Biso   1.000  C
  C65      1.0000 0.25800  0.61300  0.15200  Biso   1.000  C
  C66      1.0000 0.74200  0.38700  0.65200  Biso   1.000  C
  C67      1.0000 0.75800  0.88700  0.65200  Biso   1.000  C
  C68      1.0000 0.24200  0.11300  0.15200  Biso   1.000  C
  C69      1.0000 0.52000  0.17800  0.84000  Biso   1.000  C
  C70      1.0000 0.48000  0.82200  0.34000  Biso   1.000  C
  C71      1.0000 0.02000  0.32200  0.34000  Biso   1.000  C
  C72      1.0000 0.98000  0.67800  0.84000  Biso   1.000  C
  C73      1.0000 0.92300  0.20460  0.25240  Biso   1.000  C
  C74      1.0000 0.07700  0.79540  0.75240  Biso   1.000  C
  C75      1.0000 0.42300  0.29540  0.75240  Biso   1.000  C
  C76      1.0000 0.57700  0.70460  0.25240  Biso   1.000  C
  C77      1.0000 0.96700  0.30800  0.23490  Biso   1.000  C
  C78      1.0000 0.03300  0.69200  0.73490  Biso   1.000  C
  C79      1.0000 0.46700  0.19200  0.73490  Biso   1.000  C
  C80      1.0000 0.53300  0.80800  0.23490  Biso   1.000  C
  C81      1.0000 0.38100  0.57810  0.13240  Biso   1.000  C
  C82      1.0000 0.61900  0.42190  0.63240  Biso   1.000  C
  C83      1.0000 0.88100  0.92190  0.63240  Biso   1.000  C
  C84      1.0000 0.11900  0.07810  0.13240  Biso   1.000  C
  C85      1.0000 0.89900  0.29850  0.99400  Biso   1.000  C
  C86      1.0000 0.10100  0.70150  0.49400  Biso   1.000  C
  C87      1.0000 0.39900  0.20150  0.49400  Biso   1.000  C
  C88      1.0000 0.60100  0.79850  0.99400  Biso   1.000  C
  C89      1.0000 0.07000  0.37710  0.14420  Biso   1.000  C
  C90      1.0000 0.93000  0.62290  0.64420  Biso   1.000  C
  C91      1.0000 0.57000  0.12290  0.64420  Biso   1.000  C
  C92      1.0000 0.43000  0.87710  0.14420  Biso   1.000  C
  C93      1.0000 0.04000  0.36940  0.80960  Biso   1.000  C
  C94      1.0000 0.96000  0.63060  0.30960  Biso   1.000  C
  C95      1.0000 0.54000  0.13060  0.30960  Biso   1.000  C
  C96      1.0000 0.46000  0.86940  0.80960  Biso   1.000  C
  C97      1.0000 0.19100  0.35760  0.13350  Biso   1.000  C
  C98      1.0000 0.80900  0.64240  0.63350  Biso   1.000  C
  C99      1.0000 0.69100  0.14240  0.63350  Biso   1.000  C
  C100     1.0000 0.30900  0.85760  0.13350  Biso   1.000  C
  C101     1.0000 0.86200  0.18760  0.70630  Biso   1.000  C
  C102     1.0000 0.13800  0.81240  0.20630  Biso   1.000  C
  C103     1.0000 0.36200  0.31240  0.20630  Biso   1.000  C
  C104     1.0000 0.63800  0.68760  0.70630  Biso   1.000  C
  C105     1.0000 0.15300  0.20590  0.04600  Biso   1.000  C
  C106     1.0000 0.84700  0.79410  0.54600  Biso   1.000  C
  C107     1.0000 0.65300  0.29410  0.54600  Biso   1.000  C
  C108     1.0000 0.34700  0.70590  0.04600  Biso   1.000  C
  C109     1.0000 0.96300  0.32900  0.72270  Biso   1.000  C
  C110     1.0000 0.03700  0.67100  0.22270  Biso   1.000  C
  C111     1.0000 0.46300  0.17100  0.22270  Biso   1.000  C
  C112     1.0000 0.53700  0.82900  0.72270  Biso   1.000  C
  C113     1.0000 0.31500  0.56290  0.70020  Biso   1.000  C
  C114     1.0000 0.68500  0.43710  0.20020  Biso   1.000  C
  C115     1.0000 0.81500  0.93710  0.20020  Biso   1.000  C
  C116     1.0000 0.18500  0.06290  0.70020  Biso   1.000  C
  C117     1.0000 0.18600  0.44600  0.67920  Biso   1.000  C
  C118     1.0000 0.81400  0.55400  0.17920  Biso   1.000  C
  C119     1.0000 0.68600  0.05400  0.17920  Biso   1.000  C
  C120     1.0000 0.31400  0.94600  0.67920  Biso   1.000  C
  C121     1.0000 0.85300  0.35630  0.93900  Biso   1.000  C
  C122     1.0000 0.14700  0.64370  0.43900  Biso   1.000  C
  C123     1.0000 0.35300  0.14370  0.43900  Biso   1.000  C
  C124     1.0000 0.64700  0.85630  0.93900  Biso   1.000  C
  C125     1.0000 0.52900  0.18410  0.10530  Biso   1.000  C
  C126     1.0000 0.47100  0.81590  0.60530  Biso   1.000  C
  C127     1.0000 0.02900  0.31590  0.60530  Biso   1.000  C
  C128     1.0000 0.97100  0.68410  0.10530  Biso   1.000  C
  S21      1.0000 0.20300  0.50780  0.23370  Biso   1.000  S
  S22      1.0000 0.79700  0.49220  0.73370  Biso   1.000  S
  S23      1.0000 0.70300  0.99220  0.73370  Biso   1.000  S
  S24      1.0000 0.29700  0.00780  0.23370  Biso   1.000  S
  C129     1.0000 0.18300  0.46390  0.27200  Biso   1.000  C
  C130     1.0000 0.81700  0.53610  0.77200  Biso   1.000  C
  C131     1.0000 0.68300  0.03610  0.77200  Biso   1.000  C
  C132     1.0000 0.31700  0.96390  0.27200  Biso   1.000  C
  O93      1.0000 0.89200  0.49930  0.39210  Biso   1.000  O
  O94      1.0000 0.10800  0.50070  0.89210  Biso   1.000  O
  O95      1.0000 0.39200  0.00070  0.89210  Biso   1.000  O
  O96      1.0000 0.60800  0.99930  0.39210  Biso   1.000  O
  O97      1.0000 0.87200  0.16480  0.47300  Biso   1.000  O
  O98      1.0000 0.12800  0.83520  0.97300  Biso   1.000  O
  O99      1.0000 0.37200  0.33520  0.97300  Biso   1.000  O
  O100     1.0000 0.62800  0.66480  0.47300  Biso   1.000  O
  C133     1.0000 0.42100  0.41020  0.11940  Biso   1.000  C
  C134     1.0000 0.57900  0.58980  0.61940  Biso   1.000  C
  C135     1.0000 0.92100  0.08980  0.61940  Biso   1.000  C
  C136     1.0000 0.07900  0.91020  0.11940  Biso   1.000  C
  C137     1.0000 0.47600  0.47310  0.12200  Biso   1.000  C
  C138     1.0000 0.52400  0.52690  0.62200  Biso   1.000  C
  C139     1.0000 0.97600  0.02690  0.62200  Biso   1.000  C
  C140     1.0000 0.02400  0.97310  0.12200  Biso   1.000  C
  C141     1.0000 0.70900  0.43090  0.10360  Biso   1.000  C
  C142     1.0000 0.29100  0.56910  0.60360  Biso   1.000  C
  C143     1.0000 0.20900  0.06910  0.60360  Biso   1.000  C
  C144     1.0000 0.79100  0.93090  0.10360  Biso   1.000  C
  C145     1.0000 0.52900  0.35940  0.11720  Biso   1.000  C
  C146     1.0000 0.47100  0.64060  0.61720  Biso   1.000  C
  C147     1.0000 0.02900  0.14060  0.61720  Biso   1.000  C
  C148     1.0000 0.97100  0.85940  0.11720  Biso   1.000  C
  C149     1.0000 0.62700  0.48950  0.11350  Biso   1.000  C
  C150     1.0000 0.37300  0.51050  0.61350  Biso   1.000  C
  C151     1.0000 0.12700  0.01050  0.61350  Biso   1.000  C
  C152     1.0000 0.87300  0.98950  0.11350  Biso   1.000  C
  C153     1.0000 0.67400  0.37450  0.10180  Biso   1.000  C
  C154     1.0000 0.32600  0.62550  0.60180  Biso   1.000  C
  C155     1.0000 0.17400  0.12550  0.60180  Biso   1.000  C
  C156     1.0000 0.82600  0.87450  0.10180  Biso   1.000  C
  C157     1.0000 0.35800  0.55700  0.24290  Biso   1.000  C
  C158     1.0000 0.64200  0.44300  0.74290  Biso   1.000  C
  C159     1.0000 0.85800  0.94300  0.74290  Biso   1.000  C
  C160     1.0000 0.14200  0.05700  0.24290  Biso   1.000  C
  O101     1.0000 0.91200  0.11200  0.97600  Biso   1.000  O
  O102     1.0000 0.08800  0.88800  0.47600  Biso   1.000  O
  O103     1.0000 0.41200  0.38800  0.47600  Biso   1.000  O
  O104     1.0000 0.58800  0.61200  0.97600  Biso   1.000  O
  C161     1.0000 0.75800  0.14600  0.06930  Biso   1.000  C
  C162     1.0000 0.24200  0.85400  0.56930  Biso   1.000  C
  C163     1.0000 0.25800  0.35400  0.56930  Biso   1.000  C
  C164     1.0000 0.74200  0.64600  0.06930  Biso   1.000  C
  C165     1.0000 0.70800  0.18400  0.90700  Biso   1.000  C
  C166     1.0000 0.29200  0.81600  0.40700  Biso   1.000  C
  C167     1.0000 0.20800  0.31600  0.40700  Biso   1.000  C
  C168     1.0000 0.79200  0.68400  0.90700  Biso   1.000  C
  O105     1.0000 0.30700  0.46980  0.20670  Biso   1.000  O
  O106     1.0000 0.69300  0.53020  0.70670  Biso   1.000  O
  O107     1.0000 0.80700  0.03020  0.70670  Biso   1.000  O
  O108     1.0000 0.19300  0.96980  0.20670  Biso   1.000  O
