data_image0
_cell_length_a       8.561
_cell_length_b       10.06
_cell_length_c       13.561
_cell_angle_alpha    90
_cell_angle_beta     99.628
_cell_angle_gamma    90

_symmetry_space_group_name_H-M    "P 1"
_symmetry_int_tables_number       1

loop_
  _symmetry_equiv_pos_as_xyz
  'x, y, z'

loop_
  _atom_site_label
  _atom_site_occupancy
  _atom_site_fract_x
  _atom_site_fract_y
  _atom_site_fract_z
  _atom_site_thermal_displace_type
  _atom_site_B_iso_or_equiv
  _atom_site_type_symbol
  Cu1      1.0000 0.67881  0.14337  0.77128  Biso   1.000  Cu
  Cu2      1.0000 0.32119  0.64337  0.72872  Biso   1.000  Cu
  Cu3      1.0000 0.32119  0.85663  0.22872  Biso   1.000  Cu
  Cu4      1.0000 0.67881  0.35663  0.27128  Biso   1.000  Cu
  O1       1.0000 0.23714  0.06824  0.63994  Biso   1.000  O
  O2       1.0000 0.76286  0.56824  0.86006  Biso   1.000  O
  O3       1.0000 0.76286  0.93176  0.36006  Biso   1.000  O
  O4       1.0000 0.23714  0.43176  0.13994  Biso   1.000  O
  O5       1.0000 0.49406  0.04509  0.69776  Biso   1.000  O
  O6       1.0000 0.50594  0.54509  0.80224  Biso   1.000  O
  O7       1.0000 0.50594  0.95491  0.30224  Biso   1.000  O
  O8       1.0000 0.49406  0.45491  0.19776  Biso   1.000  O
  O9       1.0000 0.62200  0.98643  0.91435  Biso   1.000  O
  O10      1.0000 0.37800  0.48643  0.58565  Biso   1.000  O
  O11      1.0000 0.37800  0.01357  0.08565  Biso   1.000  O
  O12      1.0000 0.62200  0.51357  0.41435  Biso   1.000  O
  O13      1.0000 0.64150  0.80333  0.99849  Biso   1.000  O
  O14      1.0000 0.35850  0.30333  0.50151  Biso   1.000  O
  O15      1.0000 0.35850  0.19667  0.00151  Biso   1.000  O
  O16      1.0000 0.64150  0.69667  0.49849  Biso   1.000  O
  O17      1.0000 0.80870  0.96153  0.04201  Biso   1.000  O
  O18      1.0000 0.19130  0.46153  0.45799  Biso   1.000  O
  O19      1.0000 0.19130  0.03847  0.95799  Biso   1.000  O
  O20      1.0000 0.80870  0.53847  0.54201  Biso   1.000  O
  O21      1.0000 0.65410  0.28678  0.63288  Biso   1.000  O
  O22      1.0000 0.34590  0.78678  0.86712  Biso   1.000  O
  O23      1.0000 0.34590  0.71322  0.36712  Biso   1.000  O
  O24      1.0000 0.65410  0.21322  0.13288  Biso   1.000  O
  N1       1.0000 0.86123  0.24289  0.85262  Biso   1.000  N
  N2       1.0000 0.13877  0.74289  0.64738  Biso   1.000  N
  N3       1.0000 0.13877  0.75711  0.14738  Biso   1.000  N
  N4       1.0000 0.86123  0.25711  0.35262  Biso   1.000  N
  N5       1.0000 0.17173  0.51443  0.78005  Biso   1.000  N
  N6       1.0000 0.82827  0.01443  0.71995  Biso   1.000  N
  N7       1.0000 0.82827  0.48557  0.21995  Biso   1.000  N
  N8       1.0000 0.17173  0.98557  0.28005  Biso   1.000  N
  N9       1.0000 0.28620  0.52950  0.94966  Biso   1.000  N
  N10      1.0000 0.71380  0.02950  0.55034  Biso   1.000  N
  N11      1.0000 0.71380  0.47050  0.05034  Biso   1.000  N
  N12      1.0000 0.28620  0.97050  0.44966  Biso   1.000  N
  N13      1.0000 0.95670  0.36583  0.71995  Biso   1.000  N
  N14      1.0000 0.04330  0.86583  0.78005  Biso   1.000  N
  N15      1.0000 0.04330  0.63417  0.28005  Biso   1.000  N
  N16      1.0000 0.95670  0.13417  0.21995  Biso   1.000  N
  N17      1.0000 0.03100  0.32446  0.98095  Biso   1.000  N
  N18      1.0000 0.96900  0.82446  0.51905  Biso   1.000  N
  N19      1.0000 0.96900  0.67554  0.01905  Biso   1.000  N
  N20      1.0000 0.03100  0.17554  0.48095  Biso   1.000  N
  N21      1.0000 0.69160  0.91790  0.98579  Biso   1.000  N
  N22      1.0000 0.30840  0.41790  0.51421  Biso   1.000  N
  N23      1.0000 0.30840  0.08210  0.01421  Biso   1.000  N
  N24      1.0000 0.69160  0.58210  0.48579  Biso   1.000  N
  N25      1.0000 0.51290  0.24793  0.82419  Biso   1.000  N
  N26      1.0000 0.48710  0.74793  0.67581  Biso   1.000  N
  N27      1.0000 0.48710  0.75207  0.17581  Biso   1.000  N
  N28      1.0000 0.51290  0.25207  0.32419  Biso   1.000  N
  C1       1.0000 0.06240  0.45720  0.70879  Biso   1.000  C
  C2       1.0000 0.93760  0.95720  0.79121  Biso   1.000  C
  C3       1.0000 0.93760  0.54280  0.29121  Biso   1.000  C
  C4       1.0000 0.06240  0.04280  0.20879  Biso   1.000  C
  C5       1.0000 0.17960  0.47710  0.87775  Biso   1.000  C
  C6       1.0000 0.82040  0.97710  0.62225  Biso   1.000  C
  C7       1.0000 0.82040  0.52290  0.12225  Biso   1.000  C
  C8       1.0000 0.17960  0.02290  0.37775  Biso   1.000  C
  C9       1.0000 0.06730  0.38140  0.89570  Biso   1.000  C
  C10      1.0000 0.93270  0.88140  0.60430  Biso   1.000  C
  C11      1.0000 0.93270  0.61860  0.10430  Biso   1.000  C
  C12      1.0000 0.06730  0.11860  0.39570  Biso   1.000  C
  C13      1.0000 0.96130  0.33060  0.81650  Biso   1.000  C
  C14      1.0000 0.03870  0.83060  0.68350  Biso   1.000  C
  C15      1.0000 0.03870  0.66940  0.18350  Biso   1.000  C
  C16      1.0000 0.96130  0.16940  0.31650  Biso   1.000  C
  C17      1.0000 0.90850  0.24210  0.95176  Biso   1.000  C
  C18      1.0000 0.09150  0.74210  0.54824  Biso   1.000  C
  C19      1.0000 0.09150  0.75790  0.04824  Biso   1.000  C
  C20      1.0000 0.90850  0.25790  0.45176  Biso   1.000  C
  C21      1.0000 0.35830  0.22570  0.75979  Biso   1.000  C
  C22      1.0000 0.64170  0.72570  0.74021  Biso   1.000  C
  C23      1.0000 0.64170  0.77430  0.24021  Biso   1.000  C
  C24      1.0000 0.35830  0.27430  0.25979  Biso   1.000  C
  C25      1.0000 0.36190  0.10400  0.69460  Biso   1.000  C
  C26      1.0000 0.63810  0.60400  0.80540  Biso   1.000  C
  C27      1.0000 0.63810  0.89600  0.30540  Biso   1.000  C
  C28      1.0000 0.36190  0.39600  0.19460  Biso   1.000  C
  H1       1.0000 0.86100  0.19200  0.99980  Biso   1.000  H
  H2       1.0000 0.13900  0.69200  0.50020  Biso   1.000  H
  H3       1.0000 0.13900  0.80800  0.00020  Biso   1.000  H
  H4       1.0000 0.86100  0.30800  0.49980  Biso   1.000  H
  H5       1.0000 0.07500  0.33600  0.03300  Biso   1.000  H
  H6       1.0000 0.92500  0.83600  0.46700  Biso   1.000  H
  H7       1.0000 0.92500  0.66400  0.96700  Biso   1.000  H
  H8       1.0000 0.07500  0.16400  0.53300  Biso   1.000  H
  H9       1.0000 0.28500  0.50400  0.00200  Biso   1.000  H
  H10      1.0000 0.71500  0.00400  0.49800  Biso   1.000  H
  H11      1.0000 0.71500  0.49600  0.99800  Biso   1.000  H
  H12      1.0000 0.28500  0.99600  0.50200  Biso   1.000  H
  H13      1.0000 0.33800  0.59300  0.93300  Biso   1.000  H
  H14      1.0000 0.66200  0.09300  0.56700  Biso   1.000  H
  H15      1.0000 0.66200  0.40700  0.06700  Biso   1.000  H
  H16      1.0000 0.33800  0.90700  0.43300  Biso   1.000  H
  H17      1.0000 0.06500  0.48500  0.64580  Biso   1.000  H
  H18      1.0000 0.93500  0.98500  0.85420  Biso   1.000  H
  H19      1.0000 0.93500  0.51500  0.35420  Biso   1.000  H
  H20      1.0000 0.06500  0.01500  0.14580  Biso   1.000  H
  H21      1.0000 0.53600  0.32200  0.82500  Biso   1.000  H
  H22      1.0000 0.46400  0.82200  0.67500  Biso   1.000  H
  H23      1.0000 0.46400  0.67800  0.17500  Biso   1.000  H
  H24      1.0000 0.53600  0.17800  0.32500  Biso   1.000  H
  H25      1.0000 0.50600  0.22300  0.88200  Biso   1.000  H
  H26      1.0000 0.49400  0.72300  0.61800  Biso   1.000  H
  H27      1.0000 0.49400  0.77700  0.11800  Biso   1.000  H
  H28      1.0000 0.50600  0.27700  0.38200  Biso   1.000  H
  H29      1.0000 0.33800  0.29600  0.71470  Biso   1.000  H
  H30      1.0000 0.66200  0.79600  0.78530  Biso   1.000  H
  H31      1.0000 0.66200  0.70400  0.28530  Biso   1.000  H
  H32      1.0000 0.33800  0.20400  0.21470  Biso   1.000  H
  H33      1.0000 0.27200  0.21600  0.79900  Biso   1.000  H
  H34      1.0000 0.72800  0.71600  0.70100  Biso   1.000  H
  H35      1.0000 0.72800  0.78400  0.20100  Biso   1.000  H
  H36      1.0000 0.27200  0.28400  0.29900  Biso   1.000  H
  H37      1.0000 0.58500  0.32900  0.60500  Biso   1.000  H
  H38      1.0000 0.41500  0.82900  0.89500  Biso   1.000  H
  H39      1.0000 0.41500  0.67100  0.39500  Biso   1.000  H
  H40      1.0000 0.58500  0.17100  0.10500  Biso   1.000  H
  H41      1.0000 0.73100  0.32600  0.64400  Biso   1.000  H
  H42      1.0000 0.26900  0.82600  0.85600  Biso   1.000  H
  H43      1.0000 0.26900  0.67400  0.35600  Biso   1.000  H
  H44      1.0000 0.73100  0.17400  0.14400  Biso   1.000  H
