data_image0
_cell_length_a       10.0987
_cell_length_b       16.7006
_cell_length_c       11.3692
_cell_angle_alpha    90
_cell_angle_beta     116.365
_cell_angle_gamma    90

_symmetry_space_group_name_H-M    "P 1"
_symmetry_int_tables_number       1

loop_
  _symmetry_equiv_pos_as_xyz
  'x, y, z'

loop_
  _atom_site_label
  _atom_site_occupancy
  _atom_site_fract_x
  _atom_site_fract_y
  _atom_site_fract_z
  _atom_site_thermal_displace_type
  _atom_site_B_iso_or_equiv
  _atom_site_type_symbol
  Sm1      1.0000 0.15887  0.73863  0.78856  Biso   1.000  Sm
  Sm2      1.0000 0.84113  0.23863  0.21144  Biso   1.000  Sm
  Sm3      1.0000 0.85017  0.76989  0.16850  Biso   1.000  Sm
  Sm4      1.0000 0.14983  0.26989  0.83150  Biso   1.000  Sm
  O1       1.0000 0.91960  0.83890  0.00820  Biso   1.000  O
  O2       1.0000 0.08040  0.33890  0.99180  Biso   1.000  O
  O3       1.0000 0.99360  0.68850  0.09200  Biso   1.000  O
  O4       1.0000 0.00640  0.18850  0.90800  Biso   1.000  O
  O5       1.0000 0.01180  0.82140  0.86310  Biso   1.000  O
  O6       1.0000 0.98820  0.32140  0.13690  Biso   1.000  O
  O7       1.0000 0.08810  0.67100  0.95050  Biso   1.000  O
  O8       1.0000 0.91190  0.17100  0.04950  Biso   1.000  O
  O9       1.0000 0.35190  0.76790  0.01210  Biso   1.000  O
  O10      1.0000 0.64810  0.26790  0.98790  Biso   1.000  O
  O11      1.0000 0.41390  0.73090  0.81260  Biso   1.000  O
  O12      1.0000 0.58610  0.23090  0.18740  Biso   1.000  O
  O13      1.0000 0.65690  0.74360  0.94680  Biso   1.000  O
  O14      1.0000 0.34310  0.24360  0.05320  Biso   1.000  O
  O15      1.0000 0.59260  0.77820  0.14530  Biso   1.000  O
  O16      1.0000 0.40740  0.27820  0.85470  Biso   1.000  O
  O17      1.0000 0.96710  0.80380  0.59460  Biso   1.000  O
  O18      1.0000 0.03290  0.30380  0.40540  Biso   1.000  O
  O19      1.0000 0.16180  0.69930  0.58120  Biso   1.000  O
  O20      1.0000 0.83820  0.19930  0.41880  Biso   1.000  O
  O21      1.0000 0.84610  0.80610  0.37640  Biso   1.000  O
  O22      1.0000 0.15390  0.30610  0.62360  Biso   1.000  O
  O23      1.0000 0.04240  0.70320  0.36160  Biso   1.000  O
  O24      1.0000 0.95760  0.20320  0.63840  Biso   1.000  O
  O25      1.0000 0.93550  0.64610  0.66930  Biso   1.000  O
  O26      1.0000 0.06450  0.14610  0.33070  Biso   1.000  O
  O27      1.0000 0.22970  0.59330  0.81800  Biso   1.000  O
  O28      1.0000 0.77030  0.09330  0.18200  Biso   1.000  O
  O29      1.0000 0.22280  0.41320  0.85090  Biso   1.000  O
  O30      1.0000 0.77720  0.91320  0.14910  Biso   1.000  O
  O31      1.0000 0.92520  0.36250  0.71070  Biso   1.000  O
  O32      1.0000 0.07480  0.86250  0.28930  Biso   1.000  O
  O33      1.0000 0.73580  0.50560  0.59680  Biso   1.000  O
  O34      1.0000 0.26420  0.00560  0.40320  Biso   1.000  O
  O35      1.0000 0.23450  0.87470  0.76320  Biso   1.000  O
  O36      1.0000 0.76550  0.37470  0.23680  Biso   1.000  O
  H1       1.0000 0.17160  0.91130  0.74120  Biso   1.000  H
  H2       1.0000 0.82840  0.41130  0.25880  Biso   1.000  H
  H3       1.0000 0.31210  0.90100  0.80700  Biso   1.000  H
  H4       1.0000 0.68790  0.40100  0.19300  Biso   1.000  H
  O37      1.0000 0.77000  0.63430  0.18770  Biso   1.000  O
  O38      1.0000 0.23000  0.13430  0.81230  Biso   1.000  O
  H5       1.0000 0.81360  0.60090  0.22040  Biso   1.000  H
  H6       1.0000 0.18640  0.10090  0.77960  Biso   1.000  H
  H7       1.0000 0.68190  0.61240  0.14230  Biso   1.000  H
  H8       1.0000 0.31810  0.11240  0.85770  Biso   1.000  H
  C1       1.0000 0.98150  0.79820  0.95190  Biso   1.000  C
  C2       1.0000 0.01850  0.29820  0.04810  Biso   1.000  C
  C3       1.0000 0.02420  0.71130  0.00190  Biso   1.000  C
  C4       1.0000 0.97580  0.21130  0.99810  Biso   1.000  C
  C5       1.0000 0.48590  0.76580  0.03710  Biso   1.000  C
  C6       1.0000 0.51410  0.26580  0.96290  Biso   1.000  C
  C7       1.0000 0.52350  0.74520  0.92220  Biso   1.000  C
  C8       1.0000 0.47650  0.24520  0.07780  Biso   1.000  C
  C9       1.0000 0.06030  0.72290  0.47410  Biso   1.000  C
  C10      1.0000 0.93970  0.22290  0.52590  Biso   1.000  C
  C11      1.0000 0.94820  0.78320  0.48290  Biso   1.000  C
  C12      1.0000 0.05180  0.28320  0.51710  Biso   1.000  C
  C13      1.0000 0.97030  0.57430  0.69650  Biso   1.000  C
  C14      1.0000 0.02970  0.07430  0.30350  Biso   1.000  C
  C15      1.0000 0.12150  0.54640  0.77460  Biso   1.000  C
  C16      1.0000 0.87850  0.04640  0.22540  Biso   1.000  C
  C17      1.0000 0.11770  0.46150  0.78930  Biso   1.000  C
  C18      1.0000 0.88230  0.96150  0.21070  Biso   1.000  C
  C19      1.0000 0.96430  0.43500  0.71800  Biso   1.000  C
  C20      1.0000 0.03570  0.93500  0.28200  Biso   1.000  C
  C21      1.0000 0.86930  0.50400  0.66000  Biso   1.000  C
  C22      1.0000 0.13070  0.00400  0.34000  Biso   1.000  C
  Cu1      1.0000 0.50164  0.74116  0.47170  Biso   1.000  Cu
  Cu2      1.0000 0.49836  0.24116  0.52830  Biso   1.000  Cu
  N1       1.0000 0.61220  0.67240  0.39960  Biso   1.000  N
  N2       1.0000 0.38780  0.17240  0.60040  Biso   1.000  N
  H9       1.0000 0.64790  0.70410  0.35390  Biso   1.000  H
  H10      1.0000 0.35210  0.20410  0.64610  Biso   1.000  H
  H11      1.0000 0.69170  0.64920  0.46810  Biso   1.000  H
  H12      1.0000 0.30830  0.14920  0.53190  Biso   1.000  H
  N3       1.0000 0.33800  0.65800  0.38510  Biso   1.000  N
  N4       1.0000 0.66200  0.15800  0.61490  Biso   1.000  N
  H13      1.0000 0.34310  0.61830  0.44290  Biso   1.000  H
  H14      1.0000 0.65690  0.11830  0.55710  Biso   1.000  H
  H15      1.0000 0.24610  0.68100  0.34970  Biso   1.000  H
  H16      1.0000 0.75390  0.18100  0.65030  Biso   1.000  H
  N5       1.0000 0.39030  0.81340  0.53950  Biso   1.000  N
  N6       1.0000 0.60970  0.31340  0.46050  Biso   1.000  N
  H17      1.0000 0.30530  0.83180  0.47060  Biso   1.000  H
  H18      1.0000 0.69470  0.33180  0.52940  Biso   1.000  H
  H19      1.0000 0.36420  0.78540  0.59570  Biso   1.000  H
  H20      1.0000 0.63580  0.28540  0.40430  Biso   1.000  H
  N7       1.0000 0.67720  0.79480  0.60010  Biso   1.000  N
  N8       1.0000 0.32280  0.29480  0.39990  Biso   1.000  N
  H21      1.0000 0.74730  0.75750  0.64850  Biso   1.000  H
  H22      1.0000 0.25270  0.25750  0.35150  Biso   1.000  H
  H23      1.0000 0.71640  0.82720  0.55800  Biso   1.000  H
  H24      1.0000 0.28360  0.32720  0.44200  Biso   1.000  H
  C23      1.0000 0.51900  0.60990  0.31310  Biso   1.000  C
  C24      1.0000 0.48100  0.10990  0.68690  Biso   1.000  C
  H25      1.0000 0.53920  0.60510  0.23580  Biso   1.000  H
  H26      1.0000 0.46080  0.10510  0.76420  Biso   1.000  H
  H27      1.0000 0.54350  0.55800  0.36020  Biso   1.000  H
  H28      1.0000 0.45650  0.05800  0.63980  Biso   1.000  H
  C25      1.0000 0.38000  0.62530  0.27400  Biso   1.000  C
  C26      1.0000 0.62000  0.12530  0.72600  Biso   1.000  C
  H29      1.0000 0.32310  0.57570  0.23690  Biso   1.000  H
  H30      1.0000 0.67690  0.07570  0.76310  Biso   1.000  H
  H31      1.0000 0.34900  0.66540  0.20270  Biso   1.000  H
  H32      1.0000 0.65100  0.16540  0.79730  Biso   1.000  H
  C27      1.0000 0.48240  0.87880  0.60630  Biso   1.000  C
  C28      1.0000 0.51760  0.37880  0.39370  Biso   1.000  C
  H33      1.0000 0.44450  0.90590  0.66270  Biso   1.000  H
  H34      1.0000 0.55550  0.40590  0.33730  Biso   1.000  H
  H35      1.0000 0.48570  0.91830  0.54260  Biso   1.000  H
  H36      1.0000 0.51430  0.41830  0.45740  Biso   1.000  H
  C29      1.0000 0.63600  0.84450  0.68900  Biso   1.000  C
  C30      1.0000 0.36400  0.34450  0.31100  Biso   1.000  C
  H37      1.0000 0.70810  0.88840  0.72920  Biso   1.000  H
  H38      1.0000 0.29190  0.38840  0.27080  Biso   1.000  H
  H39      1.0000 0.63510  0.81090  0.76090  Biso   1.000  H
  H40      1.0000 0.36490  0.31090  0.23910  Biso   1.000  H
  O39      1.0000 0.55320  0.64600  0.65480  Biso   1.000  O
  O40      1.0000 0.44680  0.14600  0.34520  Biso   1.000  O
  H41      1.0000 0.63800  0.67610  0.69170  Biso   1.000  H
  H42      1.0000 0.36200  0.17610  0.30830  Biso   1.000  H
  H43      1.0000 0.53060  0.64290  0.71810  Biso   1.000  H
  H44      1.0000 0.46940  0.14290  0.28190  Biso   1.000  H
  N9       1.0000 0.31500  0.67900  0.33700  Biso   1.000  N
  N10      1.0000 0.68500  0.17900  0.66300  Biso   1.000  N
  H45      1.0000 0.23970  0.67890  0.36150  Biso   1.000  H
  H46      1.0000 0.76030  0.17890  0.63850  Biso   1.000  H
  H47      1.0000 0.28150  0.69900  0.25320  Biso   1.000  H
  H48      1.0000 0.71850  0.19900  0.74680  Biso   1.000  H
  N11      1.0000 0.65400  0.83020  0.54700  Biso   1.000  N
  N12      1.0000 0.34600  0.33020  0.45300  Biso   1.000  N
  H49      1.0000 0.74760  0.81070  0.56980  Biso   1.000  H
  H50      1.0000 0.25240  0.31070  0.43020  Biso   1.000  H
  H51      1.0000 0.63490  0.87050  0.48650  Biso   1.000  H
  H52      1.0000 0.36510  0.37050  0.51350  Biso   1.000  H
  H53      1.0000 0.46120  0.89610  0.68120  Biso   1.000  H
  H54      1.0000 0.53880  0.39610  0.31880  Biso   1.000  H
  H55      1.0000 0.45940  0.92690  0.54720  Biso   1.000  H
  H56      1.0000 0.54060  0.42690  0.45280  Biso   1.000  H
  C31      1.0000 0.39600  0.59100  0.35500  Biso   1.000  C
  C32      1.0000 0.60400  0.09100  0.64500  Biso   1.000  C
  H57      1.0000 0.43810  0.57200  0.44760  Biso   1.000  H
  H58      1.0000 0.56190  0.07200  0.55240  Biso   1.000  H
  H59      1.0000 0.32650  0.54980  0.29760  Biso   1.000  H
  H60      1.0000 0.67350  0.04980  0.70240  Biso   1.000  H
  H61      1.0000 0.46140  0.89440  0.68040  Biso   1.000  H
  H62      1.0000 0.53860  0.39440  0.31960  Biso   1.000  H
  H63      1.0000 0.45970  0.92530  0.54630  Biso   1.000  H
  H64      1.0000 0.54030  0.42530  0.45370  Biso   1.000  H
  C33      1.0000 0.64400  0.86000  0.66100  Biso   1.000  C
  C34      1.0000 0.35600  0.36000  0.33900  Biso   1.000  C
  H65      1.0000 0.70530  0.90820  0.69600  Biso   1.000  H
  H66      1.0000 0.29470  0.40820  0.30400  Biso   1.000  H
  H67      1.0000 0.67360  0.81860  0.73030  Biso   1.000  H
  H68      1.0000 0.32640  0.31860  0.26970  Biso   1.000  H
  O41      1.0000 0.33600  0.84050  0.23140  Biso   1.000  O
  O42      1.0000 0.66400  0.34050  0.76860  Biso   1.000  O
  H69      1.0000 0.24800  0.82560  0.21240  Biso   1.000  H
  H70      1.0000 0.75200  0.32560  0.78760  Biso   1.000  H
  H71      1.0000 0.36490  0.82080  0.17730  Biso   1.000  H
  H72      1.0000 0.63510  0.32080  0.82270  Biso   1.000  H
  O43      1.0000 0.59780  0.92910  0.31850  Biso   1.000  O
  O44      1.0000 0.40220  0.42910  0.68150  Biso   1.000  O
  H73      1.0000 0.51580  0.90790  0.31000  Biso   1.000  H
  H74      1.0000 0.48420  0.40790  0.69000  Biso   1.000  H
  H75      1.0000 0.64180  0.92420  0.26940  Biso   1.000  H
  H76      1.0000 0.35820  0.42420  0.73060  Biso   1.000  H
  O45      1.0000 0.02830  0.50480  0.05370  Biso   1.000  O
  O46      1.0000 0.97170  0.00480  0.94630  Biso   1.000  O
  H77      1.0000 0.07600  0.50190  0.13750  Biso   1.000  H
  H78      1.0000 0.92400  0.00190  0.86250  Biso   1.000  H
  H79      1.0000 0.96260  0.54270  0.03580  Biso   1.000  H
  H80      1.0000 0.03740  0.04270  0.96420  Biso   1.000  H
  O47      1.0000 0.48590  0.43750  0.10080  Biso   1.000  O
  O48      1.0000 0.51410  0.93750  0.89920  Biso   1.000  O
  H81      1.0000 0.40410  0.41570  0.10380  Biso   1.000  H
  H82      1.0000 0.59590  0.91570  0.89620  Biso   1.000  H
  H83      1.0000 0.49030  0.41750  0.03420  Biso   1.000  H
  H84      1.0000 0.50970  0.91750  0.96580  Biso   1.000  H
  O49      1.0000 0.20980  0.53510  0.51210  Biso   1.000  O
  O50      1.0000 0.79020  0.03510  0.48790  Biso   1.000  O
  H85      1.0000 0.20380  0.47980  0.50900  Biso   1.000  H
  H86      1.0000 0.79620  0.97980  0.49100  Biso   1.000  H
  H87      1.0000 0.27530  0.55100  0.58730  Biso   1.000  H
  H88      1.0000 0.72470  0.05100  0.41270  Biso   1.000  H
  O51      1.0000 0.53720  0.56210  0.97140  Biso   1.000  O
  O52      1.0000 0.46280  0.06210  0.02860  Biso   1.000  O
  H89      1.0000 0.45500  0.58120  0.91630  Biso   1.000  H
  H90      1.0000 0.54500  0.08120  0.08370  Biso   1.000  H
  H91      1.0000 0.52780  0.53470  0.03010  Biso   1.000  H
  H92      1.0000 0.47220  0.03470  0.96990  Biso   1.000  H
  O53      1.0000 0.95430  0.50300  0.27190  Biso   1.000  O
  O54      1.0000 0.04570  0.00300  0.72810  Biso   1.000  O
  H93      1.0000 0.03790  0.52560  0.30890  Biso   1.000  H
  H94      1.0000 0.96210  0.02560  0.69110  Biso   1.000  H
  H95      1.0000 0.92800  0.49590  0.19060  Biso   1.000  H
  H96      1.0000 0.07200  0.99590  0.80940  Biso   1.000  H
