data_image0
_cell_length_a       15.312
_cell_length_b       15.885
_cell_length_c       17.816
_cell_angle_alpha    65.59
_cell_angle_beta     81.2
_cell_angle_gamma    64.94

_symmetry_space_group_name_H-M    "P 1"
_symmetry_int_tables_number       1

loop_
  _symmetry_equiv_pos_as_xyz
  'x, y, z'

loop_
  _atom_site_label
  _atom_site_occupancy
  _atom_site_fract_x
  _atom_site_fract_y
  _atom_site_fract_z
  _atom_site_thermal_displace_type
  _atom_site_B_iso_or_equiv
  _atom_site_type_symbol
  Cu1      1.0000 0.32630  0.22496  0.82870  Biso   1.000  Cu
  Cu2      1.0000 0.67370  0.77504  0.17130  Biso   1.000  Cu
  Cu3      1.0000 0.16871  0.27727  0.65435  Biso   1.000  Cu
  Cu4      1.0000 0.83129  0.72273  0.34565  Biso   1.000  Cu
  O1       1.0000 0.35380  0.31620  0.71760  Biso   1.000  O
  O2       1.0000 0.64620  0.68380  0.28240  Biso   1.000  O
  O3       1.0000 0.26310  0.34840  0.61320  Biso   1.000  O
  O4       1.0000 0.73690  0.65160  0.38680  Biso   1.000  O
  O5       1.0000 0.30120  0.56510  0.62040  Biso   1.000  O
  O6       1.0000 0.69880  0.43490  0.37960  Biso   1.000  O
  O7       1.0000 0.96890  0.65730  0.84010  Biso   1.000  O
  O8       1.0000 0.03110  0.34270  0.15990  Biso   1.000  O
  O9       1.0000 0.76620  0.67560  0.12300  Biso   1.000  O
  O10      1.0000 0.23380  0.32440  0.87700  Biso   1.000  O
  O11      1.0000 0.74820  0.82370  0.02340  Biso   1.000  O
  O12      1.0000 0.25180  0.17630  0.97660  Biso   1.000  O
  O13      1.0000 0.21590  0.20970  0.78630  Biso   1.000  O
  O14      1.0000 0.78410  0.79030  0.21370  Biso   1.000  O
  O15      1.0000 0.10570  0.17920  0.75150  Biso   1.000  O
  O16      1.0000 0.89430  0.82080  0.24850  Biso   1.000  O
  O17      1.0000 0.21660  0.92590  0.88050  Biso   1.000  O
  O18      1.0000 0.78340  0.07410  0.11950  Biso   1.000  O
  O19      1.0000 0.49410  0.86050  0.63810  Biso   1.000  O
  O20      1.0000 0.50590  0.13950  0.36190  Biso   1.000  O
  O21      1.0000 0.73240  0.83160  0.38140  Biso   1.000  O
  O22      1.0000 0.26760  0.16840  0.61860  Biso   1.000  O
  O23      1.0000 0.75880  0.75170  0.51780  Biso   1.000  O
  O24      1.0000 0.24120  0.24830  0.48220  Biso   1.000  O
  N1       1.0000 0.42440  0.53240  0.69820  Biso   1.000  N
  N2       1.0000 0.57560  0.46760  0.30180  Biso   1.000  N
  N3       1.0000 0.07640  0.63160  0.92960  Biso   1.000  N
  N4       1.0000 0.92360  0.36840  0.07040  Biso   1.000  N
  N5       1.0000 0.08060  0.96770  0.81530  Biso   1.000  N
  N6       1.0000 0.91940  0.03230  0.18470  Biso   1.000  N
  N7       1.0000 0.38730  0.88120  0.55130  Biso   1.000  N
  N8       1.0000 0.61270  0.11880  0.44870  Biso   1.000  N
  N9       1.0000 0.42880  0.08480  0.82660  Biso   1.000  N
  N10      1.0000 0.57120  0.91520  0.17340  Biso   1.000  N
  N11      1.0000 0.44550  0.18940  0.90310  Biso   1.000  N
  N12      1.0000 0.55450  0.81060  0.09690  Biso   1.000  N
  N13      1.0000 0.06690  0.41160  0.66850  Biso   1.000  N
  N14      1.0000 0.93310  0.58840  0.33150  Biso   1.000  N
  N15      1.0000 0.04770  0.32240  0.57940  Biso   1.000  N
  N16      1.0000 0.95230  0.67760  0.42060  Biso   1.000  N
  C1       1.0000 0.33110  0.35050  0.64340  Biso   1.000  C
  C2       1.0000 0.66890  0.64950  0.35660  Biso   1.000  C
  C3       1.0000 0.39470  0.39640  0.58120  Biso   1.000  C
  C4       1.0000 0.60530  0.60360  0.41880  Biso   1.000  C
  H1       1.0000 0.43960  0.34670  0.56030  Biso   1.000  H
  H2       1.0000 0.56040  0.65330  0.43970  Biso   1.000  H
  H3       1.0000 0.35440  0.45330  0.53510  Biso   1.000  H
  H4       1.0000 0.64560  0.54670  0.46490  Biso   1.000  H
  C5       1.0000 0.45140  0.43190  0.61510  Biso   1.000  C
  C6       1.0000 0.54860  0.56810  0.38490  Biso   1.000  C
  H5       1.0000 0.49250  0.45660  0.57250  Biso   1.000  H
  H6       1.0000 0.50750  0.54340  0.42750  Biso   1.000  H
  H7       1.0000 0.49260  0.37530  0.66070  Biso   1.000  H
  H8       1.0000 0.50740  0.62470  0.33930  Biso   1.000  H
  C7       1.0000 0.38600  0.51510  0.64440  Biso   1.000  C
  C8       1.0000 0.61400  0.48490  0.35560  Biso   1.000  C
  C9       1.0000 0.35620  0.59840  0.73840  Biso   1.000  C
  C10      1.0000 0.64380  0.40160  0.26160  Biso   1.000  C
  H9       1.0000 0.31210  0.65900  0.69700  Biso   1.000  H
  H10      1.0000 0.68790  0.34100  0.30300  Biso   1.000  H
  H11      1.0000 0.39160  0.61840  0.76380  Biso   1.000  H
  H12      1.0000 0.60840  0.38160  0.23620  Biso   1.000  H
  C11      1.0000 0.29810  0.54610  0.80440  Biso   1.000  C
  C12      1.0000 0.70190  0.45390  0.19560  Biso   1.000  C
  H13      1.0000 0.27430  0.51310  0.78210  Biso   1.000  H
  H14      1.0000 0.72570  0.48690  0.21790  Biso   1.000  H
  H15      1.0000 0.34030  0.49450  0.85140  Biso   1.000  H
  H16      1.0000 0.65970  0.50550  0.14860  Biso   1.000  H
  C13      1.0000 0.21340  0.61910  0.83300  Biso   1.000  C
  C14      1.0000 0.78660  0.38090  0.16700  Biso   1.000  C
  H17      1.0000 0.17090  0.67100  0.78630  Biso   1.000  H
  H18      1.0000 0.82910  0.32900  0.21370  Biso   1.000  H
  H19      1.0000 0.23670  0.65160  0.85620  Biso   1.000  H
  H20      1.0000 0.76330  0.34840  0.14380  Biso   1.000  H
  C15      1.0000 0.15800  0.56400  0.89740  Biso   1.000  C
  C16      1.0000 0.84200  0.43600  0.10260  Biso   1.000  C
  H21      1.0000 0.13350  0.53340  0.87320  Biso   1.000  H
  H22      1.0000 0.86650  0.46660  0.12680  Biso   1.000  H
  H23      1.0000 0.20170  0.51030  0.94280  Biso   1.000  H
  H24      1.0000 0.79830  0.48970  0.05720  Biso   1.000  H
  C17      1.0000 0.98590  0.67360  0.89740  Biso   1.000  C
  C18      1.0000 0.01410  0.32640  0.10260  Biso   1.000  C
  C19      1.0000 0.90490  0.73780  0.93640  Biso   1.000  C
  C20      1.0000 0.09510  0.26220  0.06360  Biso   1.000  C
  H25      1.0000 0.93020  0.76880  0.95960  Biso   1.000  H
  H26      1.0000 0.06980  0.23120  0.04040  Biso   1.000  H
  H27      1.0000 0.85630  0.79120  0.89460  Biso   1.000  H
  H28      1.0000 0.14370  0.20880  0.10540  Biso   1.000  H
  C21      1.0000 0.85920  0.67330  0.00410  Biso   1.000  C
  C22      1.0000 0.14080  0.32670  0.99590  Biso   1.000  C
  H29      1.0000 0.90960  0.61520  0.04180  Biso   1.000  H
  H30      1.0000 0.09040  0.38480  0.95820  Biso   1.000  H
  H31      1.0000 0.82780  0.64870  0.97950  Biso   1.000  H
  H32      1.0000 0.17220  0.35130  0.02050  Biso   1.000  H
  C23      1.0000 0.78610  0.72970  0.05240  Biso   1.000  C
  C24      1.0000 0.21390  0.27030  0.94760  Biso   1.000  C
  C25      1.0000 0.52420  0.48080  0.72360  Biso   1.000  C
  C26      1.0000 0.47580  0.51920  0.27640  Biso   1.000  C
  C27      1.0000 0.55380  0.41040  0.80280  Biso   1.000  C
  C28      1.0000 0.44620  0.58960  0.19720  Biso   1.000  C
  H33      1.0000 0.50790  0.39660  0.84100  Biso   1.000  H
  H34      1.0000 0.49210  0.60340  0.15900  Biso   1.000  H
  C29      1.0000 0.64920  0.36050  0.82620  Biso   1.000  C
  C30      1.0000 0.35080  0.63950  0.17380  Biso   1.000  C
  H35      1.0000 0.66680  0.31380  0.88000  Biso   1.000  H
  H36      1.0000 0.33320  0.68620  0.12000  Biso   1.000  H
  C31      1.0000 0.72100  0.37810  0.77100  Biso   1.000  C
  C32      1.0000 0.27900  0.62190  0.22900  Biso   1.000  C
  C33      1.0000 0.69150  0.44970  0.69250  Biso   1.000  C
  C34      1.0000 0.30850  0.55030  0.30750  Biso   1.000  C
  H37      1.0000 0.73750  0.46380  0.65460  Biso   1.000  H
  H38      1.0000 0.26250  0.53620  0.34540  Biso   1.000  H
  C35      1.0000 0.59360  0.50160  0.66870  Biso   1.000  C
  C36      1.0000 0.40640  0.49840  0.33130  Biso   1.000  C
  H39      1.0000 0.57530  0.55040  0.61560  Biso   1.000  H
  H40      1.0000 0.42470  0.44960  0.38440  Biso   1.000  H
  C37      1.0000 0.82610  0.31600  0.79770  Biso   1.000  C
  C38      1.0000 0.17390  0.68400  0.20230  Biso   1.000  C
  H41      1.0000 0.86580  0.33520  0.75130  Biso   1.000  H
  H42      1.0000 0.13420  0.66480  0.24870  Biso   1.000  H
  H43      1.0000 0.84000  0.24540  0.81340  Biso   1.000  H
  H44      1.0000 0.16000  0.75460  0.18660  Biso   1.000  H
  C39      1.0000 0.85310  0.32930  0.86940  Biso   1.000  C
  C40      1.0000 0.14690  0.67070  0.13060  Biso   1.000  C
  C41      1.0000 0.86720  0.41470  0.85700  Biso   1.000  C
  C42      1.0000 0.13280  0.58530  0.14300  Biso   1.000  C
  H45      1.0000 0.80860  0.47260  0.83090  Biso   1.000  H
  H46      1.0000 0.19140  0.52740  0.16910  Biso   1.000  H
  H47      1.0000 0.91780  0.41820  0.81720  Biso   1.000  H
  H48      1.0000 0.08220  0.58180  0.18280  Biso   1.000  H
  C43      1.0000 0.89090  0.42760  0.92320  Biso   1.000  C
  C44      1.0000 0.10910  0.57240  0.07680  Biso   1.000  C
  H49      1.0000 0.90010  0.48520  0.91420  Biso   1.000  H
  H50      1.0000 0.09990  0.51480  0.08580  Biso   1.000  H
  C45      1.0000 0.09930  0.64550  0.99810  Biso   1.000  C
  C46      1.0000 0.90070  0.35450  0.00190  Biso   1.000  C
  C47      1.0000 0.11680  0.72980  0.98480  Biso   1.000  C
  C48      1.0000 0.88320  0.27020  0.01520  Biso   1.000  C
  H51      1.0000 0.11320  0.77770  0.93160  Biso   1.000  H
  H52      1.0000 0.88680  0.22230  0.06840  Biso   1.000  H
  C49      1.0000 0.86040  0.25740  0.94920  Biso   1.000  C
  C50      1.0000 0.13960  0.74260  0.05080  Biso   1.000  C
  H53      1.0000 0.84990  0.20040  0.95840  Biso   1.000  H
  H54      1.0000 0.15010  0.79960  0.04160  Biso   1.000  H
  C51      1.0000 0.15410  0.17120  0.80560  Biso   1.000  C
  C52      1.0000 0.84590  0.82880  0.19440  Biso   1.000  C
  C53      1.0000 0.13610  0.11510  0.89620  Biso   1.000  C
  C54      1.0000 0.86390  0.88490  0.10380  Biso   1.000  C
  H55      1.0000 0.19740  0.06980  0.92550  Biso   1.000  H
  H56      1.0000 0.80260  0.93020  0.07450  Biso   1.000  H
  H57      1.0000 0.10180  0.16350  0.92150  Biso   1.000  H
  H58      1.0000 0.89820  0.83650  0.07850  Biso   1.000  H
  C55      1.0000 0.07720  0.05430  0.90400  Biso   1.000  C
  C56      1.0000 0.92280  0.94570  0.09600  Biso   1.000  C
  H59      1.0000 0.06700  0.01980  0.96180  Biso   1.000  H
  H60      1.0000 0.93300  0.98020  0.03820  Biso   1.000  H
  H61      1.0000 0.01460  0.09970  0.87680  Biso   1.000  H
  H62      1.0000 0.98540  0.90030  0.12320  Biso   1.000  H
  C57      1.0000 0.12990  0.97790  0.86520  Biso   1.000  C
  C58      1.0000 0.87010  0.02210  0.13480  Biso   1.000  C
  C59      1.0000 0.13710  0.90330  0.76830  Biso   1.000  C
  C60      1.0000 0.86290  0.09670  0.23170  Biso   1.000  C
  H63      1.0000 0.09470  0.88320  0.75060  Biso   1.000  H
  H64      1.0000 0.90530  0.11680  0.24940  Biso   1.000  H
  H65      1.0000 0.18720  0.84270  0.80410  Biso   1.000  H
  H66      1.0000 0.81280  0.15730  0.19590  Biso   1.000  H
  C61      1.0000 0.18260  0.95830  0.69340  Biso   1.000  C
  C62      1.0000 0.81740  0.04170  0.30660  Biso   1.000  C
  H67      1.0000 0.21340  0.99090  0.70930  Biso   1.000  H
  H68      1.0000 0.78660  0.00910  0.29070  Biso   1.000  H
  H69      1.0000 0.13250  0.01040  0.65240  Biso   1.000  H
  H70      1.0000 0.86750  0.98960  0.34760  Biso   1.000  H
  C63      1.0000 0.25690  0.88800  0.65530  Biso   1.000  C
  C64      1.0000 0.74310  0.11200  0.34470  Biso   1.000  C
  H71      1.0000 0.22540  0.86030  0.63420  Biso   1.000  H
  H72      1.0000 0.77460  0.13970  0.36580  Biso   1.000  H
  H73      1.0000 0.30440  0.83250  0.69710  Biso   1.000  H
  H74      1.0000 0.69560  0.16750  0.30290  Biso   1.000  H
  C65      1.0000 0.30650  0.94530  0.58560  Biso   1.000  C
  C66      1.0000 0.69350  0.05470  0.41440  Biso   1.000  C
  H75      1.0000 0.25930  0.99600  0.54170  Biso   1.000  H
  H76      1.0000 0.74070  0.00400  0.45830  Biso   1.000  H
  H77      1.0000 0.33020  0.98010  0.60580  Biso   1.000  H
  H78      1.0000 0.66980  0.01990  0.39420  Biso   1.000  H
  C67      1.0000 0.47770  0.84470  0.57950  Biso   1.000  C
  C68      1.0000 0.52230  0.15530  0.42050  Biso   1.000  C
  C69      1.0000 0.55900  0.79000  0.53650  Biso   1.000  C
  C70      1.0000 0.44100  0.21000  0.46350  Biso   1.000  C
  H79      1.0000 0.53620  0.76040  0.50980  Biso   1.000  H
  H80      1.0000 0.46380  0.23960  0.49020  Biso   1.000  H
  H81      1.0000 0.60940  0.73580  0.57640  Biso   1.000  H
  H82      1.0000 0.39060  0.26420  0.42360  Biso   1.000  H
  C71      1.0000 0.60030  0.86360  0.47110  Biso   1.000  C
  C72      1.0000 0.39970  0.13640  0.52890  Biso   1.000  C
  H83      1.0000 0.59370  0.91530  0.48990  Biso   1.000  H
  H84      1.0000 0.40630  0.08470  0.51010  Biso   1.000  H
  H85      1.0000 0.56330  0.89660  0.41990  Biso   1.000  H
  H86      1.0000 0.43670  0.10340  0.58010  Biso   1.000  H
  C73      1.0000 0.70500  0.81040  0.45560  Biso   1.000  C
  C74      1.0000 0.29500  0.18960  0.54440  Biso   1.000  C
  C75      1.0000 0.97920  0.02890  0.79250  Biso   1.000  C
  C76      1.0000 0.02080  0.97110  0.20750  Biso   1.000  C
  C77      1.0000 0.95230  0.11090  0.71940  Biso   1.000  C
  C78      1.0000 0.04770  0.88910  0.28060  Biso   1.000  C
  H87      1.0000 0.99860  0.13070  0.68570  Biso   1.000  H
  H88      1.0000 0.00140  0.86930  0.31430  Biso   1.000  H
  C79      1.0000 0.85510  0.16450  0.69570  Biso   1.000  C
  C80      1.0000 0.14490  0.83550  0.30430  Biso   1.000  C
  H89      1.0000 0.83710  0.21940  0.64540  Biso   1.000  H
  H90      1.0000 0.16290  0.78060  0.35460  Biso   1.000  H
  C81      1.0000 0.78500  0.13760  0.74580  Biso   1.000  C
  C82      1.0000 0.21500  0.86240  0.25420  Biso   1.000  C
  C83      1.0000 0.81360  0.05500  0.82020  Biso   1.000  C
  C84      1.0000 0.18640  0.94500  0.17980  Biso   1.000  C
  H91      1.0000 0.76730  0.03600  0.85460  Biso   1.000  H
  H92      1.0000 0.23270  0.96400  0.14540  Biso   1.000  H
  C85      1.0000 0.91100  0.00010  0.84410  Biso   1.000  C
  C86      1.0000 0.08900  0.99990  0.15590  Biso   1.000  C
  H93      1.0000 0.92970  0.94490  0.89420  Biso   1.000  H
  H94      1.0000 0.07030  0.05510  0.10580  Biso   1.000  H
  C87      1.0000 0.67900  0.19650  0.71740  Biso   1.000  C
  C88      1.0000 0.32100  0.80350  0.28260  Biso   1.000  C
  H95      1.0000 0.63850  0.17640  0.76280  Biso   1.000  H
  H96      1.0000 0.36150  0.82360  0.23720  Biso   1.000  H
  H97      1.0000 0.66180  0.26810  0.70040  Biso   1.000  H
  H98      1.0000 0.33820  0.73190  0.29960  Biso   1.000  H
  C89      1.0000 0.66160  0.17650  0.64590  Biso   1.000  C
  C90      1.0000 0.33840  0.82350  0.35410  Biso   1.000  C
  C91      1.0000 0.66050  0.24480  0.56450  Biso   1.000  C
  C92      1.0000 0.33950  0.75520  0.43550  Biso   1.000  C
  H99      1.0000 0.66970  0.30280  0.55410  Biso   1.000  H
  H100     1.0000 0.33030  0.69720  0.44590  Biso   1.000  H
  C93      1.0000 0.64530  0.22470  0.49950  Biso   1.000  C
  C94      1.0000 0.35470  0.77530  0.50050  Biso   1.000  C
  H101     1.0000 0.64390  0.26970  0.44540  Biso   1.000  H
  H102     1.0000 0.35610  0.73030  0.55460  Biso   1.000  H
  C95      1.0000 0.36760  0.86170  0.48470  Biso   1.000  C
  C96      1.0000 0.63240  0.13830  0.51530  Biso   1.000  C
  C97      1.0000 0.36210  0.93280  0.40380  Biso   1.000  C
  C98      1.0000 0.63790  0.06720  0.59620  Biso   1.000  C
  H103     1.0000 0.36750  0.99270  0.39340  Biso   1.000  H
  H104     1.0000 0.63250  0.00730  0.60660  Biso   1.000  H
  C99      1.0000 0.65170  0.08890  0.66060  Biso   1.000  C
  C100     1.0000 0.34830  0.91110  0.33940  Biso   1.000  C
  H105     1.0000 0.65420  0.04320  0.71460  Biso   1.000  H
  H106     1.0000 0.34580  0.95680  0.28540  Biso   1.000  H
  C101     1.0000 0.41760  0.03790  0.78360  Biso   1.000  C
  C102     1.0000 0.58240  0.96210  0.21640  Biso   1.000  C
  H107     1.0000 0.36060  0.06740  0.75300  Biso   1.000  H
  H108     1.0000 0.63940  0.93260  0.24700  Biso   1.000  H
  C103     1.0000 0.48660  0.94790  0.78250  Biso   1.000  C
  C104     1.0000 0.51340  0.05210  0.21750  Biso   1.000  C
  H109     1.0000 0.47700  0.91850  0.75070  Biso   1.000  H
  H110     1.0000 0.52300  0.08150  0.24930  Biso   1.000  H
  C105     1.0000 0.56970  0.90250  0.82930  Biso   1.000  C
  C106     1.0000 0.43030  0.09750  0.17070  Biso   1.000  C
  H111     1.0000 0.61610  0.84040  0.83130  Biso   1.000  H
  H112     1.0000 0.38390  0.15960  0.16870  Biso   1.000  H
  C107     1.0000 0.58380  0.95030  0.87370  Biso   1.000  C
  C108     1.0000 0.41620  0.04970  0.12630  Biso   1.000  C
  H113     1.0000 0.64050  0.92180  0.90440  Biso   1.000  H
  H114     1.0000 0.35950  0.07820  0.09560  Biso   1.000  H
  C109     1.0000 0.51070  0.04230  0.87110  Biso   1.000  C
  C110     1.0000 0.48930  0.95770  0.12890  Biso   1.000  C
  C111     1.0000 0.51960  0.09990  0.91520  Biso   1.000  C
  C112     1.0000 0.48040  0.90010  0.08480  Biso   1.000  C
  C113     1.0000 0.59890  0.06550  0.96530  Biso   1.000  C
  C114     1.0000 0.40110  0.93450  0.03470  Biso   1.000  C
  H115     1.0000 0.64970  0.00350  0.97330  Biso   1.000  H
  H116     1.0000 0.35030  0.99650  0.02670  Biso   1.000  H
  C115     1.0000 0.60080  0.12600  0.00340  Biso   1.000  C
  C116     1.0000 0.39920  0.87400  0.99660  Biso   1.000  C
  H117     1.0000 0.65350  0.10540  0.03640  Biso   1.000  H
  H118     1.0000 0.34650  0.89460  0.96360  Biso   1.000  H
  C117     1.0000 0.52340  0.21660  0.99160  Biso   1.000  C
  C118     1.0000 0.47660  0.78340  0.00840  Biso   1.000  C
  H119     1.0000 0.52250  0.25790  0.01670  Biso   1.000  H
  H120     1.0000 0.47750  0.74210  0.98330  Biso   1.000  H
  C119     1.0000 0.44720  0.24470  0.94130  Biso   1.000  C
  C120     1.0000 0.55280  0.75530  0.05870  Biso   1.000  C
  H121     1.0000 0.39460  0.30530  0.93390  Biso   1.000  H
  H122     1.0000 0.60540  0.69470  0.06610  Biso   1.000  H
  C121     1.0000 0.08280  0.45290  0.71330  Biso   1.000  C
  C122     1.0000 0.91720  0.54710  0.28670  Biso   1.000  C
  H123     1.0000 0.14010  0.41930  0.74410  Biso   1.000  H
  H124     1.0000 0.85990  0.58070  0.25590  Biso   1.000  H
  C123     1.0000 0.01670  0.54480  0.71600  Biso   1.000  C
  C124     1.0000 0.98330  0.45520  0.28400  Biso   1.000  C
  H125     1.0000 0.02930  0.57220  0.74820  Biso   1.000  H
  H126     1.0000 0.97070  0.42780  0.25180  Biso   1.000  H
  C125     1.0000 0.93200  0.59400  0.66960  Biso   1.000  C
  C126     1.0000 0.06800  0.40600  0.33040  Biso   1.000  C
  H127     1.0000 0.88730  0.65600  0.66930  Biso   1.000  H
  H128     1.0000 0.11270  0.34400  0.33070  Biso   1.000  H
  C127     1.0000 0.91410  0.55120  0.62370  Biso   1.000  C
  C128     1.0000 0.08590  0.44880  0.37630  Biso   1.000  C
  H129     1.0000 0.85690  0.58350  0.59290  Biso   1.000  H
  H130     1.0000 0.14310  0.41650  0.40710  Biso   1.000  H
  C129     1.0000 0.98310  0.45850  0.62380  Biso   1.000  C
  C130     1.0000 0.01690  0.54150  0.37620  Biso   1.000  C
  C131     1.0000 0.97140  0.40620  0.57630  Biso   1.000  C
  C132     1.0000 0.02860  0.59380  0.42370  Biso   1.000  C
  C133     1.0000 0.88850  0.44090  0.53050  Biso   1.000  C
  C134     1.0000 0.11150  0.55910  0.46950  Biso   1.000  C
  H131     1.0000 0.83750  0.50150  0.52670  Biso   1.000  H
  H132     1.0000 0.16250  0.49850  0.47330  Biso   1.000  H
  C135     1.0000 0.88210  0.38540  0.49100  Biso   1.000  C
  C136     1.0000 0.11790  0.61460  0.50900  Biso   1.000  C
  H133     1.0000 0.82710  0.40810  0.45990  Biso   1.000  H
  H134     1.0000 0.17290  0.59190  0.54010  Biso   1.000  H
  C137     1.0000 0.95790  0.29640  0.49810  Biso   1.000  C
  C138     1.0000 0.04210  0.70360  0.50190  Biso   1.000  C
  H135     1.0000 0.95370  0.25600  0.47420  Biso   1.000  H
  H136     1.0000 0.04630  0.74400  0.52580  Biso   1.000  H
  C139     1.0000 0.04080  0.26690  0.54110  Biso   1.000  C
  C140     1.0000 0.95920  0.73310  0.45890  Biso   1.000  C
  H137     1.0000 0.09320  0.20770  0.54380  Biso   1.000  H
  H138     1.0000 0.90680  0.79230  0.45620  Biso   1.000  H
  O25      1.0000 0.01250  0.04350  0.46870  Biso   1.000  O
  O26      1.0000 0.98750  0.95650  0.53130  Biso   1.000  O
  H139     1.0000 0.99760  0.09820  0.47150  Biso   1.000  H
  H140     1.0000 0.00240  0.90180  0.52850  Biso   1.000  H
  C141     1.0000 0.08840  0.02200  0.41090  Biso   1.000  C
  C142     1.0000 0.91160  0.97800  0.58910  Biso   1.000  C
  H141     1.0000 0.11740  0.07020  0.39480  Biso   1.000  H
  H142     1.0000 0.88260  0.92980  0.60520  Biso   1.000  H
  H143     1.0000 0.06150  0.02780  0.36310  Biso   1.000  H
  H144     1.0000 0.93850  0.97220  0.63690  Biso   1.000  H
  H145     1.0000 0.13650  0.95540  0.43680  Biso   1.000  H
  H146     1.0000 0.86350  0.04460  0.56320  Biso   1.000  H
  O27      1.0000 0.50490  0.29470  0.20130  Biso   1.000  O
  O28      1.0000 0.49510  0.70530  0.79870  Biso   1.000  O
  O29      1.0000 0.40130  0.53050  0.00160  Biso   1.000  O
  O30      1.0000 0.59870  0.46950  0.99840  Biso   1.000  O
  O31      1.0000 0.69610  0.80770  0.65470  Biso   1.000  O
  O32      1.0000 0.30390  0.19230  0.34530  Biso   1.000  O
  O33      1.0000 0.77690  0.69760  0.81500  Biso   1.000  O
  O34      1.0000 0.22310  0.30240  0.18500  Biso   1.000  O
