data_image0
_cell_length_a       29.8816
_cell_length_b       7.7255
_cell_length_c       21.4941
_cell_angle_alpha    90
_cell_angle_beta     117.245
_cell_angle_gamma    90

_symmetry_space_group_name_H-M    "P 1"
_symmetry_int_tables_number       1

loop_
  _symmetry_equiv_pos_as_xyz
  'x, y, z'

loop_
  _atom_site_label
  _atom_site_occupancy
  _atom_site_fract_x
  _atom_site_fract_y
  _atom_site_fract_z
  _atom_site_thermal_displace_type
  _atom_site_B_iso_or_equiv
  _atom_site_type_symbol
  C1       1.0000 0.07130  0.07170  0.43940  Biso   1.000  C
  C2       1.0000 0.92870  0.07170  0.06060  Biso   1.000  C
  C3       1.0000 0.57130  0.57170  0.43940  Biso   1.000  C
  C4       1.0000 0.42870  0.57170  0.06060  Biso   1.000  C
  C5       1.0000 0.92870  0.92830  0.56060  Biso   1.000  C
  C6       1.0000 0.07130  0.92830  0.93940  Biso   1.000  C
  C7       1.0000 0.42870  0.42830  0.56060  Biso   1.000  C
  C8       1.0000 0.57130  0.42830  0.93940  Biso   1.000  C
  H1       1.0000 0.08520  0.13100  0.48180  Biso   1.000  H
  H2       1.0000 0.91480  0.13100  0.01820  Biso   1.000  H
  H3       1.0000 0.58520  0.63100  0.48180  Biso   1.000  H
  H4       1.0000 0.41480  0.63100  0.01820  Biso   1.000  H
  H5       1.0000 0.91480  0.86900  0.51820  Biso   1.000  H
  H6       1.0000 0.08520  0.86900  0.98180  Biso   1.000  H
  H7       1.0000 0.41480  0.36900  0.51820  Biso   1.000  H
  H8       1.0000 0.58520  0.36900  0.98180  Biso   1.000  H
  C9       1.0000 0.06310  0.91570  0.35470  Biso   1.000  C
  C10      1.0000 0.93690  0.91570  0.14530  Biso   1.000  C
  C11      1.0000 0.56310  0.41570  0.35470  Biso   1.000  C
  C12      1.0000 0.43690  0.41570  0.14530  Biso   1.000  C
  C13      1.0000 0.93690  0.08430  0.64530  Biso   1.000  C
  C14      1.0000 0.06310  0.08430  0.85470  Biso   1.000  C
  C15      1.0000 0.43690  0.58430  0.64530  Biso   1.000  C
  C16      1.0000 0.56310  0.58430  0.85470  Biso   1.000  C
  H9       1.0000 0.07070  0.84570  0.32560  Biso   1.000  H
  H10      1.0000 0.92930  0.84570  0.17440  Biso   1.000  H
  H11      1.0000 0.57070  0.34570  0.32560  Biso   1.000  H
  H12      1.0000 0.42930  0.34570  0.17440  Biso   1.000  H
  H13      1.0000 0.92930  0.15430  0.67440  Biso   1.000  H
  H14      1.0000 0.07070  0.15430  0.82560  Biso   1.000  H
  H15      1.0000 0.42930  0.65430  0.67440  Biso   1.000  H
  H16      1.0000 0.57070  0.65430  0.82560  Biso   1.000  H
  C17      1.0000 0.01631  0.96070  0.34240  Biso   1.000  C
  C18      1.0000 0.98369  0.96070  0.15760  Biso   1.000  C
  C19      1.0000 0.51631  0.46070  0.34240  Biso   1.000  C
  C20      1.0000 0.48369  0.46070  0.15760  Biso   1.000  C
  C21      1.0000 0.98369  0.03930  0.65760  Biso   1.000  C
  C22      1.0000 0.01631  0.03930  0.84240  Biso   1.000  C
  C23      1.0000 0.48369  0.53930  0.65760  Biso   1.000  C
  C24      1.0000 0.51631  0.53930  0.84240  Biso   1.000  C
  H17      1.0000 0.98620  0.92780  0.30460  Biso   1.000  H
  H18      1.0000 0.01380  0.92780  0.19540  Biso   1.000  H
  H19      1.0000 0.48620  0.42780  0.30460  Biso   1.000  H
  H20      1.0000 0.51380  0.42780  0.19540  Biso   1.000  H
  H21      1.0000 0.01380  0.07220  0.69540  Biso   1.000  H
  H22      1.0000 0.98620  0.07220  0.80460  Biso   1.000  H
  H23      1.0000 0.51380  0.57220  0.69540  Biso   1.000  H
  H24      1.0000 0.48620  0.57220  0.80460  Biso   1.000  H
  C25      1.0000 0.98463  0.14560  0.41045  Biso   1.000  C
  C26      1.0000 0.01537  0.14560  0.08955  Biso   1.000  C
  C27      1.0000 0.48463  0.64560  0.41045  Biso   1.000  C
  C28      1.0000 0.51537  0.64560  0.08955  Biso   1.000  C
  C29      1.0000 0.01537  0.85440  0.58955  Biso   1.000  C
  C30      1.0000 0.98463  0.85440  0.91045  Biso   1.000  C
  C31      1.0000 0.51537  0.35440  0.58955  Biso   1.000  C
  C32      1.0000 0.48463  0.35440  0.91045  Biso   1.000  C
  C33      1.0000 0.93589  0.16690  0.36070  Biso   1.000  C
  C34      1.0000 0.06411  0.16690  0.13930  Biso   1.000  C
  C35      1.0000 0.43589  0.66690  0.36070  Biso   1.000  C
  C36      1.0000 0.56411  0.66690  0.13930  Biso   1.000  C
  C37      1.0000 0.06411  0.83310  0.63930  Biso   1.000  C
  C38      1.0000 0.93589  0.83310  0.86070  Biso   1.000  C
  C39      1.0000 0.56411  0.33310  0.63930  Biso   1.000  C
  C40      1.0000 0.43589  0.33310  0.86070  Biso   1.000  C
  H25      1.0000 0.92510  0.12790  0.31510  Biso   1.000  H
  H26      1.0000 0.07490  0.12790  0.18490  Biso   1.000  H
  H27      1.0000 0.42510  0.62790  0.31510  Biso   1.000  H
  H28      1.0000 0.57490  0.62790  0.18490  Biso   1.000  H
  H29      1.0000 0.07490  0.87210  0.68490  Biso   1.000  H
  H30      1.0000 0.92510  0.87210  0.81510  Biso   1.000  H
  H31      1.0000 0.57490  0.37210  0.68490  Biso   1.000  H
  H32      1.0000 0.42510  0.37210  0.81510  Biso   1.000  H
  C41      1.0000 0.90385  0.24710  0.38000  Biso   1.000  C
  C42      1.0000 0.09615  0.24710  0.12000  Biso   1.000  C
  C43      1.0000 0.40385  0.74710  0.38000  Biso   1.000  C
  C44      1.0000 0.59615  0.74710  0.12000  Biso   1.000  C
  C45      1.0000 0.09615  0.75290  0.62000  Biso   1.000  C
  C46      1.0000 0.90385  0.75290  0.88000  Biso   1.000  C
  C47      1.0000 0.59615  0.25290  0.62000  Biso   1.000  C
  C48      1.0000 0.40385  0.25290  0.88000  Biso   1.000  C
  H33      1.0000 0.87020  0.26500  0.34860  Biso   1.000  H
  H34      1.0000 0.12980  0.26500  0.15140  Biso   1.000  H
  H35      1.0000 0.37020  0.76500  0.34860  Biso   1.000  H
  H36      1.0000 0.62980  0.76500  0.15140  Biso   1.000  H
  H37      1.0000 0.12980  0.73500  0.65140  Biso   1.000  H
  H38      1.0000 0.87020  0.73500  0.84860  Biso   1.000  H
  H39      1.0000 0.62980  0.23500  0.65140  Biso   1.000  H
  H40      1.0000 0.37020  0.23500  0.84860  Biso   1.000  H
  C49      1.0000 0.92359  0.30060  0.44866  Biso   1.000  C
  C50      1.0000 0.07641  0.30060  0.05134  Biso   1.000  C
  C51      1.0000 0.42359  0.80060  0.44866  Biso   1.000  C
  C52      1.0000 0.57641  0.80060  0.05134  Biso   1.000  C
  C53      1.0000 0.07641  0.69940  0.55134  Biso   1.000  C
  C54      1.0000 0.92359  0.69940  0.94866  Biso   1.000  C
  C55      1.0000 0.57641  0.19940  0.55134  Biso   1.000  C
  C56      1.0000 0.42359  0.19940  0.94866  Biso   1.000  C
  N1       1.0000 0.97101  0.28100  0.49490  Biso   1.000  N
  N2       1.0000 0.02899  0.28100  0.00510  Biso   1.000  N
  N3       1.0000 0.47101  0.78100  0.49490  Biso   1.000  N
  N4       1.0000 0.52899  0.78100  0.00510  Biso   1.000  N
  N5       1.0000 0.02899  0.71900  0.50510  Biso   1.000  N
  N6       1.0000 0.97101  0.71900  0.99490  Biso   1.000  N
  N7       1.0000 0.52899  0.21900  0.50510  Biso   1.000  N
  N8       1.0000 0.47101  0.21900  0.99490  Biso   1.000  N
  N9       1.0000 0.00245  0.19920  0.47511  Biso   1.000  N
  N10      1.0000 0.99755  0.19920  0.02489  Biso   1.000  N
  N11      1.0000 0.50245  0.69920  0.47511  Biso   1.000  N
  N12      1.0000 0.49755  0.69920  0.02489  Biso   1.000  N
  N13      1.0000 0.99755  0.80080  0.52489  Biso   1.000  N
  N14      1.0000 0.00245  0.80080  0.97511  Biso   1.000  N
  N15      1.0000 0.49755  0.30080  0.52489  Biso   1.000  N
  N16      1.0000 0.50245  0.30080  0.97511  Biso   1.000  N
  N17      1.0000 0.09766  0.98690  0.41554  Biso   1.000  N
  N18      1.0000 0.90234  0.98690  0.08446  Biso   1.000  N
  N19      1.0000 0.59766  0.48690  0.41554  Biso   1.000  N
  N20      1.0000 0.40234  0.48690  0.08446  Biso   1.000  N
  N21      1.0000 0.90234  0.01310  0.58446  Biso   1.000  N
  N22      1.0000 0.09766  0.01310  0.91554  Biso   1.000  N
  N23      1.0000 0.40234  0.51310  0.58446  Biso   1.000  N
  N24      1.0000 0.59766  0.51310  0.91554  Biso   1.000  N
  N25      1.0000 0.02207  0.06420  0.39670  Biso   1.000  N
  N26      1.0000 0.97793  0.06420  0.10330  Biso   1.000  N
  N27      1.0000 0.52207  0.56420  0.39670  Biso   1.000  N
  N28      1.0000 0.47793  0.56420  0.10330  Biso   1.000  N
  N29      1.0000 0.97793  0.93580  0.60330  Biso   1.000  N
  N30      1.0000 0.02207  0.93580  0.89670  Biso   1.000  N
  N31      1.0000 0.47793  0.43580  0.60330  Biso   1.000  N
  N32      1.0000 0.52207  0.43580  0.89670  Biso   1.000  N
  N33      1.0000 0.89493  0.38770  0.47648  Biso   1.000  N
  N34      1.0000 0.10507  0.38770  0.02352  Biso   1.000  N
  N35      1.0000 0.39493  0.88770  0.47648  Biso   1.000  N
  N36      1.0000 0.60507  0.88770  0.02352  Biso   1.000  N
  N37      1.0000 0.10507  0.61230  0.52352  Biso   1.000  N
  N38      1.0000 0.89493  0.61230  0.97648  Biso   1.000  N
  N39      1.0000 0.60507  0.11230  0.52352  Biso   1.000  N
  N40      1.0000 0.39493  0.11230  0.97648  Biso   1.000  N
  C57      1.0000 0.84537  0.42510  0.44471  Biso   1.000  C
  C58      1.0000 0.15463  0.42510  0.05529  Biso   1.000  C
  C59      1.0000 0.34537  0.92510  0.44471  Biso   1.000  C
  C60      1.0000 0.65463  0.92510  0.05529  Biso   1.000  C
  C61      1.0000 0.15463  0.57490  0.55529  Biso   1.000  C
  C62      1.0000 0.84537  0.57490  0.94471  Biso   1.000  C
  C63      1.0000 0.65463  0.07490  0.55529  Biso   1.000  C
  C64      1.0000 0.34537  0.07490  0.94471  Biso   1.000  C
  H41      1.0000 0.82330  0.39530  0.39880  Biso   1.000  H
  H42      1.0000 0.17670  0.39530  0.10120  Biso   1.000  H
  H43      1.0000 0.32330  0.89530  0.39880  Biso   1.000  H
  H44      1.0000 0.67670  0.89530  0.10120  Biso   1.000  H
  H45      1.0000 0.17670  0.60470  0.60120  Biso   1.000  H
  H46      1.0000 0.82330  0.60470  0.89880  Biso   1.000  H
  H47      1.0000 0.67670  0.10470  0.60120  Biso   1.000  H
  H48      1.0000 0.32330  0.10470  0.89880  Biso   1.000  H
  C65      1.0000 0.91468  0.45120  0.54380  Biso   1.000  C
  C66      1.0000 0.08532  0.45120  0.95620  Biso   1.000  C
  C67      1.0000 0.41468  0.95120  0.54380  Biso   1.000  C
  C68      1.0000 0.58532  0.95120  0.95620  Biso   1.000  C
  C69      1.0000 0.08532  0.54880  0.45620  Biso   1.000  C
  C70      1.0000 0.91468  0.54880  0.04380  Biso   1.000  C
  C71      1.0000 0.58532  0.04880  0.45620  Biso   1.000  C
  C72      1.0000 0.41468  0.04880  0.04380  Biso   1.000  C
  H49      1.0000 0.94790  0.44400  0.57830  Biso   1.000  H
  H50      1.0000 0.05210  0.44400  0.92170  Biso   1.000  H
  H51      1.0000 0.44790  0.94400  0.57830  Biso   1.000  H
  H52      1.0000 0.55210  0.94400  0.92170  Biso   1.000  H
  H53      1.0000 0.05210  0.55600  0.42170  Biso   1.000  H
  H54      1.0000 0.94790  0.55600  0.07830  Biso   1.000  H
  H55      1.0000 0.55210  0.05600  0.42170  Biso   1.000  H
  H56      1.0000 0.44790  0.05600  0.07830  Biso   1.000  H
  N41      1.0000 0.83244  0.50910  0.48691  Biso   1.000  N
  N42      1.0000 0.16756  0.50910  0.01309  Biso   1.000  N
  N43      1.0000 0.33244  0.00910  0.48691  Biso   1.000  N
  N44      1.0000 0.66756  0.00910  0.01309  Biso   1.000  N
  N45      1.0000 0.16756  0.49090  0.51309  Biso   1.000  N
  N46      1.0000 0.83244  0.49090  0.98691  Biso   1.000  N
  N47      1.0000 0.66756  0.99090  0.51309  Biso   1.000  N
  N48      1.0000 0.33244  0.99090  0.98691  Biso   1.000  N
  C73      1.0000 0.87601  0.52580  0.54910  Biso   1.000  C
  C74      1.0000 0.12399  0.52580  0.95090  Biso   1.000  C
  C75      1.0000 0.37601  0.02580  0.54910  Biso   1.000  C
  C76      1.0000 0.62399  0.02580  0.95090  Biso   1.000  C
  C77      1.0000 0.12399  0.47420  0.45090  Biso   1.000  C
  C78      1.0000 0.87601  0.47420  0.04910  Biso   1.000  C
  C79      1.0000 0.62399  0.97420  0.45090  Biso   1.000  C
  C80      1.0000 0.37601  0.97420  0.04910  Biso   1.000  C
  H57      1.0000 0.87830  0.58070  0.58890  Biso   1.000  H
  H58      1.0000 0.12170  0.58070  0.91110  Biso   1.000  H
  H59      1.0000 0.37830  0.08070  0.58890  Biso   1.000  H
  H60      1.0000 0.62170  0.08070  0.91110  Biso   1.000  H
  H61      1.0000 0.12170  0.41930  0.41110  Biso   1.000  H
  H62      1.0000 0.87830  0.41930  0.08890  Biso   1.000  H
  H63      1.0000 0.62170  0.91930  0.41110  Biso   1.000  H
  H64      1.0000 0.37830  0.91930  0.08890  Biso   1.000  H
  C81      1.0000 0.69489  0.42130  0.34786  Biso   1.000  C
  C82      1.0000 0.30511  0.42130  0.15214  Biso   1.000  C
  C83      1.0000 0.19489  0.92130  0.34786  Biso   1.000  C
  C84      1.0000 0.80511  0.92130  0.15214  Biso   1.000  C
  C85      1.0000 0.30511  0.57870  0.65214  Biso   1.000  C
  C86      1.0000 0.69489  0.57870  0.84786  Biso   1.000  C
  C87      1.0000 0.80511  0.07870  0.65214  Biso   1.000  C
  C88      1.0000 0.19489  0.07870  0.84786  Biso   1.000  C
  C89      1.0000 0.67411  0.36930  0.27243  Biso   1.000  C
  C90      1.0000 0.32589  0.36930  0.22757  Biso   1.000  C
  C91      1.0000 0.17411  0.86930  0.27243  Biso   1.000  C
  C92      1.0000 0.82589  0.86930  0.22757  Biso   1.000  C
  C93      1.0000 0.32589  0.63070  0.72757  Biso   1.000  C
  C94      1.0000 0.67411  0.63070  0.77243  Biso   1.000  C
  C95      1.0000 0.82589  0.13070  0.72757  Biso   1.000  C
  C96      1.0000 0.17411  0.13070  0.77243  Biso   1.000  C
  C97      1.0000 0.69539  0.43180  0.23137  Biso   1.000  C
  C98      1.0000 0.30461  0.43180  0.26863  Biso   1.000  C
  C99      1.0000 0.19539  0.93180  0.23137  Biso   1.000  C
  C100     1.0000 0.80461  0.93180  0.26863  Biso   1.000  C
  C101     1.0000 0.30461  0.56820  0.76863  Biso   1.000  C
  C102     1.0000 0.69539  0.56820  0.73137  Biso   1.000  C
  C103     1.0000 0.80461  0.06820  0.76863  Biso   1.000  C
  C104     1.0000 0.19539  0.06820  0.73137  Biso   1.000  C
  H65      1.0000 0.72380  0.50170  0.25120  Biso   1.000  H
  H66      1.0000 0.27620  0.50170  0.24880  Biso   1.000  H
  H67      1.0000 0.22380  0.00170  0.25120  Biso   1.000  H
  H68      1.0000 0.77620  0.00170  0.24880  Biso   1.000  H
  H69      1.0000 0.27620  0.49830  0.74880  Biso   1.000  H
  H70      1.0000 0.72380  0.49830  0.75120  Biso   1.000  H
  H71      1.0000 0.77620  0.99830  0.74880  Biso   1.000  H
  H72      1.0000 0.22380  0.99830  0.75120  Biso   1.000  H
  C105     1.0000 0.67406  0.38960  0.16035  Biso   1.000  C
  C106     1.0000 0.32594  0.38960  0.33965  Biso   1.000  C
  C107     1.0000 0.17406  0.88960  0.16035  Biso   1.000  C
  C108     1.0000 0.82594  0.88960  0.33965  Biso   1.000  C
  C109     1.0000 0.32594  0.61040  0.83965  Biso   1.000  C
  C110     1.0000 0.67406  0.61040  0.66035  Biso   1.000  C
  C111     1.0000 0.82594  0.11040  0.83965  Biso   1.000  C
  C112     1.0000 0.17406  0.11040  0.66035  Biso   1.000  C
  C113     1.0000 0.63186  0.28530  0.13164  Biso   1.000  C
  C114     1.0000 0.36814  0.28530  0.36836  Biso   1.000  C
  C115     1.0000 0.13186  0.78530  0.13164  Biso   1.000  C
  C116     1.0000 0.86814  0.78530  0.36836  Biso   1.000  C
  C117     1.0000 0.36814  0.71470  0.86836  Biso   1.000  C
  C118     1.0000 0.63186  0.71470  0.63164  Biso   1.000  C
  C119     1.0000 0.86814  0.21470  0.86836  Biso   1.000  C
  C120     1.0000 0.13186  0.21470  0.63164  Biso   1.000  C
  H73      1.0000 0.61730  0.25800  0.08430  Biso   1.000  H
  H74      1.0000 0.38270  0.25800  0.41570  Biso   1.000  H
  H75      1.0000 0.11730  0.75800  0.08430  Biso   1.000  H
  H76      1.0000 0.88270  0.75800  0.41570  Biso   1.000  H
  H77      1.0000 0.38270  0.74200  0.91570  Biso   1.000  H
  H78      1.0000 0.61730  0.74200  0.58430  Biso   1.000  H
  H79      1.0000 0.88270  0.24200  0.91570  Biso   1.000  H
  H80      1.0000 0.11730  0.24200  0.58430  Biso   1.000  H
  C121     1.0000 0.61089  0.22100  0.17263  Biso   1.000  C
  C122     1.0000 0.38911  0.22100  0.32737  Biso   1.000  C
  C123     1.0000 0.11089  0.72100  0.17263  Biso   1.000  C
  C124     1.0000 0.88911  0.72100  0.32737  Biso   1.000  C
  C125     1.0000 0.38911  0.77900  0.82737  Biso   1.000  C
  C126     1.0000 0.61089  0.77900  0.67263  Biso   1.000  C
  C127     1.0000 0.88911  0.27900  0.82737  Biso   1.000  C
  C128     1.0000 0.11089  0.27900  0.67263  Biso   1.000  C
  H81      1.0000 0.58280  0.14950  0.15300  Biso   1.000  H
  H82      1.0000 0.41720  0.14950  0.34700  Biso   1.000  H
  H83      1.0000 0.08280  0.64950  0.15300  Biso   1.000  H
  H84      1.0000 0.91720  0.64950  0.34700  Biso   1.000  H
  H85      1.0000 0.41720  0.85050  0.84700  Biso   1.000  H
  H86      1.0000 0.58280  0.85050  0.65300  Biso   1.000  H
  H87      1.0000 0.91720  0.35050  0.84700  Biso   1.000  H
  H88      1.0000 0.08280  0.35050  0.65300  Biso   1.000  H
  C129     1.0000 0.63198  0.26380  0.24269  Biso   1.000  C
  C130     1.0000 0.36802  0.26380  0.25731  Biso   1.000  C
  C131     1.0000 0.13198  0.76380  0.24269  Biso   1.000  C
  C132     1.0000 0.86802  0.76380  0.25731  Biso   1.000  C
  C133     1.0000 0.36802  0.73620  0.75731  Biso   1.000  C
  C134     1.0000 0.63198  0.73620  0.74269  Biso   1.000  C
  C135     1.0000 0.86802  0.23620  0.75731  Biso   1.000  C
  C136     1.0000 0.13198  0.23620  0.74269  Biso   1.000  C
  H89      1.0000 0.61780  0.22140  0.27020  Biso   1.000  H
  H90      1.0000 0.38220  0.22140  0.22980  Biso   1.000  H
  H91      1.0000 0.11780  0.72140  0.27020  Biso   1.000  H
  H92      1.0000 0.88220  0.72140  0.22980  Biso   1.000  H
  H93      1.0000 0.38220  0.77860  0.72980  Biso   1.000  H
  H94      1.0000 0.61780  0.77860  0.77020  Biso   1.000  H
  H95      1.0000 0.88220  0.27860  0.72980  Biso   1.000  H
  H96      1.0000 0.11780  0.27860  0.77020  Biso   1.000  H
  O1       1.0000 0.73531  0.50620  0.37419  Biso   1.000  O
  O2       1.0000 0.26469  0.50620  0.12581  Biso   1.000  O
  O3       1.0000 0.23531  0.00620  0.37419  Biso   1.000  O
  O4       1.0000 0.76469  0.00620  0.12581  Biso   1.000  O
  O5       1.0000 0.26469  0.49380  0.62581  Biso   1.000  O
  O6       1.0000 0.73531  0.49380  0.87419  Biso   1.000  O
  O7       1.0000 0.76469  0.99380  0.62581  Biso   1.000  O
  O8       1.0000 0.23531  0.99380  0.87419  Biso   1.000  O
  O9       1.0000 0.66966  0.37620  0.37868  Biso   1.000  O
  O10      1.0000 0.33034  0.37620  0.12132  Biso   1.000  O
  O11      1.0000 0.16966  0.87620  0.37868  Biso   1.000  O
  O12      1.0000 0.83034  0.87620  0.12132  Biso   1.000  O
  O13      1.0000 0.33034  0.62380  0.62132  Biso   1.000  O
  O14      1.0000 0.66966  0.62380  0.87868  Biso   1.000  O
  O15      1.0000 0.83034  0.12380  0.62132  Biso   1.000  O
  O16      1.0000 0.16966  0.12380  0.87868  Biso   1.000  O
  O17      1.0000 0.70492  0.72540  0.45364  Biso   1.000  O
  O18      1.0000 0.29508  0.72540  0.04636  Biso   1.000  O
  O19      1.0000 0.20492  0.22540  0.45364  Biso   1.000  O
  O20      1.0000 0.79508  0.22540  0.04636  Biso   1.000  O
  O21      1.0000 0.29508  0.27460  0.54636  Biso   1.000  O
  O22      1.0000 0.70492  0.27460  0.95364  Biso   1.000  O
  O23      1.0000 0.79508  0.77460  0.54636  Biso   1.000  O
  O24      1.0000 0.20492  0.77460  0.95364  Biso   1.000  O
  H97      1.0000 0.69060  0.75600  0.41700  Biso   1.000  H
  H98      1.0000 0.30940  0.75600  0.08300  Biso   1.000  H
  H99      1.0000 0.19060  0.25600  0.41700  Biso   1.000  H
  H100     1.0000 0.80940  0.25600  0.08300  Biso   1.000  H
  H101     1.0000 0.30940  0.24400  0.58300  Biso   1.000  H
  H102     1.0000 0.69060  0.24400  0.91700  Biso   1.000  H
  H103     1.0000 0.80940  0.74400  0.58300  Biso   1.000  H
  H104     1.0000 0.19060  0.74400  0.91700  Biso   1.000  H
  O25      1.0000 0.74083  0.39010  0.51753  Biso   1.000  O
  O26      1.0000 0.25917  0.39010  0.98247  Biso   1.000  O
  O27      1.0000 0.24083  0.89010  0.51753  Biso   1.000  O
  O28      1.0000 0.75917  0.89010  0.98247  Biso   1.000  O
  O29      1.0000 0.25917  0.60990  0.48247  Biso   1.000  O
  O30      1.0000 0.74083  0.60990  0.01753  Biso   1.000  O
  O31      1.0000 0.75917  0.10990  0.48247  Biso   1.000  O
  O32      1.0000 0.24083  0.10990  0.01753  Biso   1.000  O
  H105     1.0000 0.74980  0.39300  0.55850  Biso   1.000  H
  H106     1.0000 0.25020  0.39300  0.94150  Biso   1.000  H
  H107     1.0000 0.24980  0.89300  0.55850  Biso   1.000  H
  H108     1.0000 0.75020  0.89300  0.94150  Biso   1.000  H
  H109     1.0000 0.25020  0.60700  0.44150  Biso   1.000  H
  H110     1.0000 0.74980  0.60700  0.05850  Biso   1.000  H
  H111     1.0000 0.75020  0.10700  0.44150  Biso   1.000  H
  H112     1.0000 0.24980  0.10700  0.05850  Biso   1.000  H
  C137     1.0000 0.69538  0.46800  0.11461  Biso   1.000  C
  C138     1.0000 0.30462  0.46800  0.38539  Biso   1.000  C
  C139     1.0000 0.19538  0.96800  0.11461  Biso   1.000  C
  C140     1.0000 0.80462  0.96800  0.38539  Biso   1.000  C
  C141     1.0000 0.30462  0.53200  0.88539  Biso   1.000  C
  C142     1.0000 0.69538  0.53200  0.61461  Biso   1.000  C
  C143     1.0000 0.80462  0.03200  0.88539  Biso   1.000  C
  C144     1.0000 0.19538  0.03200  0.61461  Biso   1.000  C
  O33      1.0000 0.66676  0.45800  0.05002  Biso   1.000  O
  O34      1.0000 0.33324  0.45800  0.44998  Biso   1.000  O
  O35      1.0000 0.16676  0.95800  0.05002  Biso   1.000  O
  O36      1.0000 0.83324  0.95800  0.44998  Biso   1.000  O
  O37      1.0000 0.33324  0.54200  0.94998  Biso   1.000  O
  O38      1.0000 0.66676  0.54200  0.55002  Biso   1.000  O
  O39      1.0000 0.83324  0.04200  0.94998  Biso   1.000  O
  O40      1.0000 0.16676  0.04200  0.55002  Biso   1.000  O
  O41      1.0000 0.73708  0.53830  0.14149  Biso   1.000  O
  O42      1.0000 0.26292  0.53830  0.35851  Biso   1.000  O
  O43      1.0000 0.23708  0.03830  0.14149  Biso   1.000  O
  O44      1.0000 0.76292  0.03830  0.35851  Biso   1.000  O
  O45      1.0000 0.26292  0.46170  0.85851  Biso   1.000  O
  O46      1.0000 0.73708  0.46170  0.64149  Biso   1.000  O
  O47      1.0000 0.76292  0.96170  0.85851  Biso   1.000  O
  O48      1.0000 0.23708  0.96170  0.64149  Biso   1.000  O
  Cu1      1.0000 0.76698  0.60955  0.46874  Biso   1.000  Cu
  Cu2      1.0000 0.23302  0.60955  0.03126  Biso   1.000  Cu
  Cu3      1.0000 0.26698  0.10955  0.46874  Biso   1.000  Cu
  Cu4      1.0000 0.73302  0.10955  0.03126  Biso   1.000  Cu
  Cu5      1.0000 0.23302  0.39045  0.53126  Biso   1.000  Cu
  Cu6      1.0000 0.76698  0.39045  0.96874  Biso   1.000  Cu
  Cu7      1.0000 0.73302  0.89045  0.53126  Biso   1.000  Cu
  Cu8      1.0000 0.26698  0.89045  0.96874  Biso   1.000  Cu
  Cu9      1.0000 0.67192  0.46548  0.46626  Biso   1.000  Cu
  Cu10     1.0000 0.32808  0.46548  0.03374  Biso   1.000  Cu
  Cu11     1.0000 0.17192  0.96548  0.46626  Biso   1.000  Cu
  Cu12     1.0000 0.82808  0.96548  0.03374  Biso   1.000  Cu
  Cu13     1.0000 0.32808  0.53452  0.53374  Biso   1.000  Cu
  Cu14     1.0000 0.67192  0.53452  0.96626  Biso   1.000  Cu
  Cu15     1.0000 0.82808  0.03452  0.53374  Biso   1.000  Cu
  Cu16     1.0000 0.17192  0.03452  0.96626  Biso   1.000  Cu
  Cl1      1.0000 0.50000  0.04180  0.75000  Biso   1.000  Cl
  Cl2      1.0000 0.00000  0.54180  0.75000  Biso   1.000  Cl
  Cl3      1.0000 0.50000  0.95820  0.25000  Biso   1.000  Cl
  Cl4      1.0000 0.00000  0.45820  0.25000  Biso   1.000  Cl
  O49      1.0000 0.45860  0.12900  0.70410  Biso   1.000  O
  O50      1.0000 0.54140  0.12900  0.79590  Biso   1.000  O
  O51      1.0000 0.95860  0.62900  0.70410  Biso   1.000  O
  O52      1.0000 0.04140  0.62900  0.79590  Biso   1.000  O
  O53      1.0000 0.54140  0.87100  0.29590  Biso   1.000  O
  O54      1.0000 0.45860  0.87100  0.20410  Biso   1.000  O
  O55      1.0000 0.04140  0.37100  0.29590  Biso   1.000  O
  O56      1.0000 0.95860  0.37100  0.20410  Biso   1.000  O
  O57      1.0000 0.48370  0.95900  0.79090  Biso   1.000  O
  O58      1.0000 0.51630  0.95900  0.70910  Biso   1.000  O
  O59      1.0000 0.98370  0.45900  0.79090  Biso   1.000  O
  O60      1.0000 0.01630  0.45900  0.70910  Biso   1.000  O
  O61      1.0000 0.51630  0.04100  0.20910  Biso   1.000  O
  O62      1.0000 0.48370  0.04100  0.29090  Biso   1.000  O
  O63      1.0000 0.01630  0.54100  0.20910  Biso   1.000  O
  O64      1.0000 0.98370  0.54100  0.29090  Biso   1.000  O
  O65      1.0000 0.48360  0.14300  0.69330  Biso   1.000  O
  O66      1.0000 0.51640  0.14300  0.80670  Biso   1.000  O
  O67      1.0000 0.98360  0.64300  0.69330  Biso   1.000  O
  O68      1.0000 0.01640  0.64300  0.80670  Biso   1.000  O
  O69      1.0000 0.51640  0.85700  0.30670  Biso   1.000  O
  O70      1.0000 0.48360  0.85700  0.19330  Biso   1.000  O
  O71      1.0000 0.01640  0.35700  0.30670  Biso   1.000  O
  O72      1.0000 0.98360  0.35700  0.19330  Biso   1.000  O
  O73      1.0000 0.46520  0.91800  0.73480  Biso   1.000  O
  O74      1.0000 0.53480  0.91800  0.76520  Biso   1.000  O
  O75      1.0000 0.96520  0.41800  0.73480  Biso   1.000  O
  O76      1.0000 0.03480  0.41800  0.76520  Biso   1.000  O
  O77      1.0000 0.53480  0.08200  0.26520  Biso   1.000  O
  O78      1.0000 0.46520  0.08200  0.23480  Biso   1.000  O
  O79      1.0000 0.03480  0.58200  0.26520  Biso   1.000  O
  O80      1.0000 0.96520  0.58200  0.23480  Biso   1.000  O
