data_image0
_cell_length_a       7.6597
_cell_length_b       11.198
_cell_length_c       13.3076
_cell_angle_alpha    110.824
_cell_angle_beta     95.302
_cell_angle_gamma    104.344

_symmetry_space_group_name_H-M    "P 1"
_symmetry_int_tables_number       1

loop_
  _symmetry_equiv_pos_as_xyz
  'x, y, z'

loop_
  _atom_site_label
  _atom_site_occupancy
  _atom_site_fract_x
  _atom_site_fract_y
  _atom_site_fract_z
  _atom_site_thermal_displace_type
  _atom_site_B_iso_or_equiv
  _atom_site_type_symbol
  C1       1.0000 0.06510  0.07520  0.92540  Biso   1.000  C
  C2       1.0000 0.93490  0.92480  0.07460  Biso   1.000  C
  H1       1.0000 0.11650  0.11370  0.87930  Biso   1.000  H
  H2       1.0000 0.88350  0.88630  0.12070  Biso   1.000  H
  C3       1.0000 0.92680  0.10980  0.97470  Biso   1.000  C
  C4       1.0000 0.07320  0.89020  0.02530  Biso   1.000  C
  H3       1.0000 0.87340  0.17210  0.96520  Biso   1.000  H
  H4       1.0000 0.12660  0.82790  0.03480  Biso   1.000  H
  C5       1.0000 0.63860  0.01780  0.16440  Biso   1.000  C
  C6       1.0000 0.36140  0.98220  0.83560  Biso   1.000  C
  H5       1.0000 0.66290  0.94920  0.18160  Biso   1.000  H
  H6       1.0000 0.33710  0.05080  0.81840  Biso   1.000  H
  C7       1.0000 0.52130  0.17110  0.15490  Biso   1.000  C
  C8       1.0000 0.47870  0.82890  0.84510  Biso   1.000  C
  H7       1.0000 0.44780  0.22760  0.16600  Biso   1.000  H
  H8       1.0000 0.55220  0.77240  0.83400  Biso   1.000  H
  C9       1.0000 0.65020  0.16910  0.09260  Biso   1.000  C
  C10      1.0000 0.34980  0.83090  0.90740  Biso   1.000  C
  H9       1.0000 0.68210  0.22220  0.05300  Biso   1.000  H
  H10      1.0000 0.31790  0.77780  0.94700  Biso   1.000  H
  C11      1.0000 0.86940  0.03270  0.04850  Biso   1.000  C
  C12      1.0000 0.13060  0.96730  0.95150  Biso   1.000  C
  C13      1.0000 0.81440  0.19730  0.47540  Biso   1.000  C
  C14      1.0000 0.18560  0.80270  0.52460  Biso   1.000  C
  C15      1.0000 0.86790  0.28270  0.41180  Biso   1.000  C
  C16      1.0000 0.13210  0.71730  0.58820  Biso   1.000  C
  C17      1.0000 0.78370  0.38160  0.42110  Biso   1.000  C
  C18      1.0000 0.21630  0.61840  0.57890  Biso   1.000  C
  H11      1.0000 0.68900  0.38630  0.46000  Biso   1.000  H
  H12      1.0000 0.31100  0.61370  0.54000  Biso   1.000  H
  C19      1.0000 0.83690  0.47270  0.37410  Biso   1.000  C
  C20      1.0000 0.16310  0.52730  0.62590  Biso   1.000  C
  H13      1.0000 0.78060  0.53930  0.38250  Biso   1.000  H
  H14      1.0000 0.21940  0.46070  0.61750  Biso   1.000  H
  C21      1.0000 0.97520  0.46400  0.31440  Biso   1.000  C
  C22      1.0000 0.02480  0.53600  0.68560  Biso   1.000  C
  H15      1.0000 0.01270  0.52550  0.28270  Biso   1.000  H
  H16      1.0000 0.98730  0.47450  0.71730  Biso   1.000  H
  C23      1.0000 0.05840  0.36340  0.30150  Biso   1.000  C
  C24      1.0000 0.94160  0.63660  0.69850  Biso   1.000  C
  H17      1.0000 0.15030  0.35750  0.26050  Biso   1.000  H
  H18      1.0000 0.84970  0.64250  0.73950  Biso   1.000  H
  C25      1.0000 0.00510  0.27170  0.34950  Biso   1.000  C
  C26      1.0000 0.99490  0.72830  0.65050  Biso   1.000  C
  C27      1.0000 0.08680  0.15820  0.32900  Biso   1.000  C
  C28      1.0000 0.91320  0.84180  0.67100  Biso   1.000  C
  C29      1.0000 0.33380  0.26980  0.69450  Biso   1.000  C
  C30      1.0000 0.66620  0.73020  0.30550  Biso   1.000  C
  C31      1.0000 0.48460  0.37120  0.78830  Biso   1.000  C
  C32      1.0000 0.51540  0.62880  0.21170  Biso   1.000  C
  C33      1.0000 0.45920  0.49440  0.84770  Biso   1.000  C
  C34      1.0000 0.54080  0.50560  0.15230  Biso   1.000  C
  H19      1.0000 0.34910  0.51030  0.83020  Biso   1.000  H
  H20      1.0000 0.65090  0.48970  0.16980  Biso   1.000  H
  C35      1.0000 0.59540  0.59210  0.93150  Biso   1.000  C
  C36      1.0000 0.40460  0.40790  0.06850  Biso   1.000  C
  H21      1.0000 0.57650  0.67360  0.97050  Biso   1.000  H
  H22      1.0000 0.42350  0.32640  0.02950  Biso   1.000  H
  C37      1.0000 0.76000  0.57110  0.95860  Biso   1.000  C
  C38      1.0000 0.24000  0.42890  0.04140  Biso   1.000  C
  H23      1.0000 0.85180  0.63760  0.01560  Biso   1.000  H
  H24      1.0000 0.14820  0.36240  0.98440  Biso   1.000  H
  C39      1.0000 0.78640  0.45030  0.90010  Biso   1.000  C
  C40      1.0000 0.21360  0.54970  0.09990  Biso   1.000  C
  H25      1.0000 0.89830  0.43640  0.91720  Biso   1.000  H
  H26      1.0000 0.10170  0.56360  0.08280  Biso   1.000  H
  C41      1.0000 0.65100  0.34950  0.81690  Biso   1.000  C
  C42      1.0000 0.34900  0.65050  0.18310  Biso   1.000  C
  Cu1      1.0000 0.38160  0.05107  0.31162  Biso   1.000  Cu
  Cu2      1.0000 0.61840  0.94893  0.68838  Biso   1.000  Cu
  Cu3      1.0000 0.50000  0.00000  0.50000  Biso   1.000  Cu
  Cu4      1.0000 0.95790  0.09409  0.63394  Biso   1.000  Cu
  Cu5      1.0000 0.04210  0.90591  0.36606  Biso   1.000  Cu
  N1       1.0000 0.51440  0.07680  0.20000  Biso   1.000  N
  N2       1.0000 0.48560  0.92320  0.80000  Biso   1.000  N
  N3       1.0000 0.72510  0.07110  0.09990  Biso   1.000  N
  N4       1.0000 0.27490  0.92890  0.90010  Biso   1.000  N
  O1       1.0000 0.98540  0.05170  0.32940  Biso   1.000  O
  O2       1.0000 0.01460  0.94830  0.67060  Biso   1.000  O
  O3       1.0000 0.24810  0.17790  0.31070  Biso   1.000  O
  O4       1.0000 0.75190  0.82210  0.68930  Biso   1.000  O
  O5       1.0000 0.64520  0.13780  0.45820  Biso   1.000  O
  O6       1.0000 0.35480  0.86220  0.54180  Biso   1.000  O
  O7       1.0000 0.93840  0.19940  0.54460  Biso   1.000  O
  O8       1.0000 0.06160  0.80060  0.45540  Biso   1.000  O
  O9       1.0000 0.35240  0.25620  0.60040  Biso   1.000  O
  O10      1.0000 0.64760  0.74380  0.39960  Biso   1.000  O
  O11      1.0000 0.19260  0.21070  0.72210  Biso   1.000  O
  O12      1.0000 0.80740  0.78930  0.27790  Biso   1.000  O
  O13      1.0000 0.71470  0.96910  0.56270  Biso   1.000  O
  O14      1.0000 0.28530  0.03090  0.43730  Biso   1.000  O
  H27      1.0000 0.70700  0.89600  0.51700  Biso   1.000  H
  H28      1.0000 0.29300  0.10400  0.48300  Biso   1.000  H
  C43      1.0000 0.68480  0.21610  0.76280  Biso   1.000  C
  C44      1.0000 0.31520  0.78390  0.23720  Biso   1.000  C
  O15      1.0000 0.84320  0.20900  0.77800  Biso   1.000  O
  O16      1.0000 0.15680  0.79100  0.22200  Biso   1.000  O
  O17      1.0000 0.54650  0.11470  0.70890  Biso   1.000  O
  O18      1.0000 0.45350  0.88530  0.29110  Biso   1.000  O
  N5       1.0000 0.09250  0.05560  0.95190  Biso   1.000  N
  N6       1.0000 0.90750  0.94440  0.04810  Biso   1.000  N
  N7       1.0000 0.95460  0.09130  0.00030  Biso   1.000  N
  N8       1.0000 0.04540  0.90870  0.99970  Biso   1.000  N
