data_image0
_cell_length_a       8.6175
_cell_length_b       11.3073
_cell_length_c       14.6081
_cell_angle_alpha    109.868
_cell_angle_beta     95.213
_cell_angle_gamma    98.681

_symmetry_space_group_name_H-M    "P 1"
_symmetry_int_tables_number       1

loop_
  _symmetry_equiv_pos_as_xyz
  'x, y, z'

loop_
  _atom_site_label
  _atom_site_occupancy
  _atom_site_fract_x
  _atom_site_fract_y
  _atom_site_fract_z
  _atom_site_thermal_displace_type
  _atom_site_B_iso_or_equiv
  _atom_site_type_symbol
  Cu1      1.0000 0.50000  0.50000  0.00000  Biso   1.000  Cu
  O1       1.0000 0.45320  0.67390  0.03920  Biso   1.000  O
  O2       1.0000 0.54680  0.32610  0.96080  Biso   1.000  O
  O3       1.0000 0.69330  0.78830  0.05190  Biso   1.000  O
  O4       1.0000 0.30670  0.21170  0.94810  Biso   1.000  O
  O5       1.0000 0.00390  0.06850  0.12310  Biso   1.000  O
  O6       1.0000 0.99610  0.93150  0.87690  Biso   1.000  O
  O7       1.0000 0.99880  0.86160  0.09060  Biso   1.000  O
  O8       1.0000 0.00120  0.13840  0.90940  Biso   1.000  O
  N1       1.0000 0.33390  0.45090  0.88140  Biso   1.000  N
  N2       1.0000 0.66610  0.54910  0.11860  Biso   1.000  N
  N3       1.0000 0.72330  0.28580  0.27490  Biso   1.000  N
  N4       1.0000 0.27670  0.71420  0.72510  Biso   1.000  N
  C1       1.0000 0.00420  0.38180  0.62410  Biso   1.000  C
  C2       1.0000 0.99580  0.61820  0.37590  Biso   1.000  C
  H1       1.0000 0.90450  0.40140  0.63390  Biso   1.000  H
  H2       1.0000 0.09550  0.59860  0.36610  Biso   1.000  H
  C3       1.0000 0.36890  0.39380  0.79120  Biso   1.000  C
  C4       1.0000 0.63110  0.60620  0.20880  Biso   1.000  C
  H3       1.0000 0.46770  0.37070  0.78600  Biso   1.000  H
  H4       1.0000 0.53230  0.62930  0.21400  Biso   1.000  H
  C5       1.0000 0.18870  0.48120  0.88770  Biso   1.000  C
  C6       1.0000 0.81130  0.51880  0.11230  Biso   1.000  C
  H5       1.0000 0.16120  0.51940  0.94960  Biso   1.000  H
  H6       1.0000 0.83880  0.48060  0.05040  Biso   1.000  H
  C7       1.0000 0.76580  0.33900  0.44650  Biso   1.000  C
  C8       1.0000 0.23420  0.66100  0.55350  Biso   1.000  C
  H7       1.0000 0.72730  0.36310  0.50630  Biso   1.000  H
  H8       1.0000 0.27270  0.63690  0.49370  Biso   1.000  H
  C9       1.0000 0.07990  0.45730  0.80520  Biso   1.000  C
  C10      1.0000 0.92010  0.54270  0.19480  Biso   1.000  C
  H9       1.0000 0.98050  0.47880  0.81240  Biso   1.000  H
  H10      1.0000 0.01950  0.52120  0.18760  Biso   1.000  H
  C11      1.0000 0.11730  0.40120  0.71120  Biso   1.000  C
  C12      1.0000 0.88270  0.59880  0.28880  Biso   1.000  C
  C13      1.0000 0.55020  0.77800  0.05980  Biso   1.000  C
  C14      1.0000 0.44980  0.22200  0.94020  Biso   1.000  C
  C15      1.0000 0.92380  0.32170  0.44390  Biso   1.000  C
  C16      1.0000 0.07620  0.67830  0.55610  Biso   1.000  C
  C17      1.0000 0.66900  0.32060  0.36190  Biso   1.000  C
  C18      1.0000 0.33100  0.67940  0.63810  Biso   1.000  C
  H11      1.0000 0.56460  0.33220  0.36420  Biso   1.000  H
  H12      1.0000 0.43540  0.66780  0.63580  Biso   1.000  H
  C19      1.0000 0.97560  0.28790  0.35310  Biso   1.000  C
  C20      1.0000 0.02440  0.71210  0.64690  Biso   1.000  C
  H13      1.0000 0.07980  0.27700  0.34830  Biso   1.000  H
  H14      1.0000 0.92020  0.72300  0.65170  Biso   1.000  H
  C21      1.0000 0.03320  0.33870  0.53270  Biso   1.000  C
  C22      1.0000 0.96680  0.66130  0.46730  Biso   1.000  C
  H15      1.0000 0.13200  0.31690  0.52350  Biso   1.000  H
  H16      1.0000 0.86800  0.68310  0.47650  Biso   1.000  H
  C23      1.0000 0.26710  0.36790  0.70640  Biso   1.000  C
  C24      1.0000 0.73290  0.63210  0.29360  Biso   1.000  C
  H17      1.0000 0.29730  0.32820  0.64560  Biso   1.000  H
  H18      1.0000 0.70270  0.67180  0.35440  Biso   1.000  H
  C25      1.0000 0.31660  0.88580  0.08900  Biso   1.000  C
  C26      1.0000 0.68340  0.11420  0.91100  Biso   1.000  C
  H19      1.0000 0.25290  0.80460  0.06810  Biso   1.000  H
  H20      1.0000 0.74710  0.19540  0.93190  Biso   1.000  H
  C27      1.0000 0.50710  0.12660  0.15010  Biso   1.000  C
  C28      1.0000 0.49290  0.87340  0.84990  Biso   1.000  C
  C29      1.0000 0.47950  0.89790  0.09300  Biso   1.000  C
  C30      1.0000 0.52050  0.10210  0.90700  Biso   1.000  C
  C31      1.0000 0.57490  0.01920  0.12250  Biso   1.000  C
  C32      1.0000 0.42510  0.98080  0.87750  Biso   1.000  C
  H21      1.0000 0.68410  0.02780  0.12370  Biso   1.000  H
  H22      1.0000 0.31590  0.97220  0.87630  Biso   1.000  H
  C33      1.0000 0.61060  0.25940  0.18270  Biso   1.000  C
  C34      1.0000 0.38940  0.74060  0.81730  Biso   1.000  C
  H23      1.0000 0.67030  0.26560  0.13080  Biso   1.000  H
  H24      1.0000 0.32970  0.73440  0.86920  Biso   1.000  H
  H25      1.0000 0.54380  0.32320  0.19450  Biso   1.000  H
  H26      1.0000 0.45620  0.67680  0.80550  Biso   1.000  H
  C35      1.0000 0.34340  0.11370  0.14600  Biso   1.000  C
  C36      1.0000 0.65660  0.88630  0.85400  Biso   1.000  C
  H27      1.0000 0.29820  0.18650  0.16370  Biso   1.000  H
  H28      1.0000 0.70180  0.81350  0.83630  Biso   1.000  H
  C37      1.0000 0.24690  0.99340  0.11580  Biso   1.000  C
  C38      1.0000 0.75310  0.00660  0.88420  Biso   1.000  C
  C39      1.0000 0.07180  0.98160  0.11110  Biso   1.000  C
  C40      1.0000 0.92820  0.01840  0.88890  Biso   1.000  C
  C41      1.0000 0.87300  0.27090  0.27050  Biso   1.000  C
  C42      1.0000 0.12700  0.72910  0.72950  Biso   1.000  C
  H29      1.0000 0.90870  0.24830  0.20980  Biso   1.000  H
  H30      1.0000 0.09130  0.75170  0.79020  Biso   1.000  H
  O9       1.0000 0.27500  0.44360  0.08990  Biso   1.000  O
  O10      1.0000 0.72500  0.55640  0.91010  Biso   1.000  O
  H31      1.0000 0.34500  0.50330  0.08700  Biso   1.000  H
  H32      1.0000 0.65500  0.49670  0.91300  Biso   1.000  H
  H33      1.0000 0.23930  0.46920  0.14410  Biso   1.000  H
  H34      1.0000 0.76070  0.53080  0.85590  Biso   1.000  H
  Cl1      1.0000 0.66598  0.53922  0.68754  Biso   1.000  Cl
  Cl2      1.0000 0.33402  0.46078  0.31246  Biso   1.000  Cl
  O11      1.0000 0.40170  0.37000  0.49830  Biso   1.000  O
  O12      1.0000 0.59830  0.63000  0.50170  Biso   1.000  O
  H35      1.0000 0.37080  0.42190  0.47350  Biso   1.000  H
  H36      1.0000 0.62920  0.57810  0.52650  Biso   1.000  H
  H37      1.0000 0.49310  0.40320  0.53260  Biso   1.000  H
  H38      1.0000 0.50690  0.59680  0.46740  Biso   1.000  H
  O13      1.0000 0.25600  0.92500  0.35270  Biso   1.000  O
  O14      1.0000 0.74400  0.07500  0.64730  Biso   1.000  O
  H39      1.0000 0.19300  0.92740  0.30560  Biso   1.000  H
  H40      1.0000 0.80700  0.07260  0.69440  Biso   1.000  H
  H41      1.0000 0.23440  0.85130  0.35740  Biso   1.000  H
  H42      1.0000 0.76560  0.14870  0.64260  Biso   1.000  H
  O15      1.0000 0.36800  0.09300  0.40880  Biso   1.000  O
  O16      1.0000 0.63200  0.90700  0.59120  Biso   1.000  O
  H43      1.0000 0.36090  0.16260  0.45370  Biso   1.000  H
  H44      1.0000 0.63910  0.83740  0.54630  Biso   1.000  H
  H45      1.0000 0.46350  0.09680  0.39750  Biso   1.000  H
  H46      1.0000 0.53650  0.90320  0.60250  Biso   1.000  H
