data_image0
_cell_length_a       17.4655
_cell_length_b       31.5628
_cell_length_c       7.9831
_cell_angle_alpha    90
_cell_angle_beta     90
_cell_angle_gamma    90

_symmetry_space_group_name_H-M    "P 1"
_symmetry_int_tables_number       1

loop_
  _symmetry_equiv_pos_as_xyz
  'x, y, z'

loop_
  _atom_site_label
  _atom_site_occupancy
  _atom_site_fract_x
  _atom_site_fract_y
  _atom_site_fract_z
  _atom_site_thermal_displace_type
  _atom_site_B_iso_or_equiv
  _atom_site_type_symbol
  Cu1      1.0000 0.26435  0.41266  0.16719  Biso   1.000  Cu
  Cu2      1.0000 0.23565  0.58734  0.16719  Biso   1.000  Cu
  Cu3      1.0000 0.26435  0.08734  0.33281  Biso   1.000  Cu
  Cu4      1.0000 0.23565  0.91266  0.33281  Biso   1.000  Cu
  Cu5      1.0000 0.73565  0.58734  0.83281  Biso   1.000  Cu
  Cu6      1.0000 0.76435  0.41266  0.83281  Biso   1.000  Cu
  Cu7      1.0000 0.73565  0.91266  0.66719  Biso   1.000  Cu
  Cu8      1.0000 0.76435  0.08734  0.66719  Biso   1.000  Cu
  O1       1.0000 0.37260  0.42459  0.14730  Biso   1.000  O
  O2       1.0000 0.12740  0.57541  0.14730  Biso   1.000  O
  O3       1.0000 0.37260  0.07541  0.35270  Biso   1.000  O
  O4       1.0000 0.12740  0.92459  0.35270  Biso   1.000  O
  O5       1.0000 0.62740  0.57541  0.85270  Biso   1.000  O
  O6       1.0000 0.87260  0.42459  0.85270  Biso   1.000  O
  O7       1.0000 0.62740  0.92459  0.64730  Biso   1.000  O
  O8       1.0000 0.87260  0.07541  0.64730  Biso   1.000  O
  O9       1.0000 0.34400  0.48578  0.26900  Biso   1.000  O
  O10      1.0000 0.15600  0.51422  0.26900  Biso   1.000  O
  O11      1.0000 0.34400  0.01422  0.23100  Biso   1.000  O
  O12      1.0000 0.15600  0.98578  0.23100  Biso   1.000  O
  O13      1.0000 0.65600  0.51422  0.73100  Biso   1.000  O
  O14      1.0000 0.84400  0.48578  0.73100  Biso   1.000  O
  O15      1.0000 0.65600  0.98578  0.76900  Biso   1.000  O
  O16      1.0000 0.84400  0.01422  0.76900  Biso   1.000  O
  O17      1.0000 0.64490  0.40676  0.91760  Biso   1.000  O
  O18      1.0000 0.85510  0.59324  0.91760  Biso   1.000  O
  O19      1.0000 0.64490  0.09324  0.58240  Biso   1.000  O
  O20      1.0000 0.85510  0.90676  0.58240  Biso   1.000  O
  O21      1.0000 0.35510  0.59324  0.08240  Biso   1.000  O
  O22      1.0000 0.14490  0.40676  0.08240  Biso   1.000  O
  O23      1.0000 0.35510  0.90676  0.41760  Biso   1.000  O
  O24      1.0000 0.14490  0.09324  0.41760  Biso   1.000  O
  O25      1.0000 0.73100  0.44948  0.01500  Biso   1.000  O
  O26      1.0000 0.76900  0.55052  0.01500  Biso   1.000  O
  O27      1.0000 0.73100  0.05052  0.48500  Biso   1.000  O
  O28      1.0000 0.76900  0.94948  0.48500  Biso   1.000  O
  O29      1.0000 0.26900  0.55052  0.98500  Biso   1.000  O
  O30      1.0000 0.23100  0.44948  0.98500  Biso   1.000  O
  O31      1.0000 0.26900  0.94948  0.51500  Biso   1.000  O
  O32      1.0000 0.23100  0.05052  0.51500  Biso   1.000  O
  O33      1.0000 0.21460  0.43989  0.40520  Biso   1.000  O
  O34      1.0000 0.28540  0.56011  0.40520  Biso   1.000  O
  O35      1.0000 0.21460  0.06011  0.09480  Biso   1.000  O
  O36      1.0000 0.28540  0.93989  0.09480  Biso   1.000  O
  O37      1.0000 0.78540  0.56011  0.59480  Biso   1.000  O
  O38      1.0000 0.71460  0.43989  0.59480  Biso   1.000  O
  O39      1.0000 0.78540  0.93989  0.90520  Biso   1.000  O
  O40      1.0000 0.71460  0.06011  0.90520  Biso   1.000  O
  H1       1.0000 0.16710  0.43410  0.40980  Biso   1.000  H
  H2       1.0000 0.33290  0.56590  0.40980  Biso   1.000  H
  H3       1.0000 0.16710  0.06590  0.09020  Biso   1.000  H
  H4       1.0000 0.33290  0.93410  0.09020  Biso   1.000  H
  H5       1.0000 0.83290  0.56590  0.59020  Biso   1.000  H
  H6       1.0000 0.66710  0.43410  0.59020  Biso   1.000  H
  H7       1.0000 0.83290  0.93410  0.90980  Biso   1.000  H
  H8       1.0000 0.66710  0.06590  0.90980  Biso   1.000  H
  H9       1.0000 0.22050  0.46660  0.40560  Biso   1.000  H
  H10      1.0000 0.27950  0.53340  0.40560  Biso   1.000  H
  H11      1.0000 0.22050  0.03340  0.09440  Biso   1.000  H
  H12      1.0000 0.27950  0.96660  0.09440  Biso   1.000  H
  H13      1.0000 0.77950  0.53340  0.59440  Biso   1.000  H
  H14      1.0000 0.72050  0.46660  0.59440  Biso   1.000  H
  H15      1.0000 0.77950  0.96660  0.90560  Biso   1.000  H
  H16      1.0000 0.72050  0.03340  0.90560  Biso   1.000  H
  N1       1.0000 0.72100  0.85723  0.78000  Biso   1.000  N
  N2       1.0000 0.77900  0.14277  0.78000  Biso   1.000  N
  N3       1.0000 0.72100  0.64277  0.72000  Biso   1.000  N
  N4       1.0000 0.77900  0.35723  0.72000  Biso   1.000  N
  N5       1.0000 0.27900  0.14277  0.22000  Biso   1.000  N
  N6       1.0000 0.22100  0.85723  0.22000  Biso   1.000  N
  N7       1.0000 0.27900  0.35723  0.28000  Biso   1.000  N
  N8       1.0000 0.22100  0.64277  0.28000  Biso   1.000  N
  N9       1.0000 0.61430  0.59775  0.28710  Biso   1.000  N
  N10      1.0000 0.88570  0.40225  0.28710  Biso   1.000  N
  N11      1.0000 0.61430  0.90225  0.21290  Biso   1.000  N
  N12      1.0000 0.88570  0.09775  0.21290  Biso   1.000  N
  N13      1.0000 0.38570  0.40225  0.71290  Biso   1.000  N
  N14      1.0000 0.11430  0.59775  0.71290  Biso   1.000  N
  N15      1.0000 0.38570  0.09775  0.78710  Biso   1.000  N
  N16      1.0000 0.11430  0.90225  0.78710  Biso   1.000  N
  C1       1.0000 0.39060  0.46104  0.20510  Biso   1.000  C
  C2       1.0000 0.10940  0.53896  0.20510  Biso   1.000  C
  C3       1.0000 0.39060  0.03896  0.29490  Biso   1.000  C
  C4       1.0000 0.10940  0.96104  0.29490  Biso   1.000  C
  C5       1.0000 0.60940  0.53896  0.79490  Biso   1.000  C
  C6       1.0000 0.89060  0.46104  0.79490  Biso   1.000  C
  C7       1.0000 0.60940  0.96104  0.70510  Biso   1.000  C
  C8       1.0000 0.89060  0.03896  0.70510  Biso   1.000  C
  C9       1.0000 0.47360  0.47301  0.20000  Biso   1.000  C
  C10      1.0000 0.02640  0.52699  0.20000  Biso   1.000  C
  C11      1.0000 0.47360  0.02699  0.30000  Biso   1.000  C
  C12      1.0000 0.02640  0.97301  0.30000  Biso   1.000  C
  C13      1.0000 0.52640  0.52699  0.80000  Biso   1.000  C
  C14      1.0000 0.97360  0.47301  0.80000  Biso   1.000  C
  C15      1.0000 0.52640  0.97301  0.70000  Biso   1.000  C
  C16      1.0000 0.97360  0.02699  0.70000  Biso   1.000  C
  C17      1.0000 0.52780  0.44865  0.11300  Biso   1.000  C
  C18      1.0000 0.97220  0.55135  0.11300  Biso   1.000  C
  C19      1.0000 0.52780  0.05135  0.38700  Biso   1.000  C
  C20      1.0000 0.97220  0.94865  0.38700  Biso   1.000  C
  C21      1.0000 0.47220  0.55135  0.88700  Biso   1.000  C
  C22      1.0000 0.02780  0.44865  0.88700  Biso   1.000  C
  C23      1.0000 0.47220  0.94865  0.61300  Biso   1.000  C
  C24      1.0000 0.02780  0.05135  0.61300  Biso   1.000  C
  H17      1.0000 0.51250  0.42420  0.05760  Biso   1.000  H
  H18      1.0000 0.98750  0.57580  0.05760  Biso   1.000  H
  H19      1.0000 0.51250  0.07580  0.44240  Biso   1.000  H
  H20      1.0000 0.98750  0.92420  0.44240  Biso   1.000  H
  H21      1.0000 0.48750  0.57580  0.94240  Biso   1.000  H
  H22      1.0000 0.01250  0.42420  0.94240  Biso   1.000  H
  H23      1.0000 0.48750  0.92420  0.55760  Biso   1.000  H
  H24      1.0000 0.01250  0.07580  0.55760  Biso   1.000  H
  C25      1.0000 0.60430  0.46089  0.10910  Biso   1.000  C
  C26      1.0000 0.89570  0.53911  0.10910  Biso   1.000  C
  C27      1.0000 0.60430  0.03911  0.39090  Biso   1.000  C
  C28      1.0000 0.89570  0.96089  0.39090  Biso   1.000  C
  C29      1.0000 0.39570  0.53911  0.89090  Biso   1.000  C
  C30      1.0000 0.10430  0.46089  0.89090  Biso   1.000  C
  C31      1.0000 0.39570  0.96089  0.60910  Biso   1.000  C
  C32      1.0000 0.10430  0.03911  0.60910  Biso   1.000  C
  C33      1.0000 0.62740  0.49707  0.19470  Biso   1.000  C
  C34      1.0000 0.87260  0.50293  0.19470  Biso   1.000  C
  C35      1.0000 0.62740  0.00293  0.30530  Biso   1.000  C
  C36      1.0000 0.87260  0.99707  0.30530  Biso   1.000  C
  C37      1.0000 0.37260  0.50293  0.80530  Biso   1.000  C
  C38      1.0000 0.12740  0.49707  0.80530  Biso   1.000  C
  C39      1.0000 0.37260  0.99707  0.69470  Biso   1.000  C
  C40      1.0000 0.12740  0.00293  0.69470  Biso   1.000  C
  H25      1.0000 0.67850  0.50530  0.19190  Biso   1.000  H
  H26      1.0000 0.82150  0.49470  0.19190  Biso   1.000  H
  H27      1.0000 0.67850  0.99470  0.30810  Biso   1.000  H
  H28      1.0000 0.82150  0.00530  0.30810  Biso   1.000  H
  H29      1.0000 0.32150  0.49470  0.80810  Biso   1.000  H
  H30      1.0000 0.17850  0.50530  0.80810  Biso   1.000  H
  H31      1.0000 0.32150  0.00530  0.69190  Biso   1.000  H
  H32      1.0000 0.17850  0.99470  0.69190  Biso   1.000  H
  C41      1.0000 0.57400  0.52111  0.28510  Biso   1.000  C
  C42      1.0000 0.92600  0.47889  0.28510  Biso   1.000  C
  C43      1.0000 0.57400  0.97889  0.21490  Biso   1.000  C
  C44      1.0000 0.92600  0.02111  0.21490  Biso   1.000  C
  C45      1.0000 0.42600  0.47889  0.71490  Biso   1.000  C
  C46      1.0000 0.07400  0.52111  0.71490  Biso   1.000  C
  C47      1.0000 0.42600  0.02111  0.78510  Biso   1.000  C
  C48      1.0000 0.07400  0.97889  0.78510  Biso   1.000  C
  C49      1.0000 0.49730  0.50924  0.28600  Biso   1.000  C
  C50      1.0000 0.00270  0.49076  0.28600  Biso   1.000  C
  C51      1.0000 0.49730  0.99076  0.21400  Biso   1.000  C
  C52      1.0000 0.00270  0.00924  0.21400  Biso   1.000  C
  C53      1.0000 0.50270  0.49076  0.71400  Biso   1.000  C
  C54      1.0000 0.99730  0.50924  0.71400  Biso   1.000  C
  C55      1.0000 0.50270  0.00924  0.78600  Biso   1.000  C
  C56      1.0000 0.99730  0.99076  0.78600  Biso   1.000  C
  H33      1.0000 0.46170  0.52550  0.34410  Biso   1.000  H
  H34      1.0000 0.03830  0.47450  0.34410  Biso   1.000  H
  H35      1.0000 0.46170  0.97450  0.15590  Biso   1.000  H
  H36      1.0000 0.03830  0.02550  0.15590  Biso   1.000  H
  H37      1.0000 0.53830  0.47450  0.65590  Biso   1.000  H
  H38      1.0000 0.96170  0.52550  0.65590  Biso   1.000  H
  H39      1.0000 0.53830  0.02550  0.84410  Biso   1.000  H
  H40      1.0000 0.96170  0.97450  0.84410  Biso   1.000  H
  C57      1.0000 0.66190  0.43729  0.01000  Biso   1.000  C
  C58      1.0000 0.83810  0.56271  0.01000  Biso   1.000  C
  C59      1.0000 0.66190  0.06271  0.49000  Biso   1.000  C
  C60      1.0000 0.83810  0.93729  0.49000  Biso   1.000  C
  C61      1.0000 0.33810  0.56271  0.99000  Biso   1.000  C
  C62      1.0000 0.16190  0.43729  0.99000  Biso   1.000  C
  C63      1.0000 0.33810  0.93729  0.51000  Biso   1.000  C
  C64      1.0000 0.16190  0.06271  0.51000  Biso   1.000  C
  C65      1.0000 0.60040  0.55821  0.38920  Biso   1.000  C
  C66      1.0000 0.89960  0.44179  0.38920  Biso   1.000  C
  C67      1.0000 0.60040  0.94179  0.11080  Biso   1.000  C
  C68      1.0000 0.89960  0.05821  0.11080  Biso   1.000  C
  C69      1.0000 0.39960  0.44179  0.61080  Biso   1.000  C
  C70      1.0000 0.10040  0.55821  0.61080  Biso   1.000  C
  C71      1.0000 0.39960  0.05821  0.88920  Biso   1.000  C
  C72      1.0000 0.10040  0.94179  0.88920  Biso   1.000  C
  H41      1.0000 0.56210  0.56420  0.47380  Biso   1.000  H
  H42      1.0000 0.93790  0.43580  0.47380  Biso   1.000  H
  H43      1.0000 0.56210  0.93580  0.02620  Biso   1.000  H
  H44      1.0000 0.93790  0.06420  0.02620  Biso   1.000  H
  H45      1.0000 0.43790  0.43580  0.52620  Biso   1.000  H
  H46      1.0000 0.06210  0.56420  0.52620  Biso   1.000  H
  H47      1.0000 0.43790  0.06420  0.97380  Biso   1.000  H
  H48      1.0000 0.06210  0.93580  0.97380  Biso   1.000  H
  H49      1.0000 0.64740  0.55050  0.44650  Biso   1.000  H
  H50      1.0000 0.85260  0.44950  0.44650  Biso   1.000  H
  H51      1.0000 0.64740  0.94950  0.05350  Biso   1.000  H
  H52      1.0000 0.85260  0.05050  0.05350  Biso   1.000  H
  H53      1.0000 0.35260  0.44950  0.55350  Biso   1.000  H
  H54      1.0000 0.14740  0.55050  0.55350  Biso   1.000  H
  H55      1.0000 0.35260  0.05050  0.94650  Biso   1.000  H
  H56      1.0000 0.14740  0.94950  0.94650  Biso   1.000  H
  C73      1.0000 0.68510  0.61315  0.26980  Biso   1.000  C
  C74      1.0000 0.81490  0.38685  0.26980  Biso   1.000  C
  C75      1.0000 0.68510  0.88685  0.23020  Biso   1.000  C
  C76      1.0000 0.81490  0.11315  0.23020  Biso   1.000  C
  C77      1.0000 0.31490  0.38685  0.73020  Biso   1.000  C
  C78      1.0000 0.18510  0.61315  0.73020  Biso   1.000  C
  C79      1.0000 0.31490  0.11315  0.76980  Biso   1.000  C
  C80      1.0000 0.18510  0.88685  0.76980  Biso   1.000  C
  H57      1.0000 0.72670  0.59850  0.31370  Biso   1.000  H
  H58      1.0000 0.77330  0.40150  0.31370  Biso   1.000  H
  H59      1.0000 0.72670  0.90150  0.18630  Biso   1.000  H
  H60      1.0000 0.77330  0.09850  0.18630  Biso   1.000  H
  H61      1.0000 0.27330  0.40150  0.68630  Biso   1.000  H
  H62      1.0000 0.22670  0.59850  0.68630  Biso   1.000  H
  H63      1.0000 0.27330  0.09850  0.81370  Biso   1.000  H
  H64      1.0000 0.22670  0.90150  0.81370  Biso   1.000  H
  C81      1.0000 0.69620  0.65120  0.18610  Biso   1.000  C
  C82      1.0000 0.80380  0.34880  0.18610  Biso   1.000  C
  C83      1.0000 0.69620  0.84880  0.31390  Biso   1.000  C
  C84      1.0000 0.80380  0.15120  0.31390  Biso   1.000  C
  C85      1.0000 0.30380  0.34880  0.81390  Biso   1.000  C
  C86      1.0000 0.19620  0.65120  0.81390  Biso   1.000  C
  C87      1.0000 0.30380  0.15120  0.68610  Biso   1.000  C
  C88      1.0000 0.19620  0.84880  0.68610  Biso   1.000  C
  H65      1.0000 0.74540  0.66200  0.17320  Biso   1.000  H
  H66      1.0000 0.75460  0.33800  0.17320  Biso   1.000  H
  H67      1.0000 0.74540  0.83800  0.32680  Biso   1.000  H
  H68      1.0000 0.75460  0.16200  0.32680  Biso   1.000  H
  H69      1.0000 0.25460  0.33800  0.82680  Biso   1.000  H
  H70      1.0000 0.24540  0.66200  0.82680  Biso   1.000  H
  H71      1.0000 0.25460  0.16200  0.67320  Biso   1.000  H
  H72      1.0000 0.24540  0.83800  0.67320  Biso   1.000  H
  C89      1.0000 0.63430  0.67301  0.12190  Biso   1.000  C
  C90      1.0000 0.86570  0.32699  0.12190  Biso   1.000  C
  C91      1.0000 0.63430  0.82699  0.37810  Biso   1.000  C
  C92      1.0000 0.86570  0.17301  0.37810  Biso   1.000  C
  C93      1.0000 0.36570  0.32699  0.87810  Biso   1.000  C
  C94      1.0000 0.13430  0.67301  0.87810  Biso   1.000  C
  C95      1.0000 0.36570  0.17301  0.62190  Biso   1.000  C
  C96      1.0000 0.13430  0.82699  0.62190  Biso   1.000  C
  C97      1.0000 0.56390  0.65540  0.13800  Biso   1.000  C
  C98      1.0000 0.93610  0.34460  0.13800  Biso   1.000  C
  C99      1.0000 0.56390  0.84460  0.36200  Biso   1.000  C
  C100     1.0000 0.93610  0.15540  0.36200  Biso   1.000  C
  C101     1.0000 0.43610  0.34460  0.86200  Biso   1.000  C
  C102     1.0000 0.06390  0.65540  0.86200  Biso   1.000  C
  C103     1.0000 0.43610  0.15540  0.63800  Biso   1.000  C
  C104     1.0000 0.06390  0.84460  0.63800  Biso   1.000  C
  H73      1.0000 0.52170  0.66900  0.09150  Biso   1.000  H
  H74      1.0000 0.97830  0.33100  0.09150  Biso   1.000  H
  H75      1.0000 0.52170  0.83100  0.40850  Biso   1.000  H
  H76      1.0000 0.97830  0.16900  0.40850  Biso   1.000  H
  H77      1.0000 0.47830  0.33100  0.90850  Biso   1.000  H
  H78      1.0000 0.02170  0.66900  0.90850  Biso   1.000  H
  H79      1.0000 0.47830  0.16900  0.59150  Biso   1.000  H
  H80      1.0000 0.02170  0.83100  0.59150  Biso   1.000  H
  C105     1.0000 0.55420  0.61837  0.22100  Biso   1.000  C
  C106     1.0000 0.94580  0.38163  0.22100  Biso   1.000  C
  C107     1.0000 0.55420  0.88163  0.27900  Biso   1.000  C
  C108     1.0000 0.94580  0.11837  0.27900  Biso   1.000  C
  C109     1.0000 0.44580  0.38163  0.77900  Biso   1.000  C
  C110     1.0000 0.05420  0.61837  0.77900  Biso   1.000  C
  C111     1.0000 0.44580  0.11837  0.72100  Biso   1.000  C
  C112     1.0000 0.05420  0.88163  0.72100  Biso   1.000  C
  H81      1.0000 0.50530  0.60710  0.23230  Biso   1.000  H
  H82      1.0000 0.99470  0.39290  0.23230  Biso   1.000  H
  H83      1.0000 0.50530  0.89290  0.26770  Biso   1.000  H
  H84      1.0000 0.99470  0.10710  0.26770  Biso   1.000  H
  H85      1.0000 0.49470  0.39290  0.76770  Biso   1.000  H
  H86      1.0000 0.00530  0.60710  0.76770  Biso   1.000  H
  H87      1.0000 0.49470  0.10710  0.73230  Biso   1.000  H
  H88      1.0000 0.00530  0.89290  0.73230  Biso   1.000  H
  C113     1.0000 0.63930  0.71550  0.03980  Biso   1.000  C
  C114     1.0000 0.86070  0.28450  0.03980  Biso   1.000  C
  C115     1.0000 0.63930  0.78450  0.46020  Biso   1.000  C
  C116     1.0000 0.86070  0.21550  0.46020  Biso   1.000  C
  C117     1.0000 0.36070  0.28450  0.96020  Biso   1.000  C
  C118     1.0000 0.13930  0.71550  0.96020  Biso   1.000  C
  C119     1.0000 0.36070  0.21550  0.53980  Biso   1.000  C
  C120     1.0000 0.13930  0.78450  0.53980  Biso   1.000  C
  H89      1.0000 0.59400  0.72760  0.00100  Biso   1.000  H
  H90      1.0000 0.90600  0.27240  0.00100  Biso   1.000  H
  H91      1.0000 0.59400  0.77240  0.49900  Biso   1.000  H
  H92      1.0000 0.90600  0.22760  0.49900  Biso   1.000  H
  H93      1.0000 0.40600  0.27240  0.99900  Biso   1.000  H
  H94      1.0000 0.09400  0.72760  0.99900  Biso   1.000  H
  H95      1.0000 0.40600  0.22760  0.50100  Biso   1.000  H
  H96      1.0000 0.09400  0.77240  0.50100  Biso   1.000  H
  C121     1.0000 0.70280  0.73720  0.01850  Biso   1.000  C
  C122     1.0000 0.79720  0.26280  0.01850  Biso   1.000  C
  C123     1.0000 0.70280  0.76280  0.48150  Biso   1.000  C
  C124     1.0000 0.79720  0.23720  0.48150  Biso   1.000  C
  C125     1.0000 0.29720  0.26280  0.98150  Biso   1.000  C
  C126     1.0000 0.20280  0.73720  0.98150  Biso   1.000  C
  C127     1.0000 0.29720  0.23720  0.51850  Biso   1.000  C
  C128     1.0000 0.20280  0.76280  0.51850  Biso   1.000  C
  H97      1.0000 0.74820  0.72530  0.05720  Biso   1.000  H
  H98      1.0000 0.75180  0.27470  0.05720  Biso   1.000  H
  H99      1.0000 0.74820  0.77470  0.44280  Biso   1.000  H
  H100     1.0000 0.75180  0.22530  0.44280  Biso   1.000  H
  H101     1.0000 0.25180  0.27470  0.94280  Biso   1.000  H
  H102     1.0000 0.24820  0.72530  0.94280  Biso   1.000  H
  H103     1.0000 0.25180  0.22530  0.55720  Biso   1.000  H
  H104     1.0000 0.24820  0.77470  0.55720  Biso   1.000  H
  C129     1.0000 0.70680  0.77864  0.93830  Biso   1.000  C
  C130     1.0000 0.79320  0.22136  0.93830  Biso   1.000  C
  C131     1.0000 0.70680  0.72136  0.56170  Biso   1.000  C
  C132     1.0000 0.79320  0.27864  0.56170  Biso   1.000  C
  C133     1.0000 0.29320  0.22136  0.06170  Biso   1.000  C
  C134     1.0000 0.20680  0.77864  0.06170  Biso   1.000  C
  C135     1.0000 0.29320  0.27864  0.43830  Biso   1.000  C
  C136     1.0000 0.20680  0.72136  0.43830  Biso   1.000  C
  C137     1.0000 0.77750  0.79450  0.89480  Biso   1.000  C
  C138     1.0000 0.72250  0.20550  0.89480  Biso   1.000  C
  C139     1.0000 0.77750  0.70550  0.60520  Biso   1.000  C
  C140     1.0000 0.72250  0.29450  0.60520  Biso   1.000  C
  C141     1.0000 0.22250  0.20550  0.10520  Biso   1.000  C
  C142     1.0000 0.27750  0.79450  0.10520  Biso   1.000  C
  C143     1.0000 0.22250  0.29450  0.39480  Biso   1.000  C
  C144     1.0000 0.27750  0.70550  0.39480  Biso   1.000  C
  H105     1.0000 0.82170  0.77920  0.91820  Biso   1.000  H
  H106     1.0000 0.67830  0.22080  0.91820  Biso   1.000  H
  H107     1.0000 0.82170  0.72080  0.58180  Biso   1.000  H
  H108     1.0000 0.67830  0.27920  0.58180  Biso   1.000  H
  H109     1.0000 0.17830  0.22080  0.08180  Biso   1.000  H
  H110     1.0000 0.32170  0.77920  0.08180  Biso   1.000  H
  H111     1.0000 0.17830  0.27920  0.41820  Biso   1.000  H
  H112     1.0000 0.32170  0.72080  0.41820  Biso   1.000  H
  C145     1.0000 0.78220  0.83340  0.81610  Biso   1.000  C
  C146     1.0000 0.71780  0.16660  0.81610  Biso   1.000  C
  C147     1.0000 0.78220  0.66660  0.68390  Biso   1.000  C
  C148     1.0000 0.71780  0.33340  0.68390  Biso   1.000  C
  C149     1.0000 0.21780  0.16660  0.18390  Biso   1.000  C
  C150     1.0000 0.28220  0.83340  0.18390  Biso   1.000  C
  C151     1.0000 0.21780  0.33340  0.31610  Biso   1.000  C
  C152     1.0000 0.28220  0.66660  0.31610  Biso   1.000  C
  H113     1.0000 0.83040  0.84350  0.78660  Biso   1.000  H
  H114     1.0000 0.66960  0.15650  0.78660  Biso   1.000  H
  H115     1.0000 0.83040  0.65650  0.71340  Biso   1.000  H
  H116     1.0000 0.66960  0.34350  0.71340  Biso   1.000  H
  H117     1.0000 0.16960  0.15650  0.21340  Biso   1.000  H
  H118     1.0000 0.33040  0.84350  0.21340  Biso   1.000  H
  H119     1.0000 0.16960  0.34350  0.28660  Biso   1.000  H
  H120     1.0000 0.33040  0.65650  0.28660  Biso   1.000  H
  C153     1.0000 0.65270  0.84254  0.82460  Biso   1.000  C
  C154     1.0000 0.84730  0.15746  0.82460  Biso   1.000  C
  C155     1.0000 0.65270  0.65746  0.67540  Biso   1.000  C
  C156     1.0000 0.84730  0.34254  0.67540  Biso   1.000  C
  C157     1.0000 0.34730  0.15746  0.17540  Biso   1.000  C
  C158     1.0000 0.15270  0.84254  0.17540  Biso   1.000  C
  C159     1.0000 0.34730  0.34254  0.32460  Biso   1.000  C
  C160     1.0000 0.15270  0.65746  0.32460  Biso   1.000  C
  H121     1.0000 0.61010  0.85910  0.80090  Biso   1.000  H
  H122     1.0000 0.88990  0.14090  0.80090  Biso   1.000  H
  H123     1.0000 0.61010  0.64090  0.69910  Biso   1.000  H
  H124     1.0000 0.88990  0.35910  0.69910  Biso   1.000  H
  H125     1.0000 0.38990  0.14090  0.19910  Biso   1.000  H
  H126     1.0000 0.11010  0.85910  0.19910  Biso   1.000  H
  H127     1.0000 0.38990  0.35910  0.30090  Biso   1.000  H
  H128     1.0000 0.11010  0.64090  0.30090  Biso   1.000  H
  C161     1.0000 0.64120  0.80450  0.90340  Biso   1.000  C
  C162     1.0000 0.85880  0.19550  0.90340  Biso   1.000  C
  C163     1.0000 0.64120  0.69550  0.59660  Biso   1.000  C
  C164     1.0000 0.85880  0.30450  0.59660  Biso   1.000  C
  C165     1.0000 0.35880  0.19550  0.09660  Biso   1.000  C
  C166     1.0000 0.14120  0.80450  0.09660  Biso   1.000  C
  C167     1.0000 0.35880  0.30450  0.40340  Biso   1.000  C
  C168     1.0000 0.14120  0.69550  0.40340  Biso   1.000  C
  H129     1.0000 0.59220  0.79580  0.93340  Biso   1.000  H
  H130     1.0000 0.90780  0.20420  0.93340  Biso   1.000  H
  H131     1.0000 0.59220  0.70420  0.56660  Biso   1.000  H
  H132     1.0000 0.90780  0.29580  0.56660  Biso   1.000  H
  H133     1.0000 0.40780  0.20420  0.06660  Biso   1.000  H
  H134     1.0000 0.09220  0.79580  0.06660  Biso   1.000  H
  H135     1.0000 0.40780  0.29580  0.43340  Biso   1.000  H
  H136     1.0000 0.09220  0.70420  0.43340  Biso   1.000  H
  O41      1.0000 0.42510  0.59820  0.49510  Biso   1.000  O
  O42      1.0000 0.07490  0.40180  0.49510  Biso   1.000  O
  O43      1.0000 0.42510  0.90180  0.00490  Biso   1.000  O
  O44      1.0000 0.07490  0.09820  0.00490  Biso   1.000  O
  O45      1.0000 0.57490  0.40180  0.50490  Biso   1.000  O
  O46      1.0000 0.92510  0.59820  0.50490  Biso   1.000  O
  O47      1.0000 0.57490  0.09820  0.99510  Biso   1.000  O
  O48      1.0000 0.92510  0.90180  0.99510  Biso   1.000  O
  O49      1.0000 0.47250  0.65090  0.61400  Biso   1.000  O
  O50      1.0000 0.02750  0.34910  0.61400  Biso   1.000  O
  O51      1.0000 0.47250  0.84910  0.88600  Biso   1.000  O
  O52      1.0000 0.02750  0.15090  0.88600  Biso   1.000  O
  O53      1.0000 0.52750  0.34910  0.38600  Biso   1.000  O
  O54      1.0000 0.97250  0.65090  0.38600  Biso   1.000  O
  O55      1.0000 0.52750  0.15090  0.11400  Biso   1.000  O
  O56      1.0000 0.97250  0.84910  0.11400  Biso   1.000  O
  O57      1.0000 0.35990  0.63040  0.66940  Biso   1.000  O
  O58      1.0000 0.14010  0.36960  0.66940  Biso   1.000  O
  O59      1.0000 0.35990  0.86960  0.83060  Biso   1.000  O
  O60      1.0000 0.14010  0.13040  0.83060  Biso   1.000  O
  O61      1.0000 0.64010  0.36960  0.33060  Biso   1.000  O
  O62      1.0000 0.85990  0.63040  0.33060  Biso   1.000  O
  O63      1.0000 0.64010  0.13040  0.16940  Biso   1.000  O
  O64      1.0000 0.85990  0.86960  0.16940  Biso   1.000  O
  N17      1.0000 0.42170  0.62720  0.58610  Biso   1.000  N
  N18      1.0000 0.07830  0.37280  0.58610  Biso   1.000  N
  N19      1.0000 0.42170  0.87280  0.91390  Biso   1.000  N
  N20      1.0000 0.07830  0.12720  0.91390  Biso   1.000  N
  N21      1.0000 0.57830  0.37280  0.41390  Biso   1.000  N
  N22      1.0000 0.92170  0.62720  0.41390  Biso   1.000  N
  N23      1.0000 0.57830  0.12720  0.08610  Biso   1.000  N
  N24      1.0000 0.92170  0.87280  0.08610  Biso   1.000  N
  O65      1.0000 0.38220  0.69780  0.91200  Biso   1.000  O
  O66      1.0000 0.11780  0.30220  0.91200  Biso   1.000  O
  O67      1.0000 0.38220  0.80220  0.58800  Biso   1.000  O
  O68      1.0000 0.11780  0.19780  0.58800  Biso   1.000  O
  O69      1.0000 0.61780  0.30220  0.08800  Biso   1.000  O
  O70      1.0000 0.88220  0.69780  0.08800  Biso   1.000  O
  O71      1.0000 0.61780  0.19780  0.41200  Biso   1.000  O
  O72      1.0000 0.88220  0.80220  0.41200  Biso   1.000  O
  H137     1.0000 0.38110  0.67590  0.84990  Biso   1.000  H
  H138     1.0000 0.11890  0.32410  0.84990  Biso   1.000  H
  H139     1.0000 0.38110  0.82410  0.65010  Biso   1.000  H
  H140     1.0000 0.11890  0.17590  0.65010  Biso   1.000  H
  H141     1.0000 0.61890  0.32410  0.15010  Biso   1.000  H
  H142     1.0000 0.88110  0.67590  0.15010  Biso   1.000  H
  H143     1.0000 0.61890  0.17590  0.34990  Biso   1.000  H
  H144     1.0000 0.88110  0.82410  0.34990  Biso   1.000  H
  H145     1.0000 0.36730  0.69130  0.00990  Biso   1.000  H
  H146     1.0000 0.13270  0.30870  0.00990  Biso   1.000  H
  H147     1.0000 0.36730  0.80870  0.49010  Biso   1.000  H
  H148     1.0000 0.13270  0.19130  0.49010  Biso   1.000  H
  H149     1.0000 0.63270  0.30870  0.99010  Biso   1.000  H
  H150     1.0000 0.86730  0.69130  0.99010  Biso   1.000  H
  H151     1.0000 0.63270  0.19130  0.50990  Biso   1.000  H
  H152     1.0000 0.86730  0.80870  0.50990  Biso   1.000  H
