data_image0
_cell_length_a       11.1816
_cell_length_b       14.9578
_cell_length_c       21.353
_cell_angle_alpha    90
_cell_angle_beta     92.15
_cell_angle_gamma    90

_symmetry_space_group_name_H-M    "P 1"
_symmetry_int_tables_number       1

loop_
  _symmetry_equiv_pos_as_xyz
  'x, y, z'

loop_
  _atom_site_label
  _atom_site_occupancy
  _atom_site_fract_x
  _atom_site_fract_y
  _atom_site_fract_z
  _atom_site_thermal_displace_type
  _atom_site_B_iso_or_equiv
  _atom_site_type_symbol
  Cu1      1.0000 0.40313  0.76197  0.70104  Biso   1.000  Cu
  Cu2      1.0000 0.09687  0.26197  0.79896  Biso   1.000  Cu
  Cu3      1.0000 0.59687  0.23803  0.29896  Biso   1.000  Cu
  Cu4      1.0000 0.90313  0.73803  0.20104  Biso   1.000  Cu
  C1       1.0000 0.97400  0.14410  0.69960  Biso   1.000  C
  C2       1.0000 0.52600  0.64410  0.80040  Biso   1.000  C
  C3       1.0000 0.02600  0.85590  0.30040  Biso   1.000  C
  C4       1.0000 0.47400  0.35590  0.19960  Biso   1.000  C
  H1       1.0000 0.00870  0.17230  0.66600  Biso   1.000  H
  H2       1.0000 0.49130  0.67230  0.83400  Biso   1.000  H
  H3       1.0000 0.99130  0.82770  0.33400  Biso   1.000  H
  H4       1.0000 0.50870  0.32770  0.16600  Biso   1.000  H
  C5       1.0000 0.92330  0.11500  0.79040  Biso   1.000  C
  C6       1.0000 0.57670  0.61500  0.70960  Biso   1.000  C
  C7       1.0000 0.07670  0.88500  0.20960  Biso   1.000  C
  C8       1.0000 0.42330  0.38500  0.29040  Biso   1.000  C
  H5       1.0000 0.91110  0.11780  0.83320  Biso   1.000  H
  H6       1.0000 0.58890  0.61780  0.66680  Biso   1.000  H
  H7       1.0000 0.08890  0.88220  0.16680  Biso   1.000  H
  H8       1.0000 0.41110  0.38220  0.33320  Biso   1.000  H
  C9       1.0000 0.81800  0.97010  0.77000  Biso   1.000  C
  C10      1.0000 0.68200  0.47010  0.73000  Biso   1.000  C
  C11      1.0000 0.18200  0.02990  0.23000  Biso   1.000  C
  C12      1.0000 0.31800  0.52990  0.27000  Biso   1.000  C
  H9       1.0000 0.75590  0.95770  0.73820  Biso   1.000  H
  H10      1.0000 0.74410  0.45770  0.76180  Biso   1.000  H
  H11      1.0000 0.24410  0.04230  0.26180  Biso   1.000  H
  H12      1.0000 0.25590  0.54230  0.23820  Biso   1.000  H
  H13      1.0000 0.77920  0.98040  0.80920  Biso   1.000  H
  H14      1.0000 0.72080  0.48040  0.69080  Biso   1.000  H
  H15      1.0000 0.22080  0.01960  0.19080  Biso   1.000  H
  H16      1.0000 0.27920  0.51960  0.30920  Biso   1.000  H
  C13      1.0000 0.89870  0.88760  0.77730  Biso   1.000  C
  C14      1.0000 0.60130  0.38760  0.72270  Biso   1.000  C
  C15      1.0000 0.10130  0.11240  0.22270  Biso   1.000  C
  C16      1.0000 0.39870  0.61240  0.27730  Biso   1.000  C
  H17      1.0000 0.85050  0.83520  0.78520  Biso   1.000  H
  H18      1.0000 0.64950  0.33520  0.71480  Biso   1.000  H
  H19      1.0000 0.14950  0.16480  0.21480  Biso   1.000  H
  H20      1.0000 0.35050  0.66480  0.28520  Biso   1.000  H
  H21      1.0000 0.94090  0.87770  0.73910  Biso   1.000  H
  H22      1.0000 0.55910  0.37770  0.76090  Biso   1.000  H
  H23      1.0000 0.05910  0.12230  0.26090  Biso   1.000  H
  H24      1.0000 0.44090  0.62230  0.23910  Biso   1.000  H
  C17      1.0000 0.98800  0.90270  0.83180  Biso   1.000  C
  C18      1.0000 0.51200  0.40270  0.66820  Biso   1.000  C
  C19      1.0000 0.01200  0.09730  0.16820  Biso   1.000  C
  C20      1.0000 0.48800  0.59730  0.33180  Biso   1.000  C
  H25      1.0000 0.05480  0.93750  0.81740  Biso   1.000  H
  H26      1.0000 0.44520  0.43750  0.68260  Biso   1.000  H
  H27      1.0000 0.94520  0.06250  0.18260  Biso   1.000  H
  H28      1.0000 0.55480  0.56250  0.31740  Biso   1.000  H
  H29      1.0000 0.94990  0.93680  0.86410  Biso   1.000  H
  H30      1.0000 0.55010  0.43680  0.63590  Biso   1.000  H
  H31      1.0000 0.05010  0.06320  0.13590  Biso   1.000  H
  H32      1.0000 0.44990  0.56320  0.36410  Biso   1.000  H
  C21      1.0000 0.03480  0.81470  0.85960  Biso   1.000  C
  C22      1.0000 0.46520  0.31470  0.64040  Biso   1.000  C
  C23      1.0000 0.96520  0.18530  0.14040  Biso   1.000  C
  C24      1.0000 0.53480  0.68530  0.35960  Biso   1.000  C
  H33      1.0000 0.07130  0.82590  0.90080  Biso   1.000  H
  H34      1.0000 0.42870  0.32590  0.59920  Biso   1.000  H
  H35      1.0000 0.92870  0.17410  0.09920  Biso   1.000  H
  H36      1.0000 0.57130  0.67410  0.40080  Biso   1.000  H
  H37      1.0000 0.96820  0.77400  0.86460  Biso   1.000  H
  H38      1.0000 0.53180  0.27400  0.63540  Biso   1.000  H
  H39      1.0000 0.03180  0.22600  0.13540  Biso   1.000  H
  H40      1.0000 0.46820  0.72600  0.36460  Biso   1.000  H
  C25      1.0000 0.22190  0.66470  0.77960  Biso   1.000  C
  C26      1.0000 0.27810  0.16470  0.72040  Biso   1.000  C
  C27      1.0000 0.77810  0.33530  0.22040  Biso   1.000  C
  C28      1.0000 0.72190  0.83530  0.27960  Biso   1.000  C
  H41      1.0000 0.24580  0.60750  0.76840  Biso   1.000  H
  H42      1.0000 0.25420  0.10750  0.73160  Biso   1.000  H
  H43      1.0000 0.75420  0.39250  0.23160  Biso   1.000  H
  H44      1.0000 0.74580  0.89250  0.26840  Biso   1.000  H
  C29      1.0000 0.20990  0.80580  0.78700  Biso   1.000  C
  C30      1.0000 0.29010  0.30580  0.71300  Biso   1.000  C
  C31      1.0000 0.79010  0.19420  0.21300  Biso   1.000  C
  C32      1.0000 0.70990  0.69420  0.28700  Biso   1.000  C
  H45      1.0000 0.22420  0.86660  0.78210  Biso   1.000  H
  H46      1.0000 0.27580  0.36660  0.71790  Biso   1.000  H
  H47      1.0000 0.77580  0.13340  0.21790  Biso   1.000  H
  H48      1.0000 0.72420  0.63340  0.28210  Biso   1.000  H
  C33      1.0000 0.30420  0.94190  0.66350  Biso   1.000  C
  C34      1.0000 0.19580  0.44190  0.83650  Biso   1.000  C
  C35      1.0000 0.69580  0.05810  0.33650  Biso   1.000  C
  C36      1.0000 0.80420  0.55810  0.16350  Biso   1.000  C
  H49      1.0000 0.37020  0.97010  0.68250  Biso   1.000  H
  H50      1.0000 0.12980  0.47010  0.81750  Biso   1.000  H
  H51      1.0000 0.62980  0.02990  0.31750  Biso   1.000  H
  H52      1.0000 0.87020  0.52990  0.18250  Biso   1.000  H
  C37      1.0000 0.19210  0.84190  0.62740  Biso   1.000  C
  C38      1.0000 0.30790  0.34190  0.87260  Biso   1.000  C
  C39      1.0000 0.80790  0.15810  0.37260  Biso   1.000  C
  C40      1.0000 0.69210  0.65810  0.12740  Biso   1.000  C
  H53      1.0000 0.15920  0.78690  0.61580  Biso   1.000  H
  H54      1.0000 0.34080  0.28690  0.88420  Biso   1.000  H
  H55      1.0000 0.84080  0.21310  0.38420  Biso   1.000  H
  H56      1.0000 0.65920  0.71310  0.11580  Biso   1.000  H
  C41      1.0000 0.03370  0.94130  0.57980  Biso   1.000  C
  C42      1.0000 0.46630  0.44130  0.92020  Biso   1.000  C
  C43      1.0000 0.96630  0.05870  0.42020  Biso   1.000  C
  C44      1.0000 0.53370  0.55870  0.07980  Biso   1.000  C
  H57      1.0000 0.98980  0.98480  0.60360  Biso   1.000  H
  H58      1.0000 0.51020  0.48480  0.89640  Biso   1.000  H
  H59      1.0000 0.01020  0.01520  0.39640  Biso   1.000  H
  H60      1.0000 0.48980  0.51520  0.10360  Biso   1.000  H
  H61      1.0000 0.98450  0.88810  0.57530  Biso   1.000  H
  H62      1.0000 0.51550  0.38810  0.92470  Biso   1.000  H
  H63      1.0000 0.01550  0.11190  0.42470  Biso   1.000  H
  H64      1.0000 0.48450  0.61190  0.07530  Biso   1.000  H
  C45      1.0000 0.05600  0.97950  0.51510  Biso   1.000  C
  C46      1.0000 0.44400  0.47950  0.98490  Biso   1.000  C
  C47      1.0000 0.94400  0.02050  0.48490  Biso   1.000  C
  C48      1.0000 0.55600  0.52050  0.01510  Biso   1.000  C
  H65      1.0000 0.11810  0.02460  0.51870  Biso   1.000  H
  H66      1.0000 0.38190  0.52460  0.98130  Biso   1.000  H
  H67      1.0000 0.88190  0.97540  0.48130  Biso   1.000  H
  H68      1.0000 0.61810  0.47540  0.01870  Biso   1.000  H
  H69      1.0000 0.08430  0.93210  0.48830  Biso   1.000  H
  H70      1.0000 0.41570  0.43210  0.01170  Biso   1.000  H
  H71      1.0000 0.91570  0.06790  0.51170  Biso   1.000  H
  H72      1.0000 0.58430  0.56790  0.98830  Biso   1.000  H
  C49      1.0000 0.63030  0.82460  0.64190  Biso   1.000  C
  C50      1.0000 0.86970  0.32460  0.85810  Biso   1.000  C
  C51      1.0000 0.36970  0.17540  0.35810  Biso   1.000  C
  C52      1.0000 0.13030  0.67540  0.14190  Biso   1.000  C
  H73      1.0000 0.67370  0.82430  0.67990  Biso   1.000  H
  H74      1.0000 0.82630  0.32430  0.82010  Biso   1.000  H
  H75      1.0000 0.32630  0.17570  0.32010  Biso   1.000  H
  H76      1.0000 0.17370  0.67570  0.17990  Biso   1.000  H
  C53      1.0000 0.48900  0.80050  0.57290  Biso   1.000  C
  C54      1.0000 0.01100  0.30050  0.92710  Biso   1.000  C
  C55      1.0000 0.51100  0.19950  0.42710  Biso   1.000  C
  C56      1.0000 0.98900  0.69950  0.07290  Biso   1.000  C
  H77      1.0000 0.41820  0.78280  0.55230  Biso   1.000  H
  H78      1.0000 0.08180  0.28280  0.94770  Biso   1.000  H
  H79      1.0000 0.58180  0.21720  0.44770  Biso   1.000  H
  H80      1.0000 0.91820  0.71720  0.05230  Biso   1.000  H
  C57      1.0000 0.57520  0.88650  0.48450  Biso   1.000  C
  C58      1.0000 0.92480  0.38650  0.01550  Biso   1.000  C
  C59      1.0000 0.42480  0.11350  0.51550  Biso   1.000  C
  C60      1.0000 0.07520  0.61350  0.98450  Biso   1.000  C
  H81      1.0000 0.51060  0.85960  0.45940  Biso   1.000  H
  H82      1.0000 0.98940  0.35960  0.04060  Biso   1.000  H
  H83      1.0000 0.48940  0.14040  0.54060  Biso   1.000  H
  H84      1.0000 0.01060  0.64040  0.95940  Biso   1.000  H
  H85      1.0000 0.64950  0.87370  0.46420  Biso   1.000  H
  H86      1.0000 0.85050  0.37370  0.03580  Biso   1.000  H
  H87      1.0000 0.35050  0.12630  0.53580  Biso   1.000  H
  H88      1.0000 0.14950  0.62630  0.96420  Biso   1.000  H
  C61      1.0000 0.55690  0.98610  0.48600  Biso   1.000  C
  C62      1.0000 0.94310  0.48610  0.01400  Biso   1.000  C
  C63      1.0000 0.44310  0.01390  0.51400  Biso   1.000  C
  C64      1.0000 0.05690  0.51390  0.98600  Biso   1.000  C
  H89      1.0000 0.62320  0.01320  0.50970  Biso   1.000  H
  H90      1.0000 0.87680  0.51320  0.99030  Biso   1.000  H
  H91      1.0000 0.37680  0.98680  0.49030  Biso   1.000  H
  H92      1.0000 0.12320  0.48680  0.00970  Biso   1.000  H
  H93      1.0000 0.55820  0.00900  0.44350  Biso   1.000  H
  H94      1.0000 0.94180  0.50900  0.05650  Biso   1.000  H
  H95      1.0000 0.44180  0.99100  0.55650  Biso   1.000  H
  H96      1.0000 0.05820  0.49100  0.94350  Biso   1.000  H
  N1       1.0000 0.98620  0.17480  0.75830  Biso   1.000  N
  N2       1.0000 0.51380  0.67480  0.74170  Biso   1.000  N
  N3       1.0000 0.01380  0.82520  0.24170  Biso   1.000  N
  N4       1.0000 0.48620  0.32520  0.25830  Biso   1.000  N
  N5       1.0000 0.90910  0.07130  0.69300  Biso   1.000  N
  N6       1.0000 0.59090  0.57130  0.80700  Biso   1.000  N
  N7       1.0000 0.09090  0.92870  0.30700  Biso   1.000  N
  N8       1.0000 0.40910  0.42870  0.19300  Biso   1.000  N
  N9       1.0000 0.88130  0.05190  0.75250  Biso   1.000  N
  N10      1.0000 0.61870  0.55190  0.74750  Biso   1.000  N
  N11      1.0000 0.11870  0.94810  0.24750  Biso   1.000  N
  N12      1.0000 0.38130  0.44810  0.25250  Biso   1.000  N
  N13      1.0000 0.12370  0.77220  0.81950  Biso   1.000  N
  N14      1.0000 0.37630  0.27220  0.68050  Biso   1.000  N
  N15      1.0000 0.87630  0.22780  0.18050  Biso   1.000  N
  N16      1.0000 0.62370  0.72780  0.31950  Biso   1.000  N
  N17      1.0000 0.27450  0.74090  0.76200  Biso   1.000  N
  N18      1.0000 0.22550  0.24090  0.73800  Biso   1.000  N
  N19      1.0000 0.72550  0.25910  0.23800  Biso   1.000  N
  N20      1.0000 0.77450  0.75910  0.26200  Biso   1.000  N
  N21      1.0000 0.13020  0.68330  0.81570  Biso   1.000  N
  N22      1.0000 0.36980  0.18330  0.68430  Biso   1.000  N
  N23      1.0000 0.86980  0.31670  0.18430  Biso   1.000  N
  N24      1.0000 0.63020  0.81670  0.31570  Biso   1.000  N
  N25      1.0000 0.29330  0.85180  0.65910  Biso   1.000  N
  N26      1.0000 0.20670  0.35180  0.84090  Biso   1.000  N
  N27      1.0000 0.70670  0.14820  0.34090  Biso   1.000  N
  N28      1.0000 0.79330  0.64820  0.15910  Biso   1.000  N
  N29      1.0000 0.21350  0.98490  0.63870  Biso   1.000  N
  N30      1.0000 0.28650  0.48490  0.86130  Biso   1.000  N
  N31      1.0000 0.78650  0.01510  0.36130  Biso   1.000  N
  N32      1.0000 0.71350  0.51510  0.13870  Biso   1.000  N
  N33      1.0000 0.14310  0.91890  0.61390  Biso   1.000  N
  N34      1.0000 0.35690  0.41890  0.88610  Biso   1.000  N
  N35      1.0000 0.85690  0.08110  0.38610  Biso   1.000  N
  N36      1.0000 0.64310  0.58110  0.11390  Biso   1.000  N
  N37      1.0000 0.51940  0.78730  0.63280  Biso   1.000  N
  N38      1.0000 0.98060  0.28730  0.86720  Biso   1.000  N
  N39      1.0000 0.48060  0.21270  0.36720  Biso   1.000  N
  N40      1.0000 0.01940  0.71270  0.13280  Biso   1.000  N
  N41      1.0000 0.57950  0.84420  0.54790  Biso   1.000  N
  N42      1.0000 0.92050  0.34420  0.95210  Biso   1.000  N
  N43      1.0000 0.42050  0.15580  0.45210  Biso   1.000  N
  N44      1.0000 0.07950  0.65580  0.04790  Biso   1.000  N
  N45      1.0000 0.66830  0.86140  0.58970  Biso   1.000  N
  N46      1.0000 0.83170  0.36140  0.91030  Biso   1.000  N
  N47      1.0000 0.33170  0.13860  0.41030  Biso   1.000  N
  N48      1.0000 0.16830  0.63860  0.08970  Biso   1.000  N
  P1       1.0000 0.00000  0.50000  0.50000  Biso   1.000  P
  P2       1.0000 0.50000  0.00000  0.00000  Biso   1.000  P
  Mo1      1.0000 0.92984  0.64848  0.62257  Biso   1.000  Mo
  Mo2      1.0000 0.57016  0.14848  0.87743  Biso   1.000  Mo
  Mo3      1.0000 0.07016  0.35152  0.37743  Biso   1.000  Mo
  Mo4      1.0000 0.42984  0.85152  0.12257  Biso   1.000  Mo
  Mo5      1.0000 0.79608  0.33082  0.54227  Biso   1.000  Mo
  Mo6      1.0000 0.70392  0.83082  0.95773  Biso   1.000  Mo
  Mo7      1.0000 0.20392  0.66918  0.45773  Biso   1.000  Mo
  Mo8      1.0000 0.29608  0.16918  0.04227  Biso   1.000  Mo
  Mo9      1.0000 0.22528  0.56770  0.60712  Biso   1.000  Mo
  Mo10     1.0000 0.27472  0.06770  0.89288  Biso   1.000  Mo
  Mo11     1.0000 0.77472  0.43230  0.39288  Biso   1.000  Mo
  Mo12     1.0000 0.72528  0.93230  0.10712  Biso   1.000  Mo
  Mo13     1.0000 0.99923  0.42203  0.65544  Biso   1.000  Mo
  Mo14     1.0000 0.50077  0.92203  0.84456  Biso   1.000  Mo
  Mo15     1.0000 0.00077  0.57797  0.34456  Biso   1.000  Mo
  Mo16     1.0000 0.49923  0.07797  0.15544  Biso   1.000  Mo
  Mo17     1.0000 0.10530  0.28318  0.53524  Biso   1.000  Mo
  Mo18     1.0000 0.39470  0.78318  0.96476  Biso   1.000  Mo
  Mo19     1.0000 0.89470  0.71682  0.46476  Biso   1.000  Mo
  Mo20     1.0000 0.60530  0.21682  0.03524  Biso   1.000  Mo
  Mo21     1.0000 0.69849  0.55635  0.52572  Biso   1.000  Mo
  Mo22     1.0000 0.80151  0.05635  0.97428  Biso   1.000  Mo
  Mo23     1.0000 0.30151  0.44365  0.47428  Biso   1.000  Mo
  Mo24     1.0000 0.19849  0.94365  0.02572  Biso   1.000  Mo
  O1       1.0000 0.85750  0.46690  0.49630  Biso   1.000  O
  O2       1.0000 0.64250  0.96690  0.00370  Biso   1.000  O
  O3       1.0000 0.14250  0.53310  0.50370  Biso   1.000  O
  O4       1.0000 0.35750  0.03310  0.99630  Biso   1.000  O
  O5       1.0000 0.91000  0.57780  0.51790  Biso   1.000  O
  O6       1.0000 0.59000  0.07780  0.98210  Biso   1.000  O
  O7       1.0000 0.09000  0.42220  0.48210  Biso   1.000  O
  O8       1.0000 0.41000  0.92220  0.01790  Biso   1.000  O
  O9       1.0000 0.09280  0.64760  0.62990  Biso   1.000  O
  O10      1.0000 0.40720  0.14760  0.87010  Biso   1.000  O
  O11      1.0000 0.90720  0.35240  0.37010  Biso   1.000  O
  O12      1.0000 0.59280  0.85240  0.12990  Biso   1.000  O
  O13      1.0000 0.76330  0.34170  0.45840  Biso   1.000  O
  O14      1.0000 0.73670  0.84170  0.04160  Biso   1.000  O
  O15      1.0000 0.23670  0.65830  0.54160  Biso   1.000  O
  O16      1.0000 0.26330  0.15830  0.95840  Biso   1.000  O
  O17      1.0000 0.93560  0.53190  0.66750  Biso   1.000  O
  O18      1.0000 0.56440  0.03190  0.83250  Biso   1.000  O
  O19      1.0000 0.06440  0.46810  0.33250  Biso   1.000  O
  O20      1.0000 0.43560  0.96810  0.16750  Biso   1.000  O
  O21      1.0000 0.70380  0.44220  0.55350  Biso   1.000  O
  O22      1.0000 0.79620  0.94220  0.94650  Biso   1.000  O
  O23      1.0000 0.29620  0.55780  0.44650  Biso   1.000  O
  O24      1.0000 0.20380  0.05780  0.05350  Biso   1.000  O
  O25      1.0000 0.89110  0.71460  0.68130  Biso   1.000  O
  O26      1.0000 0.60890  0.21460  0.81870  Biso   1.000  O
  O27      1.0000 0.10890  0.28540  0.31870  Biso   1.000  O
  O28      1.0000 0.39110  0.78540  0.18130  Biso   1.000  O
  O29      1.0000 0.24670  0.33660  0.52080  Biso   1.000  O
  O30      1.0000 0.25330  0.83660  0.97920  Biso   1.000  O
  O31      1.0000 0.75330  0.66340  0.47920  Biso   1.000  O
  O32      1.0000 0.74670  0.16340  0.02080  Biso   1.000  O
  O33      1.0000 0.32970  0.61120  0.65490  Biso   1.000  O
  O34      1.0000 0.17030  0.11120  0.84510  Biso   1.000  O
  O35      1.0000 0.67030  0.38880  0.34510  Biso   1.000  O
  O36      1.0000 0.82970  0.88880  0.15490  Biso   1.000  O
  O37      1.0000 0.92530  0.72650  0.55620  Biso   1.000  O
  O38      1.0000 0.57470  0.22650  0.94380  Biso   1.000  O
  O39      1.0000 0.07470  0.27350  0.44380  Biso   1.000  O
  O40      1.0000 0.42530  0.77350  0.05620  Biso   1.000  O
  O41      1.0000 0.55900  0.58730  0.53480  Biso   1.000  O
  O42      1.0000 0.94100  0.08730  0.96520  Biso   1.000  O
  O43      1.0000 0.44100  0.41270  0.46520  Biso   1.000  O
  O44      1.0000 0.05900  0.91270  0.03480  Biso   1.000  O
  O45      1.0000 0.14560  0.17800  0.54960  Biso   1.000  O
  O46      1.0000 0.35440  0.67800  0.95040  Biso   1.000  O
  O47      1.0000 0.85440  0.82200  0.45040  Biso   1.000  O
  O48      1.0000 0.64560  0.32200  0.04960  Biso   1.000  O
  O49      1.0000 0.86290  0.36980  0.62550  Biso   1.000  O
  O50      1.0000 0.63710  0.86980  0.87450  Biso   1.000  O
  O51      1.0000 0.13710  0.63020  0.37450  Biso   1.000  O
  O52      1.0000 0.36290  0.13020  0.12550  Biso   1.000  O
  O53      1.0000 0.68780  0.50830  0.43880  Biso   1.000  O
  O54      1.0000 0.81220  0.00830  0.06120  Biso   1.000  O
  O55      1.0000 0.31220  0.49170  0.56120  Biso   1.000  O
  O56      1.0000 0.18780  0.99170  0.93880  Biso   1.000  O
  O57      1.0000 0.92870  0.26580  0.53290  Biso   1.000  O
  O58      1.0000 0.57130  0.76580  0.96710  Biso   1.000  O
  O59      1.0000 0.07130  0.73420  0.46710  Biso   1.000  O
  O60      1.0000 0.42870  0.23420  0.03290  Biso   1.000  O
  O61      1.0000 0.16010  0.48060  0.65590  Biso   1.000  O
  O62      1.0000 0.33990  0.98060  0.84410  Biso   1.000  O
  O63      1.0000 0.83990  0.51940  0.34410  Biso   1.000  O
  O64      1.0000 0.66010  0.01940  0.15590  Biso   1.000  O
  O65      1.0000 0.09150  0.32820  0.61540  Biso   1.000  O
  O66      1.0000 0.40850  0.82820  0.88460  Biso   1.000  O
  O67      1.0000 0.90850  0.67180  0.38460  Biso   1.000  O
  O68      1.0000 0.59150  0.17180  0.11540  Biso   1.000  O
  O69      1.0000 0.69600  0.25610  0.56330  Biso   1.000  O
  O70      1.0000 0.80400  0.75610  0.93670  Biso   1.000  O
  O71      1.0000 0.30400  0.74390  0.43670  Biso   1.000  O
  O72      1.0000 0.19600  0.24390  0.06330  Biso   1.000  O
  O73      1.0000 0.76860  0.60510  0.59600  Biso   1.000  O
  O74      1.0000 0.73140  0.10510  0.90400  Biso   1.000  O
  O75      1.0000 0.23140  0.39490  0.40400  Biso   1.000  O
  O76      1.0000 0.26860  0.89490  0.09600  Biso   1.000  O
  O77      1.0000 0.01220  0.38210  0.72850  Biso   1.000  O
  O78      1.0000 0.48780  0.88210  0.77150  Biso   1.000  O
  O79      1.0000 0.98780  0.61790  0.27150  Biso   1.000  O
  O80      1.0000 0.51220  0.11790  0.22850  Biso   1.000  O
  O81      1.0000 0.97560  0.40820  0.54210  Biso   1.000  O
  O82      1.0000 0.52440  0.90820  0.95790  Biso   1.000  O
  O83      1.0000 0.02440  0.59180  0.45790  Biso   1.000  O
  O84      1.0000 0.47560  0.09180  0.04210  Biso   1.000  O
  O85      1.0000 0.03280  0.52690  0.57540  Biso   1.000  O
  O86      1.0000 0.46720  0.02690  0.92460  Biso   1.000  O
  O87      1.0000 0.96720  0.47310  0.42460  Biso   1.000  O
  O88      1.0000 0.53280  0.97310  0.07540  Biso   1.000  O
  O89      1.0000 0.91000  0.57100  0.84200  Biso   1.000  O
  O90      1.0000 0.59000  0.07100  0.65800  Biso   1.000  O
  O91      1.0000 0.09000  0.42900  0.15800  Biso   1.000  O
  O92      1.0000 0.41000  0.92900  0.34200  Biso   1.000  O
