data_image0
_cell_length_a       10.7211
_cell_length_b       14.3527
_cell_length_c       17.9037
_cell_angle_alpha    90
_cell_angle_beta     91.709
_cell_angle_gamma    90

_symmetry_space_group_name_H-M    "P 1"
_symmetry_int_tables_number       1

loop_
  _symmetry_equiv_pos_as_xyz
  'x, y, z'

loop_
  _atom_site_label
  _atom_site_occupancy
  _atom_site_fract_x
  _atom_site_fract_y
  _atom_site_fract_z
  _atom_site_thermal_displace_type
  _atom_site_B_iso_or_equiv
  _atom_site_type_symbol
  Mo1      1.0000 0.33184  0.45257  0.46978  Biso   1.000  Mo
  Mo2      1.0000 0.16816  0.95257  0.03022  Biso   1.000  Mo
  Mo3      1.0000 0.66816  0.54743  0.53022  Biso   1.000  Mo
  Mo4      1.0000 0.83184  0.04743  0.96978  Biso   1.000  Mo
  O1       1.0000 0.42730  0.39730  0.53250  Biso   1.000  O
  O2       1.0000 0.07270  0.89730  0.96750  Biso   1.000  O
  O3       1.0000 0.57270  0.60270  0.46750  Biso   1.000  O
  O4       1.0000 0.92730  0.10270  0.03250  Biso   1.000  O
  O5       1.0000 0.31140  0.56990  0.50954  Biso   1.000  O
  O6       1.0000 0.18860  0.06990  0.99046  Biso   1.000  O
  O7       1.0000 0.68860  0.43010  0.49046  Biso   1.000  O
  O8       1.0000 0.81140  0.93010  0.00954  Biso   1.000  O
  O9       1.0000 0.18490  0.38150  0.47177  Biso   1.000  O
  O10      1.0000 0.31510  0.88150  0.02823  Biso   1.000  O
  O11      1.0000 0.81510  0.61850  0.52823  Biso   1.000  O
  O12      1.0000 0.68490  0.11850  0.97177  Biso   1.000  O
  O13      1.0000 0.40170  0.44700  0.38615  Biso   1.000  O
  O14      1.0000 0.09830  0.94700  0.11385  Biso   1.000  O
  O15      1.0000 0.59830  0.55300  0.61385  Biso   1.000  O
  O16      1.0000 0.90170  0.05300  0.88615  Biso   1.000  O
  O17      1.0000 0.16510  0.53544  0.39399  Biso   1.000  O
  O18      1.0000 0.33490  0.03544  0.10601  Biso   1.000  O
  O19      1.0000 0.83490  0.46456  0.60601  Biso   1.000  O
  O20      1.0000 0.66510  0.96456  0.89399  Biso   1.000  O
  Mo5      1.0000 0.21394  0.66578  0.45646  Biso   1.000  Mo
  Mo6      1.0000 0.28606  0.16578  0.04354  Biso   1.000  Mo
  Mo7      1.0000 0.78606  0.33422  0.54354  Biso   1.000  Mo
  Mo8      1.0000 0.71394  0.83422  0.95646  Biso   1.000  Mo
  Mo9      1.0000 0.01829  0.47357  0.40541  Biso   1.000  Mo
  Mo10     1.0000 0.48171  0.97357  0.09459  Biso   1.000  Mo
  Mo11     1.0000 0.98171  0.52643  0.59459  Biso   1.000  Mo
  Mo12     1.0000 0.51829  0.02643  0.90541  Biso   1.000  Mo
  Mo13     1.0000 0.08652  0.30463  0.54099  Biso   1.000  Mo
  Mo14     1.0000 0.41348  0.80463  0.95901  Biso   1.000  Mo
  Mo15     1.0000 0.91348  0.69537  0.45901  Biso   1.000  Mo
  Mo16     1.0000 0.58652  0.19537  0.04099  Biso   1.000  Mo
  O21      1.0000 0.31760  0.70360  0.39293  Biso   1.000  O
  O22      1.0000 0.18240  0.20360  0.10707  Biso   1.000  O
  O23      1.0000 0.68240  0.29640  0.60707  Biso   1.000  O
  O24      1.0000 0.81760  0.79640  0.89293  Biso   1.000  O
  O25      1.0000 0.22090  0.74620  0.52589  Biso   1.000  O
  O26      1.0000 0.27910  0.24620  0.97411  Biso   1.000  O
  O27      1.0000 0.77910  0.25380  0.47411  Biso   1.000  O
  O28      1.0000 0.72090  0.75380  0.02589  Biso   1.000  O
  O29      1.0000 0.06180  0.70930  0.40591  Biso   1.000  O
  O30      1.0000 0.43820  0.20930  0.09409  Biso   1.000  O
  O31      1.0000 0.93820  0.29070  0.59409  Biso   1.000  O
  O32      1.0000 0.56180  0.79070  0.90591  Biso   1.000  O
  O33      1.0000 0.04410  0.59130  0.51197  Biso   1.000  O
  O34      1.0000 0.45590  0.09130  0.98803  Biso   1.000  O
  O35      1.0000 0.95590  0.40870  0.48803  Biso   1.000  O
  O36      1.0000 0.54410  0.90870  0.01197  Biso   1.000  O
  O37      1.0000 0.00790  0.39650  0.33267  Biso   1.000  O
  O38      1.0000 0.49210  0.89650  0.16733  Biso   1.000  O
  O39      1.0000 0.99210  0.60350  0.66733  Biso   1.000  O
  O40      1.0000 0.50790  0.10350  0.83267  Biso   1.000  O
  O41      1.0000 0.90270  0.55700  0.38804  Biso   1.000  O
  O42      1.0000 0.59730  0.05700  0.11196  Biso   1.000  O
  O43      1.0000 0.09730  0.44300  0.61196  Biso   1.000  O
  O44      1.0000 0.40270  0.94300  0.88804  Biso   1.000  O
  O45      1.0000 0.19850  0.26250  0.60150  Biso   1.000  O
  O46      1.0000 0.30150  0.76250  0.89850  Biso   1.000  O
  O47      1.0000 0.80150  0.73750  0.39850  Biso   1.000  O
  O48      1.0000 0.69850  0.23750  0.10150  Biso   1.000  O
  O49      1.0000 0.06230  0.21930  0.47680  Biso   1.000  O
  O50      1.0000 0.43770  0.71930  0.02320  Biso   1.000  O
  O51      1.0000 0.93770  0.78070  0.52320  Biso   1.000  O
  O52      1.0000 0.56230  0.28070  0.97680  Biso   1.000  O
  Cu1      1.0000 0.06320  0.31176  0.22646  Biso   1.000  Cu
  Cu2      1.0000 0.43680  0.81176  0.27354  Biso   1.000  Cu
  Cu3      1.0000 0.93680  0.68824  0.77354  Biso   1.000  Cu
  Cu4      1.0000 0.56320  0.18824  0.72646  Biso   1.000  Cu
  O53      1.0000 0.91590  0.34320  0.15930  Biso   1.000  O
  O54      1.0000 0.58410  0.84320  0.34070  Biso   1.000  O
  O55      1.0000 0.08410  0.65680  0.84070  Biso   1.000  O
  O56      1.0000 0.41590  0.15680  0.65930  Biso   1.000  O
  N1       1.0000 0.97370  0.19700  0.25400  Biso   1.000  N
  N2       1.0000 0.52630  0.69700  0.24600  Biso   1.000  N
  N3       1.0000 0.02630  0.80300  0.74600  Biso   1.000  N
  N4       1.0000 0.47370  0.30300  0.75400  Biso   1.000  N
  N5       1.0000 0.15430  0.41840  0.18360  Biso   1.000  N
  N6       1.0000 0.34570  0.91840  0.31640  Biso   1.000  N
  N7       1.0000 0.84570  0.58160  0.81640  Biso   1.000  N
  N8       1.0000 0.65430  0.08160  0.68360  Biso   1.000  N
  N9       1.0000 0.22350  0.26840  0.27440  Biso   1.000  N
  N10      1.0000 0.27650  0.76840  0.22560  Biso   1.000  N
  N11      1.0000 0.77650  0.73160  0.72560  Biso   1.000  N
  N12      1.0000 0.72350  0.23160  0.77440  Biso   1.000  N
  C1       1.0000 0.90990  0.17380  0.31500  Biso   1.000  C
  C2       1.0000 0.59010  0.67380  0.18500  Biso   1.000  C
  C3       1.0000 0.09010  0.82620  0.68500  Biso   1.000  C
  C4       1.0000 0.40990  0.32620  0.81500  Biso   1.000  C
  C5       1.0000 0.95230  0.12630  0.20740  Biso   1.000  C
  C6       1.0000 0.54770  0.62630  0.29260  Biso   1.000  C
  C7       1.0000 0.04770  0.87370  0.79260  Biso   1.000  C
  C8       1.0000 0.45230  0.37370  0.70740  Biso   1.000  C
  C9       1.0000 0.18200  0.42500  0.11180  Biso   1.000  C
  C10      1.0000 0.31800  0.92500  0.38820  Biso   1.000  C
  C11      1.0000 0.81800  0.57500  0.88820  Biso   1.000  C
  C12      1.0000 0.68200  0.07500  0.61180  Biso   1.000  C
  C13      1.0000 0.23630  0.47870  0.21820  Biso   1.000  C
  C14      1.0000 0.26370  0.97870  0.28180  Biso   1.000  C
  C15      1.0000 0.76370  0.52130  0.78180  Biso   1.000  C
  C16      1.0000 0.73630  0.02130  0.71820  Biso   1.000  C
  C17      1.0000 0.24930  0.23680  0.34390  Biso   1.000  C
  C18      1.0000 0.25070  0.73680  0.15610  Biso   1.000  C
  C19      1.0000 0.75070  0.76320  0.65610  Biso   1.000  C
  C20      1.0000 0.74930  0.26320  0.84390  Biso   1.000  C
  C21      1.0000 0.33290  0.26490  0.24190  Biso   1.000  C
  C22      1.0000 0.16710  0.76490  0.25810  Biso   1.000  C
  C23      1.0000 0.66710  0.73510  0.75810  Biso   1.000  C
  C24      1.0000 0.83290  0.23510  0.74190  Biso   1.000  C
  H1       1.0000 0.90810  0.21090  0.35750  Biso   1.000  H
  H2       1.0000 0.59190  0.71090  0.14250  Biso   1.000  H
  H3       1.0000 0.09190  0.78910  0.64250  Biso   1.000  H
  H4       1.0000 0.40810  0.28910  0.85750  Biso   1.000  H
  N13      1.0000 0.85100  0.09440  0.30900  Biso   1.000  N
  N14      1.0000 0.64900  0.59440  0.19100  Biso   1.000  N
  N15      1.0000 0.14900  0.90560  0.69100  Biso   1.000  N
  N16      1.0000 0.35100  0.40560  0.80900  Biso   1.000  N
  H5       1.0000 0.98390  0.12080  0.15980  Biso   1.000  H
  H6       1.0000 0.51610  0.62080  0.34020  Biso   1.000  H
  H7       1.0000 0.01610  0.87920  0.84020  Biso   1.000  H
  H8       1.0000 0.48390  0.37920  0.65980  Biso   1.000  H
  N17      1.0000 0.87850  0.06490  0.23960  Biso   1.000  N
  N18      1.0000 0.62150  0.56490  0.26040  Biso   1.000  N
  N19      1.0000 0.12150  0.93510  0.76040  Biso   1.000  N
  N20      1.0000 0.37850  0.43510  0.73960  Biso   1.000  N
  H9       1.0000 0.14300  0.39200  0.07300  Biso   1.000  H
  H10      1.0000 0.35700  0.89200  0.42700  Biso   1.000  H
  H11      1.0000 0.85700  0.60800  0.92700  Biso   1.000  H
  H12      1.0000 0.64300  0.10800  0.57300  Biso   1.000  H
  N21      1.0000 0.27370  0.48590  0.10420  Biso   1.000  N
  N22      1.0000 0.22630  0.98590  0.39580  Biso   1.000  N
  N23      1.0000 0.72630  0.51410  0.89580  Biso   1.000  N
  N24      1.0000 0.77370  0.01410  0.60420  Biso   1.000  N
  H13      1.0000 0.23960  0.48890  0.26950  Biso   1.000  H
  H14      1.0000 0.26040  0.98890  0.23050  Biso   1.000  H
  H15      1.0000 0.76040  0.51110  0.73050  Biso   1.000  H
  H16      1.0000 0.73960  0.01110  0.76950  Biso   1.000  H
  N25      1.0000 0.31000  0.52060  0.17140  Biso   1.000  N
  N26      1.0000 0.19000  0.02060  0.32860  Biso   1.000  N
  N27      1.0000 0.69000  0.47940  0.82860  Biso   1.000  N
  N28      1.0000 0.81000  0.97940  0.67140  Biso   1.000  N
  N29      1.0000 0.36660  0.21450  0.35600  Biso   1.000  N
  N30      1.0000 0.13340  0.71450  0.14400  Biso   1.000  N
  N31      1.0000 0.63340  0.78550  0.64400  Biso   1.000  N
  N32      1.0000 0.86660  0.28550  0.85600  Biso   1.000  N
  H17      1.0000 0.18930  0.23130  0.38010  Biso   1.000  H
  H18      1.0000 0.31070  0.73130  0.11990  Biso   1.000  H
  H19      1.0000 0.81070  0.76870  0.61990  Biso   1.000  H
  H20      1.0000 0.68930  0.26870  0.88010  Biso   1.000  H
  N33      1.0000 0.41820  0.23210  0.28910  Biso   1.000  N
  N34      1.0000 0.08180  0.73210  0.21090  Biso   1.000  N
  N35      1.0000 0.58180  0.76790  0.71090  Biso   1.000  N
  N36      1.0000 0.91820  0.26790  0.78910  Biso   1.000  N
  H21      1.0000 0.34720  0.28290  0.19300  Biso   1.000  H
  H22      1.0000 0.15280  0.78290  0.30700  Biso   1.000  H
  H23      1.0000 0.65280  0.71710  0.80700  Biso   1.000  H
  H24      1.0000 0.84720  0.21710  0.69300  Biso   1.000  H
  C25      1.0000 0.83320  0.97560  0.20920  Biso   1.000  C
  C26      1.0000 0.66680  0.47560  0.29080  Biso   1.000  C
  C27      1.0000 0.16680  0.02440  0.79080  Biso   1.000  C
  C28      1.0000 0.33320  0.52440  0.70920  Biso   1.000  C
  C29      1.0000 0.33400  0.51290  0.03520  Biso   1.000  C
  C30      1.0000 0.16600  0.01290  0.46480  Biso   1.000  C
  C31      1.0000 0.66600  0.48710  0.96480  Biso   1.000  C
  C32      1.0000 0.83400  0.98710  0.53520  Biso   1.000  C
  C33      1.0000 0.55270  0.22110  0.27720  Biso   1.000  C
  C34      1.0000 0.94730  0.72110  0.22280  Biso   1.000  C
  C35      1.0000 0.44730  0.77890  0.72280  Biso   1.000  C
  C36      1.0000 0.05270  0.27890  0.77720  Biso   1.000  C
  C37      1.0000 0.90520  0.89380  0.24100  Biso   1.000  C
  C38      1.0000 0.59480  0.39380  0.25900  Biso   1.000  C
  C39      1.0000 0.09480  0.10620  0.75900  Biso   1.000  C
  C40      1.0000 0.40520  0.60620  0.74100  Biso   1.000  C
  H25      1.0000 0.84010  0.97610  0.15530  Biso   1.000  H
  H26      1.0000 0.65990  0.47610  0.34470  Biso   1.000  H
  H27      1.0000 0.15990  0.02390  0.84470  Biso   1.000  H
  H28      1.0000 0.34010  0.52390  0.65530  Biso   1.000  H
  H29      1.0000 0.74570  0.96840  0.22030  Biso   1.000  H
  H30      1.0000 0.75430  0.46840  0.27970  Biso   1.000  H
  H31      1.0000 0.25430  0.03160  0.77970  Biso   1.000  H
  H32      1.0000 0.24570  0.53160  0.72030  Biso   1.000  H
  H33      1.0000 0.32620  0.57970  0.02850  Biso   1.000  H
  H34      1.0000 0.17380  0.07970  0.47150  Biso   1.000  H
  H35      1.0000 0.67380  0.42030  0.97150  Biso   1.000  H
  H36      1.0000 0.82620  0.92030  0.52850  Biso   1.000  H
  H37      1.0000 0.29140  0.48280  0.99320  Biso   1.000  H
  H38      1.0000 0.20860  0.98280  0.50680  Biso   1.000  H
  H39      1.0000 0.70860  0.51720  0.00680  Biso   1.000  H
  H40      1.0000 0.79140  0.01720  0.49320  Biso   1.000  H
  C41      1.0000 0.46950  0.48670  0.03600  Biso   1.000  C
  C42      1.0000 0.03050  0.98670  0.46400  Biso   1.000  C
  C43      1.0000 0.53050  0.51330  0.96400  Biso   1.000  C
  C44      1.0000 0.96950  0.01330  0.53600  Biso   1.000  C
  H41      1.0000 0.58350  0.16700  0.30450  Biso   1.000  H
  H42      1.0000 0.91650  0.66700  0.19550  Biso   1.000  H
  H43      1.0000 0.41650  0.83300  0.69550  Biso   1.000  H
  H44      1.0000 0.08350  0.33300  0.80450  Biso   1.000  H
  C45      1.0000 0.62420  0.30650  0.30290  Biso   1.000  C
  C46      1.0000 0.87580  0.80650  0.19710  Biso   1.000  C
  C47      1.0000 0.37580  0.69350  0.69710  Biso   1.000  C
  C48      1.0000 0.12420  0.19350  0.80290  Biso   1.000  C
  H45      1.0000 0.56620  0.21070  0.22450  Biso   1.000  H
  H46      1.0000 0.93380  0.71070  0.27550  Biso   1.000  H
  H47      1.0000 0.43380  0.78930  0.77550  Biso   1.000  H
  H48      1.0000 0.06620  0.28930  0.72450  Biso   1.000  H
  H49      1.0000 0.88390  0.88460  0.29270  Biso   1.000  H
  H50      1.0000 0.61610  0.38460  0.20730  Biso   1.000  H
  H51      1.0000 0.11610  0.11540  0.70730  Biso   1.000  H
  H52      1.0000 0.38390  0.61540  0.79270  Biso   1.000  H
  H53      1.0000 0.99390  0.90660  0.23950  Biso   1.000  H
  H54      1.0000 0.50610  0.40660  0.26050  Biso   1.000  H
  H55      1.0000 0.00610  0.09340  0.76050  Biso   1.000  H
  H56      1.0000 0.49390  0.59340  0.73950  Biso   1.000  H
  H57      1.0000 0.47740  0.42000  0.04360  Biso   1.000  H
  H58      1.0000 0.02260  0.92000  0.45640  Biso   1.000  H
  H59      1.0000 0.52260  0.58000  0.95640  Biso   1.000  H
  H60      1.0000 0.97740  0.08000  0.54360  Biso   1.000  H
  H61      1.0000 0.51240  0.51760  0.07750  Biso   1.000  H
  H62      1.0000 0.98760  0.01760  0.42250  Biso   1.000  H
  H63      1.0000 0.48760  0.48240  0.92250  Biso   1.000  H
  H64      1.0000 0.01240  0.98240  0.57750  Biso   1.000  H
  H65      1.0000 0.60660  0.31780  0.35500  Biso   1.000  H
  H66      1.0000 0.89340  0.81780  0.14500  Biso   1.000  H
  H67      1.0000 0.39340  0.68220  0.64500  Biso   1.000  H
  H68      1.0000 0.10660  0.18220  0.85500  Biso   1.000  H
  H69      1.0000 0.71270  0.29370  0.30000  Biso   1.000  H
  H70      1.0000 0.78730  0.79370  0.20000  Biso   1.000  H
  H71      1.0000 0.28730  0.70630  0.70000  Biso   1.000  H
  H72      1.0000 0.21270  0.20630  0.80000  Biso   1.000  H
  O57      1.0000 0.86110  0.51360  0.11670  Biso   1.000  O
  O58      1.0000 0.63890  0.01360  0.38330  Biso   1.000  O
  O59      1.0000 0.13890  0.48640  0.88330  Biso   1.000  O
  O60      1.0000 0.36110  0.98640  0.61670  Biso   1.000  O
  O61      1.0000 0.97570  0.64820  0.02850  Biso   1.000  O
  O62      1.0000 0.52430  0.14820  0.47150  Biso   1.000  O
  O63      1.0000 0.02430  0.35180  0.97150  Biso   1.000  O
  O64      1.0000 0.47570  0.85180  0.52850  Biso   1.000  O
