data_image0
_cell_length_a       10.3852
_cell_length_b       12.0867
_cell_length_c       12.309
_cell_angle_alpha    90
_cell_angle_beta     107.321
_cell_angle_gamma    90

_symmetry_space_group_name_H-M    "P 1"
_symmetry_int_tables_number       1

loop_
  _symmetry_equiv_pos_as_xyz
  'x, y, z'

loop_
  _atom_site_label
  _atom_site_occupancy
  _atom_site_fract_x
  _atom_site_fract_y
  _atom_site_fract_z
  _atom_site_thermal_displace_type
  _atom_site_B_iso_or_equiv
  _atom_site_type_symbol
  Cu1      1.0000 0.17462  0.18547  0.37052  Biso   1.000  Cu
  Cu2      1.0000 0.82538  0.18547  0.12948  Biso   1.000  Cu
  Cu3      1.0000 0.82538  0.81453  0.62948  Biso   1.000  Cu
  Cu4      1.0000 0.17462  0.81453  0.87052  Biso   1.000  Cu
  Cu5      1.0000 0.21276  0.68458  0.35441  Biso   1.000  Cu
  Cu6      1.0000 0.78724  0.68458  0.14559  Biso   1.000  Cu
  Cu7      1.0000 0.78724  0.31542  0.64559  Biso   1.000  Cu
  Cu8      1.0000 0.21276  0.31542  0.85441  Biso   1.000  Cu
  Cu9      1.0000 0.19324  0.25309  0.11057  Biso   1.000  Cu
  Cu10     1.0000 0.80676  0.25309  0.38943  Biso   1.000  Cu
  Cu11     1.0000 0.80676  0.74691  0.88943  Biso   1.000  Cu
  Cu12     1.0000 0.19324  0.74691  0.61057  Biso   1.000  Cu
  N1       1.0000 0.18030  0.02530  0.40810  Biso   1.000  N
  N2       1.0000 0.81970  0.02530  0.09190  Biso   1.000  N
  N3       1.0000 0.81970  0.97470  0.59190  Biso   1.000  N
  N4       1.0000 0.18030  0.97470  0.90810  Biso   1.000  N
  N5       1.0000 0.19000  0.97820  0.51020  Biso   1.000  N
  N6       1.0000 0.81000  0.97820  0.98980  Biso   1.000  N
  N7       1.0000 0.81000  0.02180  0.48980  Biso   1.000  N
  N8       1.0000 0.19000  0.02180  0.01020  Biso   1.000  N
  N9       1.0000 0.20890  0.87120  0.50670  Biso   1.000  N
  N10      1.0000 0.79110  0.87120  0.99330  Biso   1.000  N
  N11      1.0000 0.79110  0.12880  0.49330  Biso   1.000  N
  N12      1.0000 0.20890  0.12880  0.00670  Biso   1.000  N
  N13      1.0000 0.20830  0.84980  0.39840  Biso   1.000  N
  N14      1.0000 0.79170  0.84980  0.10160  Biso   1.000  N
  N15      1.0000 0.79170  0.15020  0.60160  Biso   1.000  N
  N16      1.0000 0.20830  0.15020  0.89840  Biso   1.000  N
  N17      1.0000 0.15100  0.23080  0.51880  Biso   1.000  N
  N18      1.0000 0.84900  0.23080  0.98120  Biso   1.000  N
  N19      1.0000 0.84900  0.76920  0.48120  Biso   1.000  N
  N20      1.0000 0.15100  0.76920  0.01880  Biso   1.000  N
  N21      1.0000 0.02980  0.26870  0.51880  Biso   1.000  N
  N22      1.0000 0.97020  0.26870  0.98120  Biso   1.000  N
  N23      1.0000 0.97020  0.73130  0.48120  Biso   1.000  N
  N24      1.0000 0.02980  0.73130  0.01880  Biso   1.000  N
  N25      1.0000 0.03790  0.29630  0.62440  Biso   1.000  N
  N26      1.0000 0.96210  0.29630  0.87560  Biso   1.000  N
  N27      1.0000 0.96210  0.70370  0.37560  Biso   1.000  N
  N28      1.0000 0.03790  0.70370  0.12440  Biso   1.000  N
  N29      1.0000 0.16120  0.27570  0.69310  Biso   1.000  N
  N30      1.0000 0.83880  0.27570  0.80690  Biso   1.000  N
  N31      1.0000 0.83880  0.72430  0.30690  Biso   1.000  N
  N32      1.0000 0.16120  0.72430  0.19310  Biso   1.000  N
  N33      1.0000 0.16880  0.34520  0.32620  Biso   1.000  N
  N34      1.0000 0.83120  0.34520  0.17380  Biso   1.000  N
  N35      1.0000 0.83120  0.65480  0.67380  Biso   1.000  N
  N36      1.0000 0.16880  0.65480  0.82620  Biso   1.000  N
  N37      1.0000 0.18410  0.37290  0.22250  Biso   1.000  N
  N38      1.0000 0.81590  0.37290  0.27750  Biso   1.000  N
  N39      1.0000 0.81590  0.62710  0.77750  Biso   1.000  N
  N40      1.0000 0.18410  0.62710  0.72250  Biso   1.000  N
  N41      1.0000 0.19370  0.47810  0.21450  Biso   1.000  N
  N42      1.0000 0.80630  0.47810  0.28550  Biso   1.000  N
  N43      1.0000 0.80630  0.52190  0.78550  Biso   1.000  N
  N44      1.0000 0.19370  0.52190  0.71450  Biso   1.000  N
  N45      1.0000 0.18620  0.52290  0.31190  Biso   1.000  N
  N46      1.0000 0.81380  0.52290  0.18810  Biso   1.000  N
  N47      1.0000 0.81380  0.47710  0.68810  Biso   1.000  N
  N48      1.0000 0.18620  0.47710  0.81190  Biso   1.000  N
  O1       1.0000 0.15740  0.15290  0.21620  Biso   1.000  O
  O2       1.0000 0.84260  0.15290  0.28380  Biso   1.000  O
  O3       1.0000 0.84260  0.84710  0.78380  Biso   1.000  O
  O4       1.0000 0.15740  0.84710  0.71620  Biso   1.000  O
  H1       1.0000 0.12910  0.08210  0.19030  Biso   1.000  H
  H2       1.0000 0.87090  0.08210  0.30970  Biso   1.000  H
  H3       1.0000 0.87090  0.91790  0.80970  Biso   1.000  H
  H4       1.0000 0.12910  0.91790  0.69030  Biso   1.000  H
  O5       1.0000 0.24770  0.64950  0.51260  Biso   1.000  O
  O6       1.0000 0.75230  0.64950  0.98740  Biso   1.000  O
  O7       1.0000 0.75230  0.35050  0.48740  Biso   1.000  O
  O8       1.0000 0.24770  0.35050  0.01260  Biso   1.000  O
  H5       1.0000 0.29190  0.58400  0.54130  Biso   1.000  H
  H6       1.0000 0.70810  0.58400  0.95870  Biso   1.000  H
  H7       1.0000 0.70810  0.41600  0.45870  Biso   1.000  H
  H8       1.0000 0.29190  0.41600  0.04130  Biso   1.000  H
  O9       1.0000 0.43990  0.67960  0.35940  Biso   1.000  O
  O10      1.0000 0.56010  0.67960  0.14060  Biso   1.000  O
  O11      1.0000 0.56010  0.32040  0.64060  Biso   1.000  O
  O12      1.0000 0.43990  0.32040  0.85940  Biso   1.000  O
  H9       1.0000 0.44280  0.71330  0.42070  Biso   1.000  H
  H10      1.0000 0.55720  0.71330  0.07930  Biso   1.000  H
  H11      1.0000 0.55720  0.28670  0.57930  Biso   1.000  H
  H12      1.0000 0.44280  0.28670  0.92070  Biso   1.000  H
  H13      1.0000 0.47800  0.62240  0.39470  Biso   1.000  H
  H14      1.0000 0.52200  0.62240  0.10530  Biso   1.000  H
  H15      1.0000 0.52200  0.37760  0.60530  Biso   1.000  H
  H16      1.0000 0.47800  0.37760  0.89470  Biso   1.000  H
  O13      1.0000 0.41380  0.20240  0.44080  Biso   1.000  O
  O14      1.0000 0.58620  0.20240  0.05920  Biso   1.000  O
  O15      1.0000 0.58620  0.79760  0.55920  Biso   1.000  O
  O16      1.0000 0.41380  0.79760  0.94080  Biso   1.000  O
  H17      1.0000 0.46740  0.14810  0.46150  Biso   1.000  H
  H18      1.0000 0.53260  0.14810  0.03850  Biso   1.000  H
  H19      1.0000 0.53260  0.85190  0.53850  Biso   1.000  H
  H20      1.0000 0.46740  0.85190  0.96150  Biso   1.000  H
  H21      1.0000 0.47990  0.21770  0.41610  Biso   1.000  H
  H22      1.0000 0.52010  0.21770  0.08390  Biso   1.000  H
  H23      1.0000 0.52010  0.78230  0.58390  Biso   1.000  H
  H24      1.0000 0.47990  0.78230  0.91610  Biso   1.000  H
  C1       1.0000 0.19440  0.94160  0.34270  Biso   1.000  C
  C2       1.0000 0.80560  0.94160  0.15730  Biso   1.000  C
  C3       1.0000 0.80560  0.05840  0.65730  Biso   1.000  C
  C4       1.0000 0.19440  0.05840  0.84270  Biso   1.000  C
  H25      1.0000 0.19420  0.94820  0.26740  Biso   1.000  H
  H26      1.0000 0.80580  0.94820  0.23260  Biso   1.000  H
  H27      1.0000 0.80580  0.05180  0.73260  Biso   1.000  H
  H28      1.0000 0.19420  0.05180  0.76740  Biso   1.000  H
  C5       1.0000 0.22800  0.23600  0.62440  Biso   1.000  C
  C6       1.0000 0.77200  0.23600  0.87560  Biso   1.000  C
  C7       1.0000 0.77200  0.76400  0.37560  Biso   1.000  C
  C8       1.0000 0.22800  0.76400  0.12440  Biso   1.000  C
  H29      1.0000 0.31810  0.21470  0.64850  Biso   1.000  H
  H30      1.0000 0.68190  0.21470  0.85150  Biso   1.000  H
  H31      1.0000 0.68190  0.78530  0.35150  Biso   1.000  H
  H32      1.0000 0.31810  0.78530  0.14850  Biso   1.000  H
  C9       1.0000 0.17040  0.44050  0.37580  Biso   1.000  C
  C10      1.0000 0.82960  0.44050  0.12420  Biso   1.000  C
  C11      1.0000 0.82960  0.55950  0.62420  Biso   1.000  C
  C12      1.0000 0.17040  0.55950  0.87580  Biso   1.000  C
  H33      1.0000 0.16150  0.44910  0.44830  Biso   1.000  H
  H34      1.0000 0.83850  0.44910  0.05170  Biso   1.000  H
  H35      1.0000 0.83850  0.55090  0.55170  Biso   1.000  H
  H36      1.0000 0.16150  0.55090  0.94830  Biso   1.000  H
  N49      1.0000 0.50000  0.40430  0.25000  Biso   1.000  N
  N50      1.0000 0.50000  0.59570  0.75000  Biso   1.000  N
  O17      1.0000 0.50000  0.30000  0.25000  Biso   1.000  O
  O18      1.0000 0.50000  0.70000  0.75000  Biso   1.000  O
  O19      1.0000 0.48730  0.45700  0.15740  Biso   1.000  O
  O20      1.0000 0.51270  0.45700  0.34260  Biso   1.000  O
  O21      1.0000 0.51270  0.54300  0.84260  Biso   1.000  O
  O22      1.0000 0.48730  0.54300  0.65740  Biso   1.000  O
