data_image0
_cell_length_a       13.7327
_cell_length_b       16.4189
_cell_length_c       16.5975
_cell_angle_alpha    90
_cell_angle_beta     90
_cell_angle_gamma    90

_symmetry_space_group_name_H-M    "P 1"
_symmetry_int_tables_number       1

loop_
  _symmetry_equiv_pos_as_xyz
  'x, y, z'

loop_
  _atom_site_label
  _atom_site_occupancy
  _atom_site_fract_x
  _atom_site_fract_y
  _atom_site_fract_z
  _atom_site_thermal_displace_type
  _atom_site_B_iso_or_equiv
  _atom_site_type_symbol
  Cu1      1.0000 0.37634  0.43889  0.32204  Biso   1.000  Cu
  Cu2      1.0000 0.12366  0.56111  0.82204  Biso   1.000  Cu
  Cu3      1.0000 0.62366  0.93889  0.17796  Biso   1.000  Cu
  Cu4      1.0000 0.87634  0.06111  0.67796  Biso   1.000  Cu
  C1       1.0000 0.54210  0.47550  0.42660  Biso   1.000  C
  C2       1.0000 0.95790  0.52450  0.92660  Biso   1.000  C
  C3       1.0000 0.45790  0.97550  0.07340  Biso   1.000  C
  C4       1.0000 0.04210  0.02450  0.57340  Biso   1.000  C
  H1       1.0000 0.55560  0.41930  0.41900  Biso   1.000  H
  H2       1.0000 0.94440  0.58070  0.91900  Biso   1.000  H
  H3       1.0000 0.44440  0.91930  0.08100  Biso   1.000  H
  H4       1.0000 0.05560  0.08070  0.58100  Biso   1.000  H
  C5       1.0000 0.60160  0.52440  0.47490  Biso   1.000  C
  C6       1.0000 0.89840  0.47560  0.97490  Biso   1.000  C
  C7       1.0000 0.39840  0.02440  0.02510  Biso   1.000  C
  C8       1.0000 0.10160  0.97560  0.52510  Biso   1.000  C
  H5       1.0000 0.65470  0.50010  0.50260  Biso   1.000  H
  H6       1.0000 0.84530  0.49990  0.00260  Biso   1.000  H
  H7       1.0000 0.34530  0.00010  0.99740  Biso   1.000  H
  H8       1.0000 0.15470  0.99990  0.49740  Biso   1.000  H
  C9       1.0000 0.58550  0.60710  0.48340  Biso   1.000  C
  C10      1.0000 0.91450  0.39290  0.98340  Biso   1.000  C
  C11      1.0000 0.41450  0.10710  0.01660  Biso   1.000  C
  C12      1.0000 0.08550  0.89290  0.51660  Biso   1.000  C
  C13      1.0000 0.50610  0.64150  0.44590  Biso   1.000  C
  C14      1.0000 0.99390  0.35850  0.94590  Biso   1.000  C
  C15      1.0000 0.49390  0.14150  0.05410  Biso   1.000  C
  C16      1.0000 0.00610  0.85850  0.55410  Biso   1.000  C
  H9       1.0000 0.49120  0.69750  0.45340  Biso   1.000  H
  H10      1.0000 0.00880  0.30250  0.95340  Biso   1.000  H
  H11      1.0000 0.50880  0.19750  0.04660  Biso   1.000  H
  H12      1.0000 0.99120  0.80250  0.54660  Biso   1.000  H
  C17      1.0000 0.44910  0.59380  0.39780  Biso   1.000  C
  C18      1.0000 0.05090  0.40620  0.89780  Biso   1.000  C
  C19      1.0000 0.55090  0.09380  0.10220  Biso   1.000  C
  C20      1.0000 0.94910  0.90620  0.60220  Biso   1.000  C
  H13      1.0000 0.39810  0.61910  0.36840  Biso   1.000  H
  H14      1.0000 0.10190  0.38090  0.86840  Biso   1.000  H
  H15      1.0000 0.60190  0.11910  0.13160  Biso   1.000  H
  H16      1.0000 0.89810  0.88090  0.63160  Biso   1.000  H
  C21      1.0000 0.65030  0.65120  0.53530  Biso   1.000  C
  C22      1.0000 0.84970  0.34880  0.03530  Biso   1.000  C
  C23      1.0000 0.34970  0.15120  0.96470  Biso   1.000  C
  C24      1.0000 0.15030  0.84880  0.46470  Biso   1.000  C
  C25      1.0000 0.76270  0.67030  0.61950  Biso   1.000  C
  C26      1.0000 0.73730  0.32970  0.11950  Biso   1.000  C
  C27      1.0000 0.23730  0.17030  0.88050  Biso   1.000  C
  C28      1.0000 0.26270  0.82970  0.38050  Biso   1.000  C
  C29      1.0000 0.96000  0.54640  0.71540  Biso   1.000  C
  C30      1.0000 0.54000  0.45360  0.21540  Biso   1.000  C
  C31      1.0000 0.04000  0.04640  0.78460  Biso   1.000  C
  C32      1.0000 0.46000  0.95360  0.28460  Biso   1.000  C
  H17      1.0000 0.98200  0.49150  0.71550  Biso   1.000  H
  H18      1.0000 0.51800  0.50850  0.21550  Biso   1.000  H
  H19      1.0000 0.01800  0.99150  0.78450  Biso   1.000  H
  H20      1.0000 0.48200  0.00850  0.28450  Biso   1.000  H
  C33      1.0000 0.88330  0.56750  0.66680  Biso   1.000  C
  C34      1.0000 0.61670  0.43250  0.16680  Biso   1.000  C
  C35      1.0000 0.11670  0.06750  0.83320  Biso   1.000  C
  C36      1.0000 0.38330  0.93250  0.33320  Biso   1.000  C
  H21      1.0000 0.85410  0.52750  0.63320  Biso   1.000  H
  H22      1.0000 0.64590  0.47250  0.13320  Biso   1.000  H
  H23      1.0000 0.14590  0.02750  0.86680  Biso   1.000  H
  H24      1.0000 0.35410  0.97250  0.36680  Biso   1.000  H
  C37      1.0000 0.84880  0.64430  0.66620  Biso   1.000  C
  C38      1.0000 0.65120  0.35570  0.16620  Biso   1.000  C
  C39      1.0000 0.15120  0.14430  0.83380  Biso   1.000  C
  C40      1.0000 0.34880  0.85570  0.33380  Biso   1.000  C
  C41      1.0000 0.89340  0.70060  0.71840  Biso   1.000  C
  C42      1.0000 0.60660  0.29940  0.21840  Biso   1.000  C
  C43      1.0000 0.10660  0.20060  0.78160  Biso   1.000  C
  C44      1.0000 0.39340  0.79940  0.28160  Biso   1.000  C
  H25      1.0000 0.86840  0.75430  0.72360  Biso   1.000  H
  H26      1.0000 0.63160  0.24570  0.22360  Biso   1.000  H
  H27      1.0000 0.13160  0.25430  0.77640  Biso   1.000  H
  H28      1.0000 0.36840  0.74570  0.27640  Biso   1.000  H
  C45      1.0000 0.97450  0.67650  0.76220  Biso   1.000  C
  C46      1.0000 0.52550  0.32350  0.26220  Biso   1.000  C
  C47      1.0000 0.02550  0.17650  0.73780  Biso   1.000  C
  C48      1.0000 0.47450  0.82350  0.23780  Biso   1.000  C
  H29      1.0000 0.00920  0.71600  0.79270  Biso   1.000  H
  H30      1.0000 0.49080  0.28400  0.29270  Biso   1.000  H
  H31      1.0000 0.99080  0.21600  0.70730  Biso   1.000  H
  H32      1.0000 0.50920  0.78400  0.20730  Biso   1.000  H
  C49      1.0000 0.21920  0.49670  0.42990  Biso   1.000  C
  C50      1.0000 0.28080  0.50330  0.92990  Biso   1.000  C
  C51      1.0000 0.78080  0.99670  0.07010  Biso   1.000  C
  C52      1.0000 0.71920  0.00330  0.57010  Biso   1.000  C
  H33      1.0000 0.25090  0.46370  0.46890  Biso   1.000  H
  H34      1.0000 0.24910  0.53630  0.96890  Biso   1.000  H
  H35      1.0000 0.74910  0.96370  0.03110  Biso   1.000  H
  H36      1.0000 0.75090  0.03630  0.53110  Biso   1.000  H
  C53      1.0000 0.13510  0.54000  0.45150  Biso   1.000  C
  C54      1.0000 0.36490  0.46000  0.95150  Biso   1.000  C
  C55      1.0000 0.86490  0.04000  0.04850  Biso   1.000  C
  C56      1.0000 0.63510  0.96000  0.54850  Biso   1.000  C
  H37      1.0000 0.10960  0.53770  0.50470  Biso   1.000  H
  H38      1.0000 0.39040  0.46230  0.00470  Biso   1.000  H
  H39      1.0000 0.89040  0.03770  0.99530  Biso   1.000  H
  H40      1.0000 0.60960  0.96230  0.49530  Biso   1.000  H
  C57      1.0000 0.09210  0.58470  0.39400  Biso   1.000  C
  C58      1.0000 0.40790  0.41530  0.89400  Biso   1.000  C
  C59      1.0000 0.90790  0.08470  0.10600  Biso   1.000  C
  C60      1.0000 0.59210  0.91530  0.60600  Biso   1.000  C
  C61      1.0000 0.12600  0.59100  0.31830  Biso   1.000  C
  C62      1.0000 0.37400  0.40900  0.81830  Biso   1.000  C
  C63      1.0000 0.87400  0.09100  0.18170  Biso   1.000  C
  C64      1.0000 0.62600  0.90900  0.68170  Biso   1.000  C
  H41      1.0000 0.09490  0.62390  0.27880  Biso   1.000  H
  H42      1.0000 0.40510  0.37610  0.77880  Biso   1.000  H
  H43      1.0000 0.90510  0.12390  0.22120  Biso   1.000  H
  H44      1.0000 0.59490  0.87610  0.72120  Biso   1.000  H
  C65      1.0000 0.21190  0.54490  0.30070  Biso   1.000  C
  C66      1.0000 0.28810  0.45510  0.80070  Biso   1.000  C
  C67      1.0000 0.78810  0.04490  0.19930  Biso   1.000  C
  C68      1.0000 0.71190  0.95510  0.69930  Biso   1.000  C
  H45      1.0000 0.23810  0.54610  0.24780  Biso   1.000  H
  H46      1.0000 0.26190  0.45390  0.74780  Biso   1.000  H
  H47      1.0000 0.76190  0.04610  0.25220  Biso   1.000  H
  H48      1.0000 0.73810  0.95390  0.75220  Biso   1.000  H
  C69      1.0000 0.00310  0.63370  0.41440  Biso   1.000  C
  C70      1.0000 0.49690  0.36630  0.91440  Biso   1.000  C
  C71      1.0000 0.99690  0.13370  0.08560  Biso   1.000  C
  C72      1.0000 0.50310  0.86630  0.58560  Biso   1.000  C
  C73      1.0000 0.88690  0.71860  0.39200  Biso   1.000  C
  C74      1.0000 0.61310  0.28140  0.89200  Biso   1.000  C
  C75      1.0000 0.11310  0.21860  0.10800  Biso   1.000  C
  C76      1.0000 0.38690  0.78140  0.60800  Biso   1.000  C
  C77      1.0000 0.69140  0.85840  0.33460  Biso   1.000  C
  C78      1.0000 0.80860  0.14160  0.83460  Biso   1.000  C
  C79      1.0000 0.30860  0.35840  0.16540  Biso   1.000  C
  C80      1.0000 0.19140  0.64160  0.66540  Biso   1.000  C
  H49      1.0000 0.63800  0.88500  0.35970  Biso   1.000  H
  H50      1.0000 0.86200  0.11500  0.85970  Biso   1.000  H
  H51      1.0000 0.36200  0.38500  0.14030  Biso   1.000  H
  H52      1.0000 0.13800  0.61500  0.64030  Biso   1.000  H
  C81      1.0000 0.74810  0.80930  0.37840  Biso   1.000  C
  C82      1.0000 0.75190  0.19070  0.87840  Biso   1.000  C
  C83      1.0000 0.25190  0.30930  0.12160  Biso   1.000  C
  C84      1.0000 0.24810  0.69070  0.62160  Biso   1.000  C
  H53      1.0000 0.73280  0.80080  0.43360  Biso   1.000  H
  H54      1.0000 0.76720  0.19920  0.93360  Biso   1.000  H
  H55      1.0000 0.26720  0.30080  0.06640  Biso   1.000  H
  H56      1.0000 0.23280  0.69920  0.56640  Biso   1.000  H
  C85      1.0000 0.82860  0.77040  0.34590  Biso   1.000  C
  C86      1.0000 0.67140  0.22960  0.84590  Biso   1.000  C
  C87      1.0000 0.17140  0.27040  0.15410  Biso   1.000  C
  C88      1.0000 0.32860  0.72960  0.65410  Biso   1.000  C
  C89      1.0000 0.84850  0.78410  0.26600  Biso   1.000  C
  C90      1.0000 0.65150  0.21590  0.76600  Biso   1.000  C
  C91      1.0000 0.15150  0.28410  0.23400  Biso   1.000  C
  C92      1.0000 0.34850  0.71590  0.73400  Biso   1.000  C
  H57      1.0000 0.90330  0.75890  0.24150  Biso   1.000  H
  H58      1.0000 0.59670  0.24110  0.74150  Biso   1.000  H
  H59      1.0000 0.09670  0.25890  0.25850  Biso   1.000  H
  H60      1.0000 0.40330  0.74110  0.75850  Biso   1.000  H
  C93      1.0000 0.79020  0.83340  0.22230  Biso   1.000  C
  C94      1.0000 0.70980  0.16660  0.72230  Biso   1.000  C
  C95      1.0000 0.20980  0.33340  0.27770  Biso   1.000  C
  C96      1.0000 0.29020  0.66660  0.77770  Biso   1.000  C
  H61      1.0000 0.80610  0.84230  0.16730  Biso   1.000  H
  H62      1.0000 0.69390  0.15770  0.66730  Biso   1.000  H
  H63      1.0000 0.19390  0.34230  0.33270  Biso   1.000  H
  H64      1.0000 0.30610  0.65770  0.83270  Biso   1.000  H
  N1       1.0000 0.46130  0.51300  0.38970  Biso   1.000  N
  N2       1.0000 0.03870  0.48700  0.88970  Biso   1.000  N
  N3       1.0000 0.53870  0.01300  0.11030  Biso   1.000  N
  N4       1.0000 0.96130  0.98700  0.61030  Biso   1.000  N
  N5       1.0000 0.64960  0.72590  0.55730  Biso   1.000  N
  N6       1.0000 0.85040  0.27410  0.05730  Biso   1.000  N
  N7       1.0000 0.35040  0.22590  0.94270  Biso   1.000  N
  N8       1.0000 0.14960  0.77410  0.44270  Biso   1.000  N
  N9       1.0000 0.72630  0.74020  0.61150  Biso   1.000  N
  N10      1.0000 0.77370  0.25980  0.11150  Biso   1.000  N
  N11      1.0000 0.27370  0.24020  0.88850  Biso   1.000  N
  N12      1.0000 0.22630  0.75980  0.38850  Biso   1.000  N
  N13      1.0000 0.00440  0.60050  0.76250  Biso   1.000  N
  N14      1.0000 0.49560  0.39950  0.26250  Biso   1.000  N
  N15      1.0000 0.99560  0.10050  0.73750  Biso   1.000  N
  N16      1.0000 0.50440  0.89950  0.23750  Biso   1.000  N
  N17      1.0000 0.25530  0.50100  0.35620  Biso   1.000  N
  N18      1.0000 0.24470  0.49900  0.85620  Biso   1.000  N
  N19      1.0000 0.74470  0.00100  0.14380  Biso   1.000  N
  N20      1.0000 0.75530  0.99900  0.64380  Biso   1.000  N
  N21      1.0000 0.95750  0.64080  0.48030  Biso   1.000  N
  N22      1.0000 0.54250  0.35920  0.98030  Biso   1.000  N
  N23      1.0000 0.04250  0.14080  0.01970  Biso   1.000  N
  N24      1.0000 0.45750  0.85920  0.51970  Biso   1.000  N
  N25      1.0000 0.88100  0.69270  0.46700  Biso   1.000  N
  N26      1.0000 0.61900  0.30730  0.96700  Biso   1.000  N
  N27      1.0000 0.11900  0.19270  0.03300  Biso   1.000  N
  N28      1.0000 0.38100  0.80730  0.53300  Biso   1.000  N
  N29      1.0000 0.70880  0.87150  0.25310  Biso   1.000  N
  N30      1.0000 0.79120  0.12850  0.75310  Biso   1.000  N
  N31      1.0000 0.29120  0.37150  0.24690  Biso   1.000  N
  N32      1.0000 0.20880  0.62850  0.74690  Biso   1.000  N
  O1       1.0000 0.72360  0.61100  0.57430  Biso   1.000  O
  O2       1.0000 0.77640  0.38900  0.07430  Biso   1.000  O
  O3       1.0000 0.27640  0.11100  0.92570  Biso   1.000  O
  O4       1.0000 0.22360  0.88900  0.42570  Biso   1.000  O
  O5       1.0000 0.96540  0.68060  0.35490  Biso   1.000  O
  O6       1.0000 0.53460  0.31940  0.85490  Biso   1.000  O
  O7       1.0000 0.03460  0.18060  0.14510  Biso   1.000  O
  O8       1.0000 0.46540  0.81940  0.64510  Biso   1.000  O
  O9       1.0000 0.37310  0.34610  0.41550  Biso   1.000  O
  O10      1.0000 0.12690  0.65390  0.91550  Biso   1.000  O
  O11      1.0000 0.62690  0.84610  0.08450  Biso   1.000  O
  O12      1.0000 0.87310  0.15390  0.58450  Biso   1.000  O
  H65      1.0000 0.35900  0.29550  0.39960  Biso   1.000  H
  H66      1.0000 0.14100  0.70450  0.89960  Biso   1.000  H
  H67      1.0000 0.64100  0.79550  0.10040  Biso   1.000  H
  H68      1.0000 0.85900  0.20450  0.60040  Biso   1.000  H
  H69      1.0000 0.39220  0.35160  0.46470  Biso   1.000  H
  H70      1.0000 0.10780  0.64840  0.96470  Biso   1.000  H
  H71      1.0000 0.60780  0.85160  0.03530  Biso   1.000  H
  H72      1.0000 0.89220  0.14840  0.53530  Biso   1.000  H
  Cl1      1.0000 0.37790  0.62420  0.12830  Biso   1.000  Cl
  Cl2      1.0000 0.12210  0.37580  0.62830  Biso   1.000  Cl
  Cl3      1.0000 0.62210  0.12420  0.37170  Biso   1.000  Cl
  Cl4      1.0000 0.87790  0.87580  0.87170  Biso   1.000  Cl
  O13      1.0000 0.44500  0.63810  0.19210  Biso   1.000  O
  O14      1.0000 0.05500  0.36190  0.69210  Biso   1.000  O
  O15      1.0000 0.55500  0.13810  0.30790  Biso   1.000  O
  O16      1.0000 0.94500  0.86190  0.80790  Biso   1.000  O
  O17      1.0000 0.35120  0.53910  0.12910  Biso   1.000  O
  O18      1.0000 0.14880  0.46090  0.62910  Biso   1.000  O
  O19      1.0000 0.64880  0.03910  0.37090  Biso   1.000  O
  O20      1.0000 0.85120  0.96090  0.87090  Biso   1.000  O
  O21      1.0000 0.29330  0.67370  0.13940  Biso   1.000  O
  O22      1.0000 0.20670  0.32630  0.63940  Biso   1.000  O
  O23      1.0000 0.70670  0.17370  0.36060  Biso   1.000  O
  O24      1.0000 0.79330  0.82630  0.86060  Biso   1.000  O
  O25      1.0000 0.42560  0.63980  0.05280  Biso   1.000  O
  O26      1.0000 0.07440  0.36020  0.55280  Biso   1.000  O
  O27      1.0000 0.57440  0.13980  0.44720  Biso   1.000  O
  O28      1.0000 0.92560  0.86020  0.94720  Biso   1.000  O
  Cl5      1.0000 0.38330  0.60730  0.13280  Biso   1.000  Cl
  Cl6      1.0000 0.11670  0.39270  0.63280  Biso   1.000  Cl
  Cl7      1.0000 0.61670  0.10730  0.36720  Biso   1.000  Cl
  Cl8      1.0000 0.88330  0.89270  0.86720  Biso   1.000  Cl
  O29      1.0000 0.29050  0.57430  0.10920  Biso   1.000  O
  O30      1.0000 0.20950  0.42570  0.60920  Biso   1.000  O
  O31      1.0000 0.70950  0.07430  0.39080  Biso   1.000  O
  O32      1.0000 0.79050  0.92570  0.89080  Biso   1.000  O
  O33      1.0000 0.39170  0.68920  0.10390  Biso   1.000  O
  O34      1.0000 0.10830  0.31080  0.60390  Biso   1.000  O
  O35      1.0000 0.60830  0.18920  0.39610  Biso   1.000  O
  O36      1.0000 0.89170  0.81080  0.89610  Biso   1.000  O
  O37      1.0000 0.39160  0.60140  0.21850  Biso   1.000  O
  O38      1.0000 0.10840  0.39860  0.71850  Biso   1.000  O
  O39      1.0000 0.60840  0.10140  0.28150  Biso   1.000  O
  O40      1.0000 0.89160  0.89860  0.78150  Biso   1.000  O
  O41      1.0000 0.45950  0.56160  0.09460  Biso   1.000  O
  O42      1.0000 0.04050  0.43840  0.59460  Biso   1.000  O
  O43      1.0000 0.54050  0.06160  0.40540  Biso   1.000  O
  O44      1.0000 0.95950  0.93840  0.90540  Biso   1.000  O
  Cl9      1.0000 0.38090  0.61850  0.12980  Biso   1.000  Cl
  Cl10     1.0000 0.11910  0.38150  0.62980  Biso   1.000  Cl
  Cl11     1.0000 0.61910  0.11850  0.37020  Biso   1.000  Cl
  Cl12     1.0000 0.88090  0.88150  0.87020  Biso   1.000  Cl
  O45      1.0000 0.31160  0.55270  0.11850  Biso   1.000  O
  O46      1.0000 0.18840  0.44730  0.61850  Biso   1.000  O
  O47      1.0000 0.68840  0.05270  0.38150  Biso   1.000  O
  O48      1.0000 0.81160  0.94730  0.88150  Biso   1.000  O
  O49      1.0000 0.40990  0.61790  0.21230  Biso   1.000  O
  O50      1.0000 0.09010  0.38210  0.71230  Biso   1.000  O
  O51      1.0000 0.59010  0.11790  0.28770  Biso   1.000  O
  O52      1.0000 0.90990  0.88210  0.78770  Biso   1.000  O
  O53      1.0000 0.46280  0.60370  0.07810  Biso   1.000  O
  O54      1.0000 0.03720  0.39630  0.57810  Biso   1.000  O
  O55      1.0000 0.53720  0.10370  0.42190  Biso   1.000  O
  O56      1.0000 0.96280  0.89630  0.92190  Biso   1.000  O
  O57      1.0000 0.33740  0.69510  0.11130  Biso   1.000  O
  O58      1.0000 0.16260  0.30490  0.61130  Biso   1.000  O
  O59      1.0000 0.66260  0.19510  0.38870  Biso   1.000  O
  O60      1.0000 0.83740  0.80490  0.88870  Biso   1.000  O
