data_image0
_cell_length_a       16.4355
_cell_length_b       16.4355
_cell_length_c       13.9077
_cell_angle_alpha    90
_cell_angle_beta     90
_cell_angle_gamma    90

_symmetry_space_group_name_H-M    "P 1"
_symmetry_int_tables_number       1

loop_
  _symmetry_equiv_pos_as_xyz
  'x, y, z'

loop_
  _atom_site_label
  _atom_site_occupancy
  _atom_site_fract_x
  _atom_site_fract_y
  _atom_site_fract_z
  _atom_site_thermal_displace_type
  _atom_site_B_iso_or_equiv
  _atom_site_type_symbol
  Cu1      1.0000 0.18261  0.18261  0.50000  Biso   1.000  Cu
  Cu2      1.0000 0.81739  0.81739  0.00000  Biso   1.000  Cu
  Cu3      1.0000 0.31739  0.68261  0.75000  Biso   1.000  Cu
  Cu4      1.0000 0.68261  0.31739  0.25000  Biso   1.000  Cu
  C1       1.0000 0.07176  0.24761  0.35016  Biso   1.000  C
  C2       1.0000 0.92824  0.75239  0.85016  Biso   1.000  C
  C3       1.0000 0.25239  0.57176  0.60016  Biso   1.000  C
  C4       1.0000 0.74761  0.42824  0.10016  Biso   1.000  C
  C5       1.0000 0.42824  0.74761  0.89984  Biso   1.000  C
  C6       1.0000 0.57176  0.25239  0.39984  Biso   1.000  C
  C7       1.0000 0.24761  0.07176  0.64984  Biso   1.000  C
  C8       1.0000 0.75239  0.92824  0.14984  Biso   1.000  C
  H1       1.0000 0.03210  0.21870  0.38340  Biso   1.000  H
  H2       1.0000 0.96790  0.78130  0.88340  Biso   1.000  H
  H3       1.0000 0.28130  0.53210  0.63340  Biso   1.000  H
  H4       1.0000 0.71870  0.46790  0.13340  Biso   1.000  H
  H5       1.0000 0.46790  0.71870  0.86660  Biso   1.000  H
  H6       1.0000 0.53210  0.28130  0.36660  Biso   1.000  H
  H7       1.0000 0.21870  0.03210  0.61660  Biso   1.000  H
  H8       1.0000 0.78130  0.96790  0.11660  Biso   1.000  H
  C9       1.0000 0.04938  0.29093  0.27037  Biso   1.000  C
  C10      1.0000 0.95062  0.70907  0.77037  Biso   1.000  C
  C11      1.0000 0.20907  0.54938  0.52037  Biso   1.000  C
  C12      1.0000 0.79093  0.45062  0.02037  Biso   1.000  C
  C13      1.0000 0.45062  0.79093  0.97963  Biso   1.000  C
  C14      1.0000 0.54938  0.20907  0.47963  Biso   1.000  C
  C15      1.0000 0.29093  0.04938  0.72963  Biso   1.000  C
  C16      1.0000 0.70907  0.95062  0.22963  Biso   1.000  C
  H9       1.0000 0.99580  0.29010  0.24890  Biso   1.000  H
  H10      1.0000 0.00420  0.70990  0.74890  Biso   1.000  H
  H11      1.0000 0.20990  0.49580  0.49890  Biso   1.000  H
  H12      1.0000 0.79010  0.50420  0.99890  Biso   1.000  H
  H13      1.0000 0.50420  0.79010  0.00110  Biso   1.000  H
  H14      1.0000 0.49580  0.20990  0.50110  Biso   1.000  H
  H15      1.0000 0.29010  0.99580  0.75110  Biso   1.000  H
  H16      1.0000 0.70990  0.00420  0.25110  Biso   1.000  H
  C17      1.0000 0.10730  0.33579  0.22235  Biso   1.000  C
  C18      1.0000 0.89270  0.66421  0.72235  Biso   1.000  C
  C19      1.0000 0.16421  0.60730  0.47235  Biso   1.000  C
  C20      1.0000 0.83579  0.39270  0.97235  Biso   1.000  C
  C21      1.0000 0.39270  0.83579  0.02765  Biso   1.000  C
  C22      1.0000 0.60730  0.16421  0.52765  Biso   1.000  C
  C23      1.0000 0.33579  0.10730  0.77765  Biso   1.000  C
  C24      1.0000 0.66421  0.89270  0.27765  Biso   1.000  C
  C25      1.0000 0.18552  0.33484  0.25632  Biso   1.000  C
  C26      1.0000 0.81448  0.66516  0.75632  Biso   1.000  C
  C27      1.0000 0.16516  0.68552  0.50632  Biso   1.000  C
  C28      1.0000 0.83484  0.31448  0.00632  Biso   1.000  C
  C29      1.0000 0.31448  0.83484  0.99368  Biso   1.000  C
  C30      1.0000 0.68552  0.16516  0.49368  Biso   1.000  C
  C31      1.0000 0.33484  0.18552  0.74368  Biso   1.000  C
  C32      1.0000 0.66516  0.81448  0.24368  Biso   1.000  C
  H17      1.0000 0.22580  0.36500  0.22570  Biso   1.000  H
  H18      1.0000 0.77420  0.63500  0.72570  Biso   1.000  H
  H19      1.0000 0.13500  0.72580  0.47570  Biso   1.000  H
  H20      1.0000 0.86500  0.27420  0.97570  Biso   1.000  H
  H21      1.0000 0.27420  0.86500  0.02430  Biso   1.000  H
  H22      1.0000 0.72580  0.13500  0.52430  Biso   1.000  H
  H23      1.0000 0.36500  0.22580  0.77430  Biso   1.000  H
  H24      1.0000 0.63500  0.77420  0.27430  Biso   1.000  H
  C33      1.0000 0.20402  0.28937  0.33541  Biso   1.000  C
  C34      1.0000 0.79598  0.71063  0.83541  Biso   1.000  C
  C35      1.0000 0.21063  0.70402  0.58541  Biso   1.000  C
  C36      1.0000 0.78937  0.29598  0.08541  Biso   1.000  C
  C37      1.0000 0.29598  0.78937  0.91459  Biso   1.000  C
  C38      1.0000 0.70402  0.21063  0.41459  Biso   1.000  C
  C39      1.0000 0.28937  0.20402  0.66459  Biso   1.000  C
  C40      1.0000 0.71063  0.79598  0.16459  Biso   1.000  C
  H25      1.0000 0.25740  0.28920  0.35760  Biso   1.000  H
  H26      1.0000 0.74260  0.71080  0.85760  Biso   1.000  H
  H27      1.0000 0.21080  0.75740  0.60760  Biso   1.000  H
  H28      1.0000 0.78920  0.24260  0.10760  Biso   1.000  H
  H29      1.0000 0.24260  0.78920  0.89240  Biso   1.000  H
  H30      1.0000 0.75740  0.21080  0.39240  Biso   1.000  H
  H31      1.0000 0.28920  0.25740  0.64240  Biso   1.000  H
  H32      1.0000 0.71080  0.74260  0.14240  Biso   1.000  H
  C41      1.0000 0.08635  0.38430  0.13763  Biso   1.000  C
  C42      1.0000 0.91365  0.61570  0.63763  Biso   1.000  C
  C43      1.0000 0.11570  0.58635  0.38763  Biso   1.000  C
  C44      1.0000 0.88430  0.41365  0.88763  Biso   1.000  C
  C45      1.0000 0.41365  0.88430  0.11237  Biso   1.000  C
  C46      1.0000 0.58635  0.11570  0.61237  Biso   1.000  C
  C47      1.0000 0.38430  0.08635  0.86237  Biso   1.000  C
  C48      1.0000 0.61570  0.91365  0.36237  Biso   1.000  C
  C49      1.0000 0.10635  0.46383  0.02114  Biso   1.000  C
  C50      1.0000 0.89365  0.53617  0.52114  Biso   1.000  C
  C51      1.0000 0.03617  0.60635  0.27114  Biso   1.000  C
  C52      1.0000 0.96383  0.39365  0.77114  Biso   1.000  C
  C53      1.0000 0.39365  0.96383  0.22886  Biso   1.000  C
  C54      1.0000 0.60635  0.03617  0.72886  Biso   1.000  C
  C55      1.0000 0.46383  0.10635  0.97886  Biso   1.000  C
  C56      1.0000 0.53617  0.89365  0.47886  Biso   1.000  C
  C57      1.0000 0.16467  0.60307  0.82225  Biso   1.000  C
  C58      1.0000 0.83533  0.39693  0.32225  Biso   1.000  C
  C59      1.0000 0.89693  0.66467  0.07225  Biso   1.000  C
  C60      1.0000 0.10307  0.33533  0.57225  Biso   1.000  C
  C61      1.0000 0.33533  0.10307  0.42775  Biso   1.000  C
  C62      1.0000 0.66467  0.89693  0.92775  Biso   1.000  C
  C63      1.0000 0.60307  0.16467  0.17775  Biso   1.000  C
  C64      1.0000 0.39693  0.83533  0.67775  Biso   1.000  C
  H33      1.0000 0.14000  0.62940  0.77080  Biso   1.000  H
  H34      1.0000 0.86000  0.37060  0.27080  Biso   1.000  H
  H35      1.0000 0.87060  0.64000  0.02080  Biso   1.000  H
  H36      1.0000 0.12940  0.36000  0.52080  Biso   1.000  H
  H37      1.0000 0.36000  0.12940  0.47920  Biso   1.000  H
  H38      1.0000 0.64000  0.87060  0.97920  Biso   1.000  H
  H39      1.0000 0.62940  0.14000  0.22920  Biso   1.000  H
  H40      1.0000 0.37060  0.86000  0.72920  Biso   1.000  H
  C65      1.0000 0.11702  0.55542  0.88104  Biso   1.000  C
  C66      1.0000 0.88298  0.44458  0.38104  Biso   1.000  C
  C67      1.0000 0.94458  0.61702  0.13104  Biso   1.000  C
  C68      1.0000 0.05542  0.38298  0.63104  Biso   1.000  C
  C69      1.0000 0.38298  0.05542  0.36896  Biso   1.000  C
  C70      1.0000 0.61702  0.94458  0.86896  Biso   1.000  C
  C71      1.0000 0.55542  0.11702  0.11896  Biso   1.000  C
  C72      1.0000 0.44458  0.88298  0.61896  Biso   1.000  C
  H41      1.0000 0.06160  0.54980  0.86950  Biso   1.000  H
  H42      1.0000 0.93840  0.45020  0.36950  Biso   1.000  H
  H43      1.0000 0.95020  0.56160  0.11950  Biso   1.000  H
  H44      1.0000 0.04980  0.43840  0.61950  Biso   1.000  H
  H45      1.0000 0.43840  0.04980  0.38050  Biso   1.000  H
  H46      1.0000 0.56160  0.95020  0.88050  Biso   1.000  H
  H47      1.0000 0.54980  0.06160  0.13050  Biso   1.000  H
  H48      1.0000 0.45020  0.93840  0.63050  Biso   1.000  H
  C73      1.0000 0.15359  0.51582  0.95813  Biso   1.000  C
  C74      1.0000 0.84641  0.48418  0.45813  Biso   1.000  C
  C75      1.0000 0.98418  0.65359  0.20813  Biso   1.000  C
  C76      1.0000 0.01582  0.34641  0.70813  Biso   1.000  C
  C77      1.0000 0.34641  0.01582  0.29187  Biso   1.000  C
  C78      1.0000 0.65359  0.98418  0.79187  Biso   1.000  C
  C79      1.0000 0.51582  0.15359  0.04187  Biso   1.000  C
  C80      1.0000 0.48418  0.84641  0.54187  Biso   1.000  C
  C81      1.0000 0.23495  0.52780  0.97247  Biso   1.000  C
  C82      1.0000 0.76505  0.47220  0.47247  Biso   1.000  C
  C83      1.0000 0.97220  0.73495  0.22247  Biso   1.000  C
  C84      1.0000 0.02780  0.26505  0.72247  Biso   1.000  C
  C85      1.0000 0.26505  0.02780  0.27753  Biso   1.000  C
  C86      1.0000 0.73495  0.97220  0.77753  Biso   1.000  C
  C87      1.0000 0.52780  0.23495  0.02753  Biso   1.000  C
  C88      1.0000 0.47220  0.76505  0.52753  Biso   1.000  C
  H49      1.0000 0.26070  0.50350  0.02460  Biso   1.000  H
  H50      1.0000 0.73930  0.49650  0.52460  Biso   1.000  H
  H51      1.0000 0.99650  0.76070  0.27460  Biso   1.000  H
  H52      1.0000 0.00350  0.23930  0.77460  Biso   1.000  H
  H53      1.0000 0.23930  0.00350  0.22540  Biso   1.000  H
  H54      1.0000 0.76070  0.99650  0.72540  Biso   1.000  H
  H55      1.0000 0.50350  0.26070  0.97540  Biso   1.000  H
  H56      1.0000 0.49650  0.73930  0.47540  Biso   1.000  H
  C89      1.0000 0.27863  0.57530  0.91050  Biso   1.000  C
  C90      1.0000 0.72137  0.42470  0.41050  Biso   1.000  C
  C91      1.0000 0.92470  0.77863  0.16050  Biso   1.000  C
  C92      1.0000 0.07530  0.22137  0.66050  Biso   1.000  C
  C93      1.0000 0.22137  0.07530  0.33950  Biso   1.000  C
  C94      1.0000 0.77863  0.92470  0.83950  Biso   1.000  C
  C95      1.0000 0.57530  0.27863  0.08950  Biso   1.000  C
  C96      1.0000 0.42470  0.72137  0.58950  Biso   1.000  C
  H57      1.0000 0.33420  0.58140  0.92090  Biso   1.000  H
  H58      1.0000 0.66580  0.41860  0.42090  Biso   1.000  H
  H59      1.0000 0.91860  0.83420  0.17090  Biso   1.000  H
  H60      1.0000 0.08140  0.16580  0.67090  Biso   1.000  H
  H61      1.0000 0.16580  0.08140  0.32910  Biso   1.000  H
  H62      1.0000 0.83420  0.91860  0.82910  Biso   1.000  H
  H63      1.0000 0.58140  0.33420  0.07910  Biso   1.000  H
  H64      1.0000 0.41860  0.66580  0.57910  Biso   1.000  H
  N1       1.0000 0.14866  0.24519  0.38230  Biso   1.000  N
  N2       1.0000 0.85134  0.75481  0.88230  Biso   1.000  N
  N3       1.0000 0.25481  0.64866  0.63230  Biso   1.000  N
  N4       1.0000 0.74519  0.35134  0.13230  Biso   1.000  N
  N5       1.0000 0.35134  0.74519  0.86770  Biso   1.000  N
  N6       1.0000 0.64866  0.25481  0.36770  Biso   1.000  N
  N7       1.0000 0.24519  0.14866  0.61770  Biso   1.000  N
  N8       1.0000 0.75481  0.85134  0.11770  Biso   1.000  N
  N9       1.0000 0.01741  0.39118  0.09546  Biso   1.000  N
  N10      1.0000 0.98259  0.60882  0.59546  Biso   1.000  N
  N11      1.0000 0.10882  0.51741  0.34546  Biso   1.000  N
  N12      1.0000 0.89118  0.48259  0.84546  Biso   1.000  N
  N13      1.0000 0.48259  0.89118  0.15454  Biso   1.000  N
  N14      1.0000 0.51741  0.10882  0.65454  Biso   1.000  N
  N15      1.0000 0.39118  0.01741  0.90454  Biso   1.000  N
  N16      1.0000 0.60882  0.98259  0.40454  Biso   1.000  N
  N17      1.0000 0.03015  0.44478  0.01792  Biso   1.000  N
  N18      1.0000 0.96985  0.55522  0.51792  Biso   1.000  N
  N19      1.0000 0.05522  0.53015  0.26792  Biso   1.000  N
  N20      1.0000 0.94478  0.46985  0.76792  Biso   1.000  N
  N21      1.0000 0.46985  0.94478  0.23208  Biso   1.000  N
  N22      1.0000 0.53015  0.05522  0.73208  Biso   1.000  N
  N23      1.0000 0.44478  0.03015  0.98208  Biso   1.000  N
  N24      1.0000 0.55522  0.96985  0.48208  Biso   1.000  N
  N25      1.0000 0.24454  0.61346  0.83521  Biso   1.000  N
  N26      1.0000 0.75546  0.38654  0.33521  Biso   1.000  N
  N27      1.0000 0.88654  0.74454  0.08521  Biso   1.000  N
  N28      1.0000 0.11346  0.25546  0.58521  Biso   1.000  N
  N29      1.0000 0.25546  0.11346  0.41479  Biso   1.000  N
  N30      1.0000 0.74454  0.88654  0.91479  Biso   1.000  N
  N31      1.0000 0.61346  0.24454  0.16479  Biso   1.000  N
  N32      1.0000 0.38654  0.75546  0.66479  Biso   1.000  N
  O1       1.0000 0.14618  0.42857  0.09634  Biso   1.000  O
  O2       1.0000 0.85382  0.57143  0.59634  Biso   1.000  O
  O3       1.0000 0.07143  0.64618  0.34634  Biso   1.000  O
  O4       1.0000 0.92857  0.35382  0.84634  Biso   1.000  O
  O5       1.0000 0.35382  0.92857  0.15366  Biso   1.000  O
  O6       1.0000 0.64618  0.07143  0.65366  Biso   1.000  O
  O7       1.0000 0.42857  0.14618  0.90366  Biso   1.000  O
  O8       1.0000 0.57143  0.85382  0.40366  Biso   1.000  O
  O9       1.0000 0.08728  0.08728  0.50000  Biso   1.000  O
  O10      1.0000 0.91272  0.91272  0.00000  Biso   1.000  O
  O11      1.0000 0.41272  0.58728  0.75000  Biso   1.000  O
  O12      1.0000 0.58728  0.41272  0.25000  Biso   1.000  O
  H65      1.0000 0.09330  0.03520  0.49670  Biso   1.000  H
  H66      1.0000 0.90670  0.96480  0.99670  Biso   1.000  H
  H67      1.0000 0.46480  0.59330  0.74670  Biso   1.000  H
  H68      1.0000 0.53520  0.40670  0.24670  Biso   1.000  H
  H69      1.0000 0.40670  0.53520  0.75330  Biso   1.000  H
  H70      1.0000 0.59330  0.46480  0.25330  Biso   1.000  H
  H71      1.0000 0.03520  0.09330  0.50330  Biso   1.000  H
  H72      1.0000 0.96480  0.90670  0.00330  Biso   1.000  H
