data_image0
_cell_length_a       16.403
_cell_length_b       16.403
_cell_length_c       13.905
_cell_angle_alpha    90
_cell_angle_beta     90
_cell_angle_gamma    90

_symmetry_space_group_name_H-M    "P 1"
_symmetry_int_tables_number       1

loop_
  _symmetry_equiv_pos_as_xyz
  'x, y, z'

loop_
  _atom_site_label
  _atom_site_occupancy
  _atom_site_fract_x
  _atom_site_fract_y
  _atom_site_fract_z
  _atom_site_thermal_displace_type
  _atom_site_B_iso_or_equiv
  _atom_site_type_symbol
  O1       1.0000 0.41360  0.41360  0.50000  Biso   1.000  O
  O2       1.0000 0.58640  0.58640  0.00000  Biso   1.000  O
  O3       1.0000 0.08640  0.91360  0.75000  Biso   1.000  O
  O4       1.0000 0.91360  0.08640  0.25000  Biso   1.000  O
  H1       1.0000 0.44400  0.38500  0.52500  Biso   1.000  H
  H2       1.0000 0.55600  0.61500  0.02500  Biso   1.000  H
  H3       1.0000 0.11500  0.94400  0.77500  Biso   1.000  H
  H4       1.0000 0.88500  0.05600  0.27500  Biso   1.000  H
  H5       1.0000 0.05600  0.88500  0.72500  Biso   1.000  H
  H6       1.0000 0.94400  0.11500  0.22500  Biso   1.000  H
  H7       1.0000 0.38500  0.44400  0.47500  Biso   1.000  H
  H8       1.0000 0.61500  0.55600  0.97500  Biso   1.000  H
  O5       1.0000 0.14565  0.57246  0.15451  Biso   1.000  O
  O6       1.0000 0.85435  0.42754  0.65451  Biso   1.000  O
  O7       1.0000 0.92754  0.64565  0.40451  Biso   1.000  O
  O8       1.0000 0.07246  0.35435  0.90451  Biso   1.000  O
  O9       1.0000 0.35435  0.07246  0.09549  Biso   1.000  O
  O10      1.0000 0.64565  0.92754  0.59549  Biso   1.000  O
  O11      1.0000 0.57246  0.14565  0.84549  Biso   1.000  O
  O12      1.0000 0.42754  0.85435  0.34549  Biso   1.000  O
  N1       1.0000 0.24270  0.38840  0.41450  Biso   1.000  N
  N2       1.0000 0.75730  0.61160  0.91450  Biso   1.000  N
  N3       1.0000 0.11160  0.74270  0.66450  Biso   1.000  N
  N4       1.0000 0.88840  0.25730  0.16450  Biso   1.000  N
  N5       1.0000 0.25730  0.88840  0.83550  Biso   1.000  N
  N6       1.0000 0.74270  0.11160  0.33550  Biso   1.000  N
  N7       1.0000 0.38840  0.24270  0.58550  Biso   1.000  N
  N8       1.0000 0.61160  0.75730  0.08550  Biso   1.000  N
  H9       1.0000 0.85790  0.22910  0.20240  Biso   1.000  H
  H10      1.0000 0.14210  0.77090  0.70240  Biso   1.000  H
  H11      1.0000 0.27090  0.35790  0.45240  Biso   1.000  H
  H12      1.0000 0.72910  0.64210  0.95240  Biso   1.000  H
  H13      1.0000 0.64210  0.72910  0.04760  Biso   1.000  H
  H14      1.0000 0.35790  0.27090  0.54760  Biso   1.000  H
  H15      1.0000 0.22910  0.85790  0.79760  Biso   1.000  H
  H16      1.0000 0.77090  0.14210  0.29760  Biso   1.000  H
  N9       1.0000 0.03040  0.55530  0.23180  Biso   1.000  N
  N10      1.0000 0.96960  0.44470  0.73180  Biso   1.000  N
  N11      1.0000 0.94470  0.53040  0.48180  Biso   1.000  N
  N12      1.0000 0.05530  0.46960  0.98180  Biso   1.000  N
  N13      1.0000 0.46960  0.05530  0.01820  Biso   1.000  N
  N14      1.0000 0.53040  0.94470  0.51820  Biso   1.000  N
  N15      1.0000 0.55530  0.03040  0.76820  Biso   1.000  N
  N16      1.0000 0.44470  0.96960  0.26820  Biso   1.000  N
  N17      1.0000 0.01740  0.60970  0.15530  Biso   1.000  N
  N18      1.0000 0.98260  0.39030  0.65530  Biso   1.000  N
  N19      1.0000 0.89030  0.51740  0.40530  Biso   1.000  N
  N20      1.0000 0.10970  0.48260  0.90530  Biso   1.000  N
  N21      1.0000 0.48260  0.10970  0.09470  Biso   1.000  N
  N22      1.0000 0.51740  0.89030  0.59470  Biso   1.000  N
  N23      1.0000 0.60970  0.01740  0.84470  Biso   1.000  N
  N24      1.0000 0.39030  0.98260  0.34470  Biso   1.000  N
  N25      1.0000 0.25420  0.35100  0.61570  Biso   1.000  N
  N26      1.0000 0.74580  0.64900  0.11570  Biso   1.000  N
  N27      1.0000 0.14900  0.75420  0.86570  Biso   1.000  N
  N28      1.0000 0.85100  0.24580  0.36570  Biso   1.000  N
  N29      1.0000 0.24580  0.85100  0.63430  Biso   1.000  N
  N30      1.0000 0.75420  0.14900  0.13430  Biso   1.000  N
  N31      1.0000 0.35100  0.25420  0.38430  Biso   1.000  N
  N32      1.0000 0.64900  0.74580  0.88430  Biso   1.000  N
  C1       1.0000 0.27800  0.42620  0.34010  Biso   1.000  C
  C2       1.0000 0.72200  0.57380  0.84010  Biso   1.000  C
  C3       1.0000 0.07380  0.77800  0.59010  Biso   1.000  C
  C4       1.0000 0.92620  0.22200  0.09010  Biso   1.000  C
  C5       1.0000 0.22200  0.92620  0.90990  Biso   1.000  C
  C6       1.0000 0.77800  0.07380  0.40990  Biso   1.000  C
  C7       1.0000 0.42620  0.27800  0.65990  Biso   1.000  C
  C8       1.0000 0.57380  0.72200  0.15990  Biso   1.000  C
  H17      1.0000 0.33370  0.41950  0.33030  Biso   1.000  H
  H18      1.0000 0.66630  0.58050  0.83030  Biso   1.000  H
  H19      1.0000 0.08050  0.83370  0.58030  Biso   1.000  H
  H20      1.0000 0.91950  0.16630  0.08030  Biso   1.000  H
  H21      1.0000 0.16630  0.91950  0.91970  Biso   1.000  H
  H22      1.0000 0.83370  0.08050  0.41970  Biso   1.000  H
  H23      1.0000 0.41950  0.33370  0.66970  Biso   1.000  H
  H24      1.0000 0.58050  0.66630  0.16970  Biso   1.000  H
  C9       1.0000 0.23600  0.47330  0.27930  Biso   1.000  C
  C10      1.0000 0.76400  0.52670  0.77930  Biso   1.000  C
  C11      1.0000 0.02670  0.73600  0.52930  Biso   1.000  C
  C12      1.0000 0.97330  0.26400  0.02930  Biso   1.000  C
  C13      1.0000 0.26400  0.97330  0.97070  Biso   1.000  C
  C14      1.0000 0.73600  0.02670  0.47070  Biso   1.000  C
  C15      1.0000 0.47330  0.23600  0.72070  Biso   1.000  C
  C16      1.0000 0.52670  0.76400  0.22070  Biso   1.000  C
  H25      1.0000 0.26260  0.49840  0.22820  Biso   1.000  H
  H26      1.0000 0.73740  0.50160  0.72820  Biso   1.000  H
  H27      1.0000 0.00160  0.76260  0.47820  Biso   1.000  H
  H28      1.0000 0.99840  0.23740  0.97820  Biso   1.000  H
  H29      1.0000 0.23740  0.99840  0.02180  Biso   1.000  H
  H30      1.0000 0.76260  0.00160  0.52180  Biso   1.000  H
  H31      1.0000 0.49840  0.26260  0.77180  Biso   1.000  H
  H32      1.0000 0.50160  0.73740  0.27180  Biso   1.000  H
  C17      1.0000 0.15300  0.48490  0.29200  Biso   1.000  C
  C18      1.0000 0.84700  0.51510  0.79200  Biso   1.000  C
  C19      1.0000 0.01510  0.65300  0.54200  Biso   1.000  C
  C20      1.0000 0.98490  0.34700  0.04200  Biso   1.000  C
  C21      1.0000 0.34700  0.98490  0.95800  Biso   1.000  C
  C22      1.0000 0.65300  0.01510  0.45800  Biso   1.000  C
  C23      1.0000 0.48490  0.15300  0.70800  Biso   1.000  C
  C24      1.0000 0.51510  0.84700  0.20800  Biso   1.000  C
  C25      1.0000 0.11710  0.44510  0.37050  Biso   1.000  C
  C26      1.0000 0.88290  0.55490  0.87050  Biso   1.000  C
  C27      1.0000 0.05490  0.61710  0.62050  Biso   1.000  C
  C28      1.0000 0.94510  0.38290  0.12050  Biso   1.000  C
  C29      1.0000 0.38290  0.94510  0.87950  Biso   1.000  C
  C30      1.0000 0.61710  0.05490  0.37950  Biso   1.000  C
  C31      1.0000 0.44510  0.11710  0.62950  Biso   1.000  C
  C32      1.0000 0.55490  0.88290  0.12950  Biso   1.000  C
  H33      1.0000 0.06150  0.45060  0.38230  Biso   1.000  H
  H34      1.0000 0.93850  0.54940  0.88230  Biso   1.000  H
  H35      1.0000 0.04940  0.56150  0.63230  Biso   1.000  H
  H36      1.0000 0.95060  0.43850  0.13230  Biso   1.000  H
  H37      1.0000 0.43850  0.95060  0.86770  Biso   1.000  H
  H38      1.0000 0.56150  0.04940  0.36770  Biso   1.000  H
  H39      1.0000 0.45060  0.06150  0.61770  Biso   1.000  H
  H40      1.0000 0.54940  0.93850  0.11770  Biso   1.000  H
  C33      1.0000 0.16370  0.39880  0.42850  Biso   1.000  C
  C34      1.0000 0.83630  0.60120  0.92850  Biso   1.000  C
  C35      1.0000 0.10120  0.66370  0.67850  Biso   1.000  C
  C36      1.0000 0.89880  0.33630  0.17850  Biso   1.000  C
  C37      1.0000 0.33630  0.89880  0.82150  Biso   1.000  C
  C38      1.0000 0.66370  0.10120  0.32150  Biso   1.000  C
  C39      1.0000 0.39880  0.16370  0.57150  Biso   1.000  C
  C40      1.0000 0.60120  0.83630  0.07150  Biso   1.000  C
  H41      1.0000 0.13930  0.37310  0.48070  Biso   1.000  H
  H42      1.0000 0.86070  0.62690  0.98070  Biso   1.000  H
  H43      1.0000 0.12690  0.63930  0.73070  Biso   1.000  H
  H44      1.0000 0.87310  0.36070  0.23070  Biso   1.000  H
  H45      1.0000 0.36070  0.87310  0.76930  Biso   1.000  H
  H46      1.0000 0.63930  0.12690  0.26930  Biso   1.000  H
  H47      1.0000 0.37310  0.13930  0.51930  Biso   1.000  H
  H48      1.0000 0.62690  0.86070  0.01930  Biso   1.000  H
  C41      1.0000 0.10590  0.53720  0.22970  Biso   1.000  C
  C42      1.0000 0.89410  0.46280  0.72970  Biso   1.000  C
  C43      1.0000 0.96280  0.60590  0.47970  Biso   1.000  C
  C44      1.0000 0.03720  0.39410  0.97970  Biso   1.000  C
  C45      1.0000 0.39410  0.03720  0.02030  Biso   1.000  C
  C46      1.0000 0.60590  0.96280  0.52030  Biso   1.000  C
  C47      1.0000 0.53720  0.10590  0.77030  Biso   1.000  C
  C48      1.0000 0.46280  0.89410  0.27030  Biso   1.000  C
  C49      1.0000 0.08650  0.61730  0.11250  Biso   1.000  C
  C50      1.0000 0.91350  0.38270  0.61250  Biso   1.000  C
  C51      1.0000 0.88270  0.58650  0.36250  Biso   1.000  C
  C52      1.0000 0.11730  0.41350  0.86250  Biso   1.000  C
  C53      1.0000 0.41350  0.11730  0.13750  Biso   1.000  C
  C54      1.0000 0.58650  0.88270  0.63750  Biso   1.000  C
  C55      1.0000 0.61730  0.08650  0.88750  Biso   1.000  C
  C56      1.0000 0.38270  0.91350  0.38750  Biso   1.000  C
  C57      1.0000 0.10630  0.66390  0.02800  Biso   1.000  C
  C58      1.0000 0.89370  0.33610  0.52800  Biso   1.000  C
  C59      1.0000 0.83610  0.60630  0.27800  Biso   1.000  C
  C60      1.0000 0.16390  0.39370  0.77800  Biso   1.000  C
  C61      1.0000 0.39370  0.16390  0.22200  Biso   1.000  C
  C62      1.0000 0.60630  0.83610  0.72200  Biso   1.000  C
  C63      1.0000 0.66390  0.10630  0.97200  Biso   1.000  C
  C64      1.0000 0.33610  0.89370  0.47200  Biso   1.000  C
  C65      1.0000 0.18690  0.66570  0.99390  Biso   1.000  C
  C66      1.0000 0.81310  0.33430  0.49390  Biso   1.000  C
  C67      1.0000 0.83430  0.68690  0.24390  Biso   1.000  C
  C68      1.0000 0.16570  0.31310  0.74390  Biso   1.000  C
  C69      1.0000 0.31310  0.16570  0.25610  Biso   1.000  C
  C70      1.0000 0.68690  0.83430  0.75610  Biso   1.000  C
  C71      1.0000 0.66570  0.18690  0.00610  Biso   1.000  C
  C72      1.0000 0.33430  0.81310  0.50610  Biso   1.000  C
  H49      1.0000 0.22770  0.63610  0.02450  Biso   1.000  H
  H50      1.0000 0.77230  0.36390  0.52450  Biso   1.000  H
  H51      1.0000 0.86390  0.72770  0.27450  Biso   1.000  H
  H52      1.0000 0.13610  0.27230  0.77450  Biso   1.000  H
  H53      1.0000 0.27230  0.13610  0.22550  Biso   1.000  H
  H54      1.0000 0.72770  0.86390  0.72550  Biso   1.000  H
  H55      1.0000 0.63610  0.22770  0.97550  Biso   1.000  H
  H56      1.0000 0.36390  0.77230  0.47550  Biso   1.000  H
  C73      1.0000 0.21140  0.29630  0.66570  Biso   1.000  C
  C74      1.0000 0.78860  0.70370  0.16570  Biso   1.000  C
  C75      1.0000 0.20370  0.71140  0.91570  Biso   1.000  C
  C76      1.0000 0.79630  0.28860  0.41570  Biso   1.000  C
  C77      1.0000 0.28860  0.79630  0.58430  Biso   1.000  C
  C78      1.0000 0.71140  0.20370  0.08430  Biso   1.000  C
  C79      1.0000 0.29630  0.21140  0.33430  Biso   1.000  C
  C80      1.0000 0.70370  0.78860  0.83430  Biso   1.000  C
  H57      1.0000 0.21320  0.24240  0.64510  Biso   1.000  H
  H58      1.0000 0.78680  0.75760  0.14510  Biso   1.000  H
  H59      1.0000 0.25760  0.71320  0.89510  Biso   1.000  H
  H60      1.0000 0.74240  0.28680  0.39510  Biso   1.000  H
  H61      1.0000 0.28680  0.74240  0.60490  Biso   1.000  H
  H62      1.0000 0.71320  0.25760  0.10490  Biso   1.000  H
  H63      1.0000 0.24240  0.21320  0.35490  Biso   1.000  H
  H64      1.0000 0.75760  0.78680  0.85490  Biso   1.000  H
  C81      1.0000 0.25260  0.42790  0.64960  Biso   1.000  C
  C82      1.0000 0.74740  0.57210  0.14960  Biso   1.000  C
  C83      1.0000 0.07210  0.75260  0.89960  Biso   1.000  C
  C84      1.0000 0.92790  0.24740  0.39960  Biso   1.000  C
  C85      1.0000 0.24740  0.92790  0.60040  Biso   1.000  C
  C86      1.0000 0.75260  0.07210  0.10040  Biso   1.000  C
  C87      1.0000 0.42790  0.25260  0.35040  Biso   1.000  C
  C88      1.0000 0.57210  0.74740  0.85040  Biso   1.000  C
  H65      1.0000 0.28200  0.46780  0.61730  Biso   1.000  H
  H66      1.0000 0.71800  0.53220  0.11730  Biso   1.000  H
  H67      1.0000 0.03220  0.78200  0.86730  Biso   1.000  H
  H68      1.0000 0.96780  0.21800  0.36730  Biso   1.000  H
  H69      1.0000 0.21800  0.96780  0.63270  Biso   1.000  H
  H70      1.0000 0.78200  0.03220  0.13270  Biso   1.000  H
  H71      1.0000 0.46780  0.28200  0.38270  Biso   1.000  H
  H72      1.0000 0.53220  0.71800  0.88270  Biso   1.000  H
  C89      1.0000 0.05020  0.70900  0.98050  Biso   1.000  C
  C90      1.0000 0.94980  0.29100  0.48050  Biso   1.000  C
  C91      1.0000 0.79100  0.55020  0.23050  Biso   1.000  C
  C92      1.0000 0.20900  0.44980  0.73050  Biso   1.000  C
  C93      1.0000 0.44980  0.20900  0.26950  Biso   1.000  C
  C94      1.0000 0.55020  0.79100  0.76950  Biso   1.000  C
  C95      1.0000 0.70900  0.05020  0.01950  Biso   1.000  C
  C96      1.0000 0.29100  0.94980  0.51950  Biso   1.000  C
  H73      1.0000 0.99660  0.71070  0.00240  Biso   1.000  H
  H74      1.0000 0.00340  0.28930  0.50240  Biso   1.000  H
  H75      1.0000 0.78930  0.49660  0.25240  Biso   1.000  H
  H76      1.0000 0.21070  0.50340  0.75240  Biso   1.000  H
  H77      1.0000 0.50340  0.21070  0.24760  Biso   1.000  H
  H78      1.0000 0.49660  0.78930  0.74760  Biso   1.000  H
  H79      1.0000 0.71070  0.99660  0.99760  Biso   1.000  H
  H80      1.0000 0.28930  0.00340  0.49760  Biso   1.000  H
  O13      1.0000 0.60950  0.42480  0.95100  Biso   1.000  O
  O14      1.0000 0.39050  0.57520  0.45100  Biso   1.000  O
  O15      1.0000 0.07520  0.10950  0.20100  Biso   1.000  O
  O16      1.0000 0.92480  0.89050  0.70100  Biso   1.000  O
  O17      1.0000 0.89050  0.92480  0.29900  Biso   1.000  O
  O18      1.0000 0.10950  0.07520  0.79900  Biso   1.000  O
  O19      1.0000 0.42480  0.60950  0.04900  Biso   1.000  O
  O20      1.0000 0.57520  0.39050  0.54900  Biso   1.000  O
  Cl1      1.0000 0.12827  0.12827  0.50000  Biso   1.000  Cl
  Cl2      1.0000 0.87173  0.87173  0.00000  Biso   1.000  Cl
  Cl3      1.0000 0.37173  0.62827  0.75000  Biso   1.000  Cl
  Cl4      1.0000 0.62827  0.37173  0.25000  Biso   1.000  Cl
  O21      1.0000 0.10760  0.05100  0.46480  Biso   1.000  O
  O22      1.0000 0.89240  0.94900  0.96480  Biso   1.000  O
  O23      1.0000 0.44900  0.60760  0.71480  Biso   1.000  O
  O24      1.0000 0.55100  0.39240  0.21480  Biso   1.000  O
  O25      1.0000 0.39240  0.55100  0.78520  Biso   1.000  O
  O26      1.0000 0.60760  0.44900  0.28520  Biso   1.000  O
  O27      1.0000 0.05100  0.10760  0.53520  Biso   1.000  O
  O28      1.0000 0.94900  0.89240  0.03520  Biso   1.000  O
  O29      1.0000 0.08010  0.15450  0.58430  Biso   1.000  O
  O30      1.0000 0.91990  0.84550  0.08430  Biso   1.000  O
  O31      1.0000 0.34550  0.58010  0.83430  Biso   1.000  O
  O32      1.0000 0.65450  0.41990  0.33430  Biso   1.000  O
  O33      1.0000 0.41990  0.65450  0.66570  Biso   1.000  O
  O34      1.0000 0.58010  0.34550  0.16570  Biso   1.000  O
  O35      1.0000 0.15450  0.08010  0.41570  Biso   1.000  O
  O36      1.0000 0.84550  0.91990  0.91570  Biso   1.000  O
  O37      1.0000 0.11060  0.18510  0.42320  Biso   1.000  O
  O38      1.0000 0.88940  0.81490  0.92320  Biso   1.000  O
  O39      1.0000 0.31490  0.61060  0.67320  Biso   1.000  O
  O40      1.0000 0.68510  0.38940  0.17320  Biso   1.000  O
  O41      1.0000 0.38940  0.68510  0.82680  Biso   1.000  O
  O42      1.0000 0.61060  0.31490  0.32680  Biso   1.000  O
  O43      1.0000 0.18510  0.11060  0.57680  Biso   1.000  O
  O44      1.0000 0.81490  0.88940  0.07680  Biso   1.000  O
  O45      1.0000 0.21210  0.13310  0.52620  Biso   1.000  O
  O46      1.0000 0.78790  0.86690  0.02620  Biso   1.000  O
  O47      1.0000 0.36690  0.71210  0.77620  Biso   1.000  O
  O48      1.0000 0.63310  0.28790  0.27620  Biso   1.000  O
  O49      1.0000 0.28790  0.63310  0.72380  Biso   1.000  O
  O50      1.0000 0.71210  0.36690  0.22380  Biso   1.000  O
  O51      1.0000 0.13310  0.21210  0.47380  Biso   1.000  O
  O52      1.0000 0.86690  0.78790  0.97380  Biso   1.000  O
  Cl5      1.0000 0.39260  0.29170  0.98730  Biso   1.000  Cl
  Cl6      1.0000 0.60740  0.70830  0.48730  Biso   1.000  Cl
  Cl7      1.0000 0.20830  0.89260  0.23730  Biso   1.000  Cl
  Cl8      1.0000 0.79170  0.10740  0.73730  Biso   1.000  Cl
  Cl9      1.0000 0.10740  0.79170  0.26270  Biso   1.000  Cl
  Cl10     1.0000 0.89260  0.20830  0.76270  Biso   1.000  Cl
  Cl11     1.0000 0.29170  0.39260  0.01270  Biso   1.000  Cl
  Cl12     1.0000 0.70830  0.60740  0.51270  Biso   1.000  Cl
  O53      1.0000 0.48440  0.30640  0.99090  Biso   1.000  O
  O54      1.0000 0.51560  0.69360  0.49090  Biso   1.000  O
  O55      1.0000 0.19360  0.98440  0.24090  Biso   1.000  O
  O56      1.0000 0.80640  0.01560  0.74090  Biso   1.000  O
  O57      1.0000 0.01560  0.80640  0.25910  Biso   1.000  O
  O58      1.0000 0.98440  0.19360  0.75910  Biso   1.000  O
  O59      1.0000 0.30640  0.48440  0.00910  Biso   1.000  O
  O60      1.0000 0.69360  0.51560  0.50910  Biso   1.000  O
  O61      1.0000 0.37740  0.20640  0.95030  Biso   1.000  O
  O62      1.0000 0.62260  0.79360  0.45030  Biso   1.000  O
  O63      1.0000 0.29360  0.87740  0.20030  Biso   1.000  O
  O64      1.0000 0.70640  0.12260  0.70030  Biso   1.000  O
  O65      1.0000 0.12260  0.70640  0.29970  Biso   1.000  O
  O66      1.0000 0.87740  0.29360  0.79970  Biso   1.000  O
  O67      1.0000 0.20640  0.37740  0.04970  Biso   1.000  O
  O68      1.0000 0.79360  0.62260  0.54970  Biso   1.000  O
  O69      1.0000 0.35370  0.35270  0.92090  Biso   1.000  O
  O70      1.0000 0.64630  0.64730  0.42090  Biso   1.000  O
  O71      1.0000 0.14730  0.85370  0.17090  Biso   1.000  O
  O72      1.0000 0.85270  0.14630  0.67090  Biso   1.000  O
  O73      1.0000 0.14630  0.85270  0.32910  Biso   1.000  O
  O74      1.0000 0.85370  0.14730  0.82910  Biso   1.000  O
  O75      1.0000 0.35270  0.35370  0.07910  Biso   1.000  O
  O76      1.0000 0.64730  0.64630  0.57910  Biso   1.000  O
  O77      1.0000 0.35710  0.29960  0.08630  Biso   1.000  O
  O78      1.0000 0.64290  0.70040  0.58630  Biso   1.000  O
  O79      1.0000 0.20040  0.85710  0.33630  Biso   1.000  O
  O80      1.0000 0.79960  0.14290  0.83630  Biso   1.000  O
  O81      1.0000 0.14290  0.79960  0.16370  Biso   1.000  O
  O82      1.0000 0.85710  0.20040  0.66370  Biso   1.000  O
  O83      1.0000 0.29960  0.35710  0.91370  Biso   1.000  O
  O84      1.0000 0.70040  0.64290  0.41370  Biso   1.000  O
  Cl13     1.0000 0.30810  0.23690  0.92360  Biso   1.000  Cl
  Cl14     1.0000 0.69190  0.76310  0.42360  Biso   1.000  Cl
  Cl15     1.0000 0.26310  0.80810  0.17360  Biso   1.000  Cl
  Cl16     1.0000 0.73690  0.19190  0.67360  Biso   1.000  Cl
  Cl17     1.0000 0.19190  0.73690  0.32640  Biso   1.000  Cl
  Cl18     1.0000 0.80810  0.26310  0.82640  Biso   1.000  Cl
  Cl19     1.0000 0.23690  0.30810  0.07640  Biso   1.000  Cl
  Cl20     1.0000 0.76310  0.69190  0.57640  Biso   1.000  Cl
  O85      1.0000 0.32040  0.30410  0.86910  Biso   1.000  O
  O86      1.0000 0.67960  0.69590  0.36910  Biso   1.000  O
  O87      1.0000 0.19590  0.82040  0.11910  Biso   1.000  O
  O88      1.0000 0.80410  0.17960  0.61910  Biso   1.000  O
  O89      1.0000 0.17960  0.80410  0.38090  Biso   1.000  O
  O90      1.0000 0.82040  0.19590  0.88090  Biso   1.000  O
  O91      1.0000 0.30410  0.32040  0.13090  Biso   1.000  O
  O92      1.0000 0.69590  0.67960  0.63090  Biso   1.000  O
  O93      1.0000 0.26130  0.26130  0.00000  Biso   1.000  O
  O94      1.0000 0.73870  0.73870  0.50000  Biso   1.000  O
  O95      1.0000 0.23870  0.76130  0.25000  Biso   1.000  O
  O96      1.0000 0.76130  0.23870  0.75000  Biso   1.000  O
  O97      1.0000 0.26640  0.18200  0.87210  Biso   1.000  O
  O98      1.0000 0.73360  0.81800  0.37210  Biso   1.000  O
  O99      1.0000 0.31800  0.76640  0.12210  Biso   1.000  O
  O100     1.0000 0.68200  0.23360  0.62210  Biso   1.000  O
  O101     1.0000 0.23360  0.68200  0.37790  Biso   1.000  O
  O102     1.0000 0.76640  0.31800  0.87790  Biso   1.000  O
  O103     1.0000 0.18200  0.26640  0.12790  Biso   1.000  O
  O104     1.0000 0.81800  0.73360  0.62790  Biso   1.000  O
  Cu1      1.0000 0.31741  0.31741  0.50000  Biso   1.000  Cu
  Cu2      1.0000 0.68259  0.68259  0.00000  Biso   1.000  Cu
  Cu3      1.0000 0.18259  0.81741  0.75000  Biso   1.000  Cu
  Cu4      1.0000 0.81741  0.18259  0.25000  Biso   1.000  Cu
