data_image0
_cell_length_a       26.127
_cell_length_b       10.6143
_cell_length_c       14.5676
_cell_angle_alpha    90
_cell_angle_beta     111.289
_cell_angle_gamma    90

_symmetry_space_group_name_H-M    "P 1"
_symmetry_int_tables_number       1

loop_
  _symmetry_equiv_pos_as_xyz
  'x, y, z'

loop_
  _atom_site_label
  _atom_site_occupancy
  _atom_site_fract_x
  _atom_site_fract_y
  _atom_site_fract_z
  _atom_site_thermal_displace_type
  _atom_site_B_iso_or_equiv
  _atom_site_type_symbol
  Cu1      1.0000 0.25000  0.25000  0.00000  Biso   1.000  Cu
  Cu2      1.0000 0.75000  0.25000  0.50000  Biso   1.000  Cu
  Cu3      1.0000 0.75000  0.75000  0.00000  Biso   1.000  Cu
  Cu4      1.0000 0.25000  0.75000  0.50000  Biso   1.000  Cu
  Cl1      1.0000 0.10067  0.63574  0.71521  Biso   1.000  Cl
  Cl2      1.0000 0.89933  0.63574  0.78479  Biso   1.000  Cl
  Cl3      1.0000 0.60067  0.13574  0.71521  Biso   1.000  Cl
  Cl4      1.0000 0.39933  0.13574  0.78479  Biso   1.000  Cl
  Cl5      1.0000 0.89933  0.36426  0.28479  Biso   1.000  Cl
  Cl6      1.0000 0.10067  0.36426  0.21521  Biso   1.000  Cl
  Cl7      1.0000 0.39933  0.86426  0.28479  Biso   1.000  Cl
  Cl8      1.0000 0.60067  0.86426  0.21521  Biso   1.000  Cl
  C1       1.0000 0.25254  0.37740  0.48560  Biso   1.000  C
  C2       1.0000 0.74746  0.37740  0.01440  Biso   1.000  C
  C3       1.0000 0.75254  0.87740  0.48560  Biso   1.000  C
  C4       1.0000 0.24746  0.87740  0.01440  Biso   1.000  C
  C5       1.0000 0.74746  0.62260  0.51440  Biso   1.000  C
  C6       1.0000 0.25254  0.62260  0.98560  Biso   1.000  C
  C7       1.0000 0.24746  0.12260  0.51440  Biso   1.000  C
  C8       1.0000 0.75254  0.12260  0.98560  Biso   1.000  C
  H1       1.0000 0.25420  0.46350  0.47510  Biso   1.000  H
  H2       1.0000 0.74580  0.46350  0.02490  Biso   1.000  H
  H3       1.0000 0.75420  0.96350  0.47510  Biso   1.000  H
  H4       1.0000 0.24580  0.96350  0.02490  Biso   1.000  H
  H5       1.0000 0.74580  0.53650  0.52490  Biso   1.000  H
  H6       1.0000 0.25420  0.53650  0.97510  Biso   1.000  H
  H7       1.0000 0.24580  0.03650  0.52490  Biso   1.000  H
  H8       1.0000 0.75420  0.03650  0.97510  Biso   1.000  H
  O1       1.0000 0.16600  0.40170  0.01550  Biso   1.000  O
  O2       1.0000 0.83400  0.40170  0.48450  Biso   1.000  O
  O3       1.0000 0.66600  0.90170  0.01550  Biso   1.000  O
  O4       1.0000 0.33400  0.90170  0.48450  Biso   1.000  O
  O5       1.0000 0.83400  0.59830  0.98450  Biso   1.000  O
  O6       1.0000 0.16600  0.59830  0.51550  Biso   1.000  O
  O7       1.0000 0.33400  0.09830  0.98450  Biso   1.000  O
  O8       1.0000 0.66600  0.09830  0.51550  Biso   1.000  O
  O9       1.0000 0.17295  0.20450  0.97162  Biso   1.000  O
  O10      1.0000 0.82705  0.20450  0.52838  Biso   1.000  O
  O11      1.0000 0.67295  0.70450  0.97162  Biso   1.000  O
  O12      1.0000 0.32705  0.70450  0.52838  Biso   1.000  O
  O13      1.0000 0.82705  0.79550  0.02838  Biso   1.000  O
  O14      1.0000 0.17295  0.79550  0.47162  Biso   1.000  O
  O15      1.0000 0.32705  0.29550  0.02838  Biso   1.000  O
  O16      1.0000 0.67295  0.29550  0.47162  Biso   1.000  O
  C9       1.0000 0.11220  0.72640  0.89400  Biso   1.000  C
  C10      1.0000 0.88780  0.72640  0.60600  Biso   1.000  C
  C11      1.0000 0.61220  0.22640  0.89400  Biso   1.000  C
  C12      1.0000 0.38780  0.22640  0.60600  Biso   1.000  C
  C13      1.0000 0.88780  0.27360  0.10600  Biso   1.000  C
  C14      1.0000 0.11220  0.27360  0.39400  Biso   1.000  C
  C15      1.0000 0.38780  0.77360  0.10600  Biso   1.000  C
  C16      1.0000 0.61220  0.77360  0.39400  Biso   1.000  C
  H9       1.0000 0.12380  0.64610  0.91810  Biso   1.000  H
  H10      1.0000 0.87620  0.64610  0.58190  Biso   1.000  H
  H11      1.0000 0.62380  0.14610  0.91810  Biso   1.000  H
  H12      1.0000 0.37620  0.14610  0.58190  Biso   1.000  H
  H13      1.0000 0.87620  0.35390  0.08190  Biso   1.000  H
  H14      1.0000 0.12380  0.35390  0.41810  Biso   1.000  H
  H15      1.0000 0.37620  0.85390  0.08190  Biso   1.000  H
  H16      1.0000 0.62380  0.85390  0.41810  Biso   1.000  H
  N1       1.0000 0.26933  0.19200  0.13830  Biso   1.000  N
  N2       1.0000 0.73067  0.19200  0.36170  Biso   1.000  N
  N3       1.0000 0.76933  0.69200  0.13830  Biso   1.000  N
  N4       1.0000 0.23067  0.69200  0.36170  Biso   1.000  N
  N5       1.0000 0.73067  0.80800  0.86170  Biso   1.000  N
  N6       1.0000 0.26933  0.80800  0.63830  Biso   1.000  N
  N7       1.0000 0.23067  0.30800  0.86170  Biso   1.000  N
  N8       1.0000 0.76933  0.30800  0.63830  Biso   1.000  N
  O17      1.0000 0.11744  0.03050  0.07818  Biso   1.000  O
  O18      1.0000 0.88256  0.03050  0.42182  Biso   1.000  O
  O19      1.0000 0.61744  0.53050  0.07818  Biso   1.000  O
  O20      1.0000 0.38256  0.53050  0.42182  Biso   1.000  O
  O21      1.0000 0.88256  0.96950  0.92182  Biso   1.000  O
  O22      1.0000 0.11744  0.96950  0.57818  Biso   1.000  O
  O23      1.0000 0.38256  0.46950  0.92182  Biso   1.000  O
  O24      1.0000 0.61744  0.46950  0.57818  Biso   1.000  O
  N9       1.0000 0.25982  0.11380  0.27060  Biso   1.000  N
  N10      1.0000 0.74018  0.11380  0.22940  Biso   1.000  N
  N11      1.0000 0.75982  0.61380  0.27060  Biso   1.000  N
  N12      1.0000 0.24018  0.61380  0.22940  Biso   1.000  N
  N13      1.0000 0.74018  0.88620  0.72940  Biso   1.000  N
  N14      1.0000 0.25982  0.88620  0.77060  Biso   1.000  N
  N15      1.0000 0.24018  0.38620  0.72940  Biso   1.000  N
  N16      1.0000 0.75982  0.38620  0.77060  Biso   1.000  N
  C17      1.0000 0.99350  0.36700  0.88970  Biso   1.000  C
  C18      1.0000 0.00650  0.36700  0.61030  Biso   1.000  C
  C19      1.0000 0.49350  0.86700  0.88970  Biso   1.000  C
  C20      1.0000 0.50650  0.86700  0.61030  Biso   1.000  C
  C21      1.0000 0.00650  0.63300  0.11030  Biso   1.000  C
  C22      1.0000 0.99350  0.63300  0.38970  Biso   1.000  C
  C23      1.0000 0.50650  0.13300  0.11030  Biso   1.000  C
  C24      1.0000 0.49350  0.13300  0.38970  Biso   1.000  C
  H17      1.0000 0.97080  0.43700  0.86980  Biso   1.000  H
  H18      1.0000 0.02920  0.43700  0.63020  Biso   1.000  H
  H19      1.0000 0.47080  0.93700  0.86980  Biso   1.000  H
  H20      1.0000 0.52920  0.93700  0.63020  Biso   1.000  H
  H21      1.0000 0.02920  0.56300  0.13020  Biso   1.000  H
  H22      1.0000 0.97080  0.56300  0.36980  Biso   1.000  H
  H23      1.0000 0.52920  0.06300  0.13020  Biso   1.000  H
  H24      1.0000 0.47080  0.06300  0.36980  Biso   1.000  H
  C25      1.0000 0.24335  0.16630  0.42220  Biso   1.000  C
  C26      1.0000 0.75665  0.16630  0.07780  Biso   1.000  C
  C27      1.0000 0.74335  0.66630  0.42220  Biso   1.000  C
  C28      1.0000 0.25665  0.66630  0.07780  Biso   1.000  C
  C29      1.0000 0.75665  0.83370  0.57780  Biso   1.000  C
  C30      1.0000 0.24335  0.83370  0.92220  Biso   1.000  C
  C31      1.0000 0.25665  0.33370  0.57780  Biso   1.000  C
  C32      1.0000 0.74335  0.33370  0.92220  Biso   1.000  C
  C33      1.0000 0.09343  0.94180  0.92000  Biso   1.000  C
  C34      1.0000 0.90657  0.94180  0.58000  Biso   1.000  C
  C35      1.0000 0.59343  0.44180  0.92000  Biso   1.000  C
  C36      1.0000 0.40657  0.44180  0.58000  Biso   1.000  C
  C37      1.0000 0.90657  0.05820  0.08000  Biso   1.000  C
  C38      1.0000 0.09343  0.05820  0.42000  Biso   1.000  C
  C39      1.0000 0.40657  0.55820  0.08000  Biso   1.000  C
  C40      1.0000 0.59343  0.55820  0.42000  Biso   1.000  C
  C41      1.0000 0.14604  0.29900  0.98400  Biso   1.000  C
  C42      1.0000 0.85396  0.29900  0.51600  Biso   1.000  C
  C43      1.0000 0.64604  0.79900  0.98400  Biso   1.000  C
  C44      1.0000 0.35396  0.79900  0.51600  Biso   1.000  C
  C45      1.0000 0.85396  0.70100  0.01600  Biso   1.000  C
  C46      1.0000 0.14604  0.70100  0.48400  Biso   1.000  C
  C47      1.0000 0.35396  0.20100  0.01600  Biso   1.000  C
  C48      1.0000 0.64604  0.20100  0.48400  Biso   1.000  C
  C49      1.0000 0.06172  0.16010  0.95010  Biso   1.000  C
  C50      1.0000 0.93828  0.16010  0.54990  Biso   1.000  C
  C51      1.0000 0.56172  0.66010  0.95010  Biso   1.000  C
  C52      1.0000 0.43828  0.66010  0.54990  Biso   1.000  C
  C53      1.0000 0.93828  0.83990  0.04990  Biso   1.000  C
  C54      1.0000 0.06172  0.83990  0.45010  Biso   1.000  C
  C55      1.0000 0.43828  0.33990  0.04990  Biso   1.000  C
  C56      1.0000 0.56172  0.33990  0.45010  Biso   1.000  C
  C57      1.0000 0.23351  0.07350  0.33910  Biso   1.000  C
  C58      1.0000 0.76649  0.07350  0.16090  Biso   1.000  C
  C59      1.0000 0.73351  0.57350  0.33910  Biso   1.000  C
  C60      1.0000 0.26649  0.57350  0.16090  Biso   1.000  C
  C61      1.0000 0.76649  0.92650  0.66090  Biso   1.000  C
  C62      1.0000 0.23351  0.92650  0.83910  Biso   1.000  C
  C63      1.0000 0.26649  0.42650  0.66090  Biso   1.000  C
  C64      1.0000 0.73351  0.42650  0.83910  Biso   1.000  C
  H25      1.0000 0.24740  0.99240  0.36570  Biso   1.000  H
  H26      1.0000 0.75260  0.99240  0.13430  Biso   1.000  H
  H27      1.0000 0.74740  0.49240  0.36570  Biso   1.000  H
  H28      1.0000 0.25260  0.49240  0.13430  Biso   1.000  H
  H29      1.0000 0.75260  0.00760  0.63430  Biso   1.000  H
  H30      1.0000 0.24740  0.00760  0.86570  Biso   1.000  H
  H31      1.0000 0.25260  0.50760  0.63430  Biso   1.000  H
  H32      1.0000 0.74740  0.50760  0.86570  Biso   1.000  H
  H33      1.0000 0.19470  0.06590  0.30380  Biso   1.000  H
  H34      1.0000 0.80530  0.06590  0.19620  Biso   1.000  H
  H35      1.0000 0.69470  0.56590  0.30380  Biso   1.000  H
  H36      1.0000 0.30530  0.56590  0.19620  Biso   1.000  H
  H37      1.0000 0.80530  0.93410  0.69620  Biso   1.000  H
  H38      1.0000 0.19470  0.93410  0.80380  Biso   1.000  H
  H39      1.0000 0.30530  0.43410  0.69620  Biso   1.000  H
  H40      1.0000 0.69470  0.43410  0.80380  Biso   1.000  H
  C65      1.0000 0.23479  0.15740  0.17950  Biso   1.000  C
  C66      1.0000 0.76521  0.15740  0.32050  Biso   1.000  C
  C67      1.0000 0.73479  0.65740  0.17950  Biso   1.000  C
  C68      1.0000 0.26521  0.65740  0.32050  Biso   1.000  C
  C69      1.0000 0.76521  0.84260  0.82050  Biso   1.000  C
  C70      1.0000 0.23479  0.84260  0.67950  Biso   1.000  C
  C71      1.0000 0.26521  0.34260  0.82050  Biso   1.000  C
  C72      1.0000 0.73479  0.34260  0.67950  Biso   1.000  C
  H41      1.0000 0.19680  0.16260  0.14860  Biso   1.000  H
  H42      1.0000 0.80320  0.16260  0.35140  Biso   1.000  H
  H43      1.0000 0.69680  0.66260  0.14860  Biso   1.000  H
  H44      1.0000 0.30320  0.66260  0.35140  Biso   1.000  H
  H45      1.0000 0.80320  0.83740  0.85140  Biso   1.000  H
  H46      1.0000 0.19680  0.83740  0.64860  Biso   1.000  H
  H47      1.0000 0.30320  0.33740  0.85140  Biso   1.000  H
  H48      1.0000 0.69680  0.33740  0.64860  Biso   1.000  H
  C73      1.0000 0.08451  0.27850  0.95340  Biso   1.000  C
  C74      1.0000 0.91549  0.27850  0.54660  Biso   1.000  C
  C75      1.0000 0.58451  0.77850  0.95340  Biso   1.000  C
  C76      1.0000 0.41549  0.77850  0.54660  Biso   1.000  C
  C77      1.0000 0.91549  0.72150  0.04660  Biso   1.000  C
  C78      1.0000 0.08451  0.72150  0.45340  Biso   1.000  C
  C79      1.0000 0.41549  0.22150  0.04660  Biso   1.000  C
  C80      1.0000 0.58451  0.22150  0.45340  Biso   1.000  C
  C81      1.0000 0.32010  0.16940  0.20810  Biso   1.000  C
  C82      1.0000 0.67990  0.16940  0.29190  Biso   1.000  C
  C83      1.0000 0.82010  0.66940  0.20810  Biso   1.000  C
  C84      1.0000 0.17990  0.66940  0.29190  Biso   1.000  C
  C85      1.0000 0.67990  0.83060  0.79190  Biso   1.000  C
  C86      1.0000 0.32010  0.83060  0.70810  Biso   1.000  C
  C87      1.0000 0.17990  0.33060  0.79190  Biso   1.000  C
  C88      1.0000 0.82010  0.33060  0.70810  Biso   1.000  C
  H49      1.0000 0.35340  0.18470  0.20070  Biso   1.000  H
  H50      1.0000 0.64660  0.18470  0.29930  Biso   1.000  H
  H51      1.0000 0.85340  0.68470  0.20070  Biso   1.000  H
  H52      1.0000 0.14660  0.68470  0.29930  Biso   1.000  H
  H53      1.0000 0.64660  0.81530  0.79930  Biso   1.000  H
  H54      1.0000 0.35340  0.81530  0.70070  Biso   1.000  H
  H55      1.0000 0.14660  0.31530  0.79930  Biso   1.000  H
  H56      1.0000 0.85340  0.31530  0.70070  Biso   1.000  H
  C89      1.0000 0.31413  0.12130  0.28970  Biso   1.000  C
  C90      1.0000 0.68587  0.12130  0.21030  Biso   1.000  C
  C91      1.0000 0.81413  0.62130  0.28970  Biso   1.000  C
  C92      1.0000 0.18587  0.62130  0.21030  Biso   1.000  C
  C93      1.0000 0.68587  0.87870  0.71030  Biso   1.000  C
  C94      1.0000 0.31413  0.87870  0.78970  Biso   1.000  C
  C95      1.0000 0.18587  0.37870  0.71030  Biso   1.000  C
  C96      1.0000 0.81413  0.37870  0.78970  Biso   1.000  C
  H57      1.0000 0.34220  0.09800  0.34780  Biso   1.000  H
  H58      1.0000 0.65780  0.09800  0.15220  Biso   1.000  H
  H59      1.0000 0.84220  0.59800  0.34780  Biso   1.000  H
  H60      1.0000 0.15780  0.59800  0.15220  Biso   1.000  H
  H61      1.0000 0.65780  0.90200  0.65220  Biso   1.000  H
  H62      1.0000 0.34220  0.90200  0.84780  Biso   1.000  H
  H63      1.0000 0.15780  0.40200  0.65220  Biso   1.000  H
  H64      1.0000 0.84220  0.40200  0.84780  Biso   1.000  H
  C97      1.0000 0.09420  0.04300  0.98980  Biso   1.000  C
  C98      1.0000 0.90580  0.04300  0.51020  Biso   1.000  C
  C99      1.0000 0.59420  0.54300  0.98980  Biso   1.000  C
  C100     1.0000 0.40580  0.54300  0.51020  Biso   1.000  C
  C101     1.0000 0.90580  0.95700  0.01020  Biso   1.000  C
  C102     1.0000 0.09420  0.95700  0.48980  Biso   1.000  C
  C103     1.0000 0.40580  0.45700  0.01020  Biso   1.000  C
  C104     1.0000 0.59420  0.45700  0.48980  Biso   1.000  C
  C105     1.0000 0.11138  0.82170  0.95620  Biso   1.000  C
  C106     1.0000 0.88862  0.82170  0.54380  Biso   1.000  C
  C107     1.0000 0.61138  0.32170  0.95620  Biso   1.000  C
  C108     1.0000 0.38862  0.32170  0.54380  Biso   1.000  C
  C109     1.0000 0.88862  0.17830  0.04380  Biso   1.000  C
  C110     1.0000 0.11138  0.17830  0.45620  Biso   1.000  C
  C111     1.0000 0.38862  0.67830  0.04380  Biso   1.000  C
  C112     1.0000 0.61138  0.67830  0.45620  Biso   1.000  C
  H65      1.0000 0.12290  0.80640  0.02350  Biso   1.000  H
  H66      1.0000 0.87710  0.80640  0.47650  Biso   1.000  H
  H67      1.0000 0.62290  0.30640  0.02350  Biso   1.000  H
  H68      1.0000 0.37710  0.30640  0.47650  Biso   1.000  H
  H69      1.0000 0.87710  0.19360  0.97650  Biso   1.000  H
  H70      1.0000 0.12290  0.19360  0.52350  Biso   1.000  H
  H71      1.0000 0.37710  0.69360  0.97650  Biso   1.000  H
  H72      1.0000 0.62290  0.69360  0.52350  Biso   1.000  H
  C113     1.0000 0.24606  0.29420  0.40920  Biso   1.000  C
  C114     1.0000 0.75394  0.29420  0.09080  Biso   1.000  C
  C115     1.0000 0.74606  0.79420  0.40920  Biso   1.000  C
  C116     1.0000 0.25394  0.79420  0.09080  Biso   1.000  C
  C117     1.0000 0.75394  0.70580  0.59080  Biso   1.000  C
  C118     1.0000 0.24606  0.70580  0.90920  Biso   1.000  C
  C119     1.0000 0.25394  0.20580  0.59080  Biso   1.000  C
  C120     1.0000 0.74606  0.20580  0.90920  Biso   1.000  C
  H73      1.0000 0.24350  0.32520  0.34800  Biso   1.000  H
  H74      1.0000 0.75650  0.32520  0.15200  Biso   1.000  H
  H75      1.0000 0.74350  0.82520  0.34800  Biso   1.000  H
  H76      1.0000 0.25650  0.82520  0.15200  Biso   1.000  H
  H77      1.0000 0.75650  0.67480  0.65200  Biso   1.000  H
  H78      1.0000 0.24350  0.67480  0.84800  Biso   1.000  H
  H79      1.0000 0.25650  0.17480  0.65200  Biso   1.000  H
  H80      1.0000 0.74350  0.17480  0.84800  Biso   1.000  H
  C121     1.0000 0.07665  0.96250  0.82020  Biso   1.000  C
  C122     1.0000 0.92335  0.96250  0.67980  Biso   1.000  C
  C123     1.0000 0.57665  0.46250  0.82020  Biso   1.000  C
  C124     1.0000 0.42335  0.46250  0.67980  Biso   1.000  C
  C125     1.0000 0.92335  0.03750  0.17980  Biso   1.000  C
  C126     1.0000 0.07665  0.03750  0.32020  Biso   1.000  C
  C127     1.0000 0.42335  0.53750  0.17980  Biso   1.000  C
  C128     1.0000 0.57665  0.53750  0.32020  Biso   1.000  C
  H81      1.0000 0.06470  0.04240  0.79540  Biso   1.000  H
  H82      1.0000 0.93530  0.04240  0.70460  Biso   1.000  H
  H83      1.0000 0.56470  0.54240  0.79540  Biso   1.000  H
  H84      1.0000 0.43530  0.54240  0.70460  Biso   1.000  H
  H85      1.0000 0.93530  0.95760  0.20460  Biso   1.000  H
  H86      1.0000 0.06470  0.95760  0.29540  Biso   1.000  H
  H87      1.0000 0.43530  0.45760  0.20460  Biso   1.000  H
  H88      1.0000 0.56470  0.45760  0.29540  Biso   1.000  H
  C129     1.0000 0.04980  0.38220  0.92310  Biso   1.000  C
  C130     1.0000 0.95020  0.38220  0.57690  Biso   1.000  C
  C131     1.0000 0.54980  0.88220  0.92310  Biso   1.000  C
  C132     1.0000 0.45020  0.88220  0.57690  Biso   1.000  C
  C133     1.0000 0.95020  0.61780  0.07690  Biso   1.000  C
  C134     1.0000 0.04980  0.61780  0.42310  Biso   1.000  C
  C135     1.0000 0.45020  0.11780  0.07690  Biso   1.000  C
  C136     1.0000 0.54980  0.11780  0.42310  Biso   1.000  C
  H89      1.0000 0.06470  0.46230  0.92540  Biso   1.000  H
  H90      1.0000 0.93530  0.46230  0.57460  Biso   1.000  H
  H91      1.0000 0.56470  0.96230  0.92540  Biso   1.000  H
  H92      1.0000 0.43530  0.96230  0.57460  Biso   1.000  H
  H93      1.0000 0.93530  0.53770  0.07460  Biso   1.000  H
  H94      1.0000 0.06470  0.53770  0.42540  Biso   1.000  H
  H95      1.0000 0.43530  0.03770  0.07460  Biso   1.000  H
  H96      1.0000 0.56470  0.03770  0.42540  Biso   1.000  H
  C137     1.0000 0.00451  0.14820  0.91570  Biso   1.000  C
  C138     1.0000 0.99549  0.14820  0.58430  Biso   1.000  C
  C139     1.0000 0.50451  0.64820  0.91570  Biso   1.000  C
  C140     1.0000 0.49549  0.64820  0.58430  Biso   1.000  C
  C141     1.0000 0.99549  0.85180  0.08430  Biso   1.000  C
  C142     1.0000 0.00451  0.85180  0.41570  Biso   1.000  C
  C143     1.0000 0.49549  0.35180  0.08430  Biso   1.000  C
  C144     1.0000 0.50451  0.35180  0.41570  Biso   1.000  C
  H97      1.0000 0.98890  0.06890  0.91330  Biso   1.000  H
  H98      1.0000 0.01110  0.06890  0.58670  Biso   1.000  H
  H99      1.0000 0.48890  0.56890  0.91330  Biso   1.000  H
  H100     1.0000 0.51110  0.56890  0.58670  Biso   1.000  H
  H101     1.0000 0.01110  0.93110  0.08670  Biso   1.000  H
  H102     1.0000 0.98890  0.93110  0.41330  Biso   1.000  H
  H103     1.0000 0.51110  0.43110  0.08670  Biso   1.000  H
  H104     1.0000 0.48890  0.43110  0.41330  Biso   1.000  H
  C145     1.0000 0.09550  0.75210  0.79430  Biso   1.000  C
  C146     1.0000 0.90450  0.75210  0.70570  Biso   1.000  C
  C147     1.0000 0.59550  0.25210  0.79430  Biso   1.000  C
  C148     1.0000 0.40450  0.25210  0.70570  Biso   1.000  C
  C149     1.0000 0.90450  0.24790  0.20570  Biso   1.000  C
  C150     1.0000 0.09550  0.24790  0.29430  Biso   1.000  C
  C151     1.0000 0.40450  0.74790  0.20570  Biso   1.000  C
  C152     1.0000 0.59550  0.74790  0.29430  Biso   1.000  C
  C153     1.0000 0.07720  0.86780  0.75650  Biso   1.000  C
  C154     1.0000 0.92280  0.86780  0.74350  Biso   1.000  C
  C155     1.0000 0.57720  0.36780  0.75650  Biso   1.000  C
  C156     1.0000 0.42280  0.36780  0.74350  Biso   1.000  C
  C157     1.0000 0.92280  0.13220  0.24350  Biso   1.000  C
  C158     1.0000 0.07720  0.13220  0.25650  Biso   1.000  C
  C159     1.0000 0.42280  0.63220  0.24350  Biso   1.000  C
  C160     1.0000 0.57720  0.63220  0.25650  Biso   1.000  C
  H105     1.0000 0.06540  0.88240  0.68900  Biso   1.000  H
  H106     1.0000 0.93460  0.88240  0.81100  Biso   1.000  H
  H107     1.0000 0.56540  0.38240  0.68900  Biso   1.000  H
  H108     1.0000 0.43460  0.38240  0.81100  Biso   1.000  H
  H109     1.0000 0.93460  0.11760  0.31100  Biso   1.000  H
  H110     1.0000 0.06540  0.11760  0.18900  Biso   1.000  H
  H111     1.0000 0.43460  0.61760  0.31100  Biso   1.000  H
  H112     1.0000 0.56540  0.61760  0.18900  Biso   1.000  H
  C161     1.0000 0.97120  0.25110  0.88560  Biso   1.000  C
  C162     1.0000 0.02880  0.25110  0.61440  Biso   1.000  C
  C163     1.0000 0.47120  0.75110  0.88560  Biso   1.000  C
  C164     1.0000 0.52880  0.75110  0.61440  Biso   1.000  C
  C165     1.0000 0.02880  0.74890  0.11440  Biso   1.000  C
  C166     1.0000 0.97120  0.74890  0.38560  Biso   1.000  C
  C167     1.0000 0.52880  0.24890  0.11440  Biso   1.000  C
  C168     1.0000 0.47120  0.24890  0.38560  Biso   1.000  C
  H113     1.0000 0.93320  0.24160  0.86230  Biso   1.000  H
  H114     1.0000 0.06680  0.24160  0.63770  Biso   1.000  H
  H115     1.0000 0.43320  0.74160  0.86230  Biso   1.000  H
  H116     1.0000 0.56680  0.74160  0.63770  Biso   1.000  H
  H117     1.0000 0.06680  0.75840  0.13770  Biso   1.000  H
  H118     1.0000 0.93320  0.75840  0.36230  Biso   1.000  H
  H119     1.0000 0.56680  0.25840  0.13770  Biso   1.000  H
  H120     1.0000 0.43320  0.25840  0.36230  Biso   1.000  H
