data_image0
_cell_length_a       8.757
_cell_length_b       13.284
_cell_length_c       9.7045
_cell_angle_alpha    90
_cell_angle_beta     112.198
_cell_angle_gamma    90

_symmetry_space_group_name_H-M    "P 1"
_symmetry_int_tables_number       1

loop_
  _symmetry_equiv_pos_as_xyz
  'x, y, z'

loop_
  _atom_site_label
  _atom_site_occupancy
  _atom_site_fract_x
  _atom_site_fract_y
  _atom_site_fract_z
  _atom_site_thermal_displace_type
  _atom_site_B_iso_or_equiv
  _atom_site_type_symbol
  Cu1      1.0000 0.39461  0.61244  0.87400  Biso   1.000  Cu
  Cu2      1.0000 0.10539  0.11244  0.62600  Biso   1.000  Cu
  Cu3      1.0000 0.60539  0.38756  0.12600  Biso   1.000  Cu
  Cu4      1.0000 0.89461  0.88756  0.37400  Biso   1.000  Cu
  Cl1      1.0000 0.52512  0.72403  0.77730  Biso   1.000  Cl
  Cl2      1.0000 0.97488  0.22403  0.72270  Biso   1.000  Cl
  Cl3      1.0000 0.47488  0.27597  0.22270  Biso   1.000  Cl
  Cl4      1.0000 0.02512  0.77597  0.27730  Biso   1.000  Cl
  Cl5      1.0000 0.27902  0.49751  0.97799  Biso   1.000  Cl
  Cl6      1.0000 0.22098  0.99751  0.52201  Biso   1.000  Cl
  Cl7      1.0000 0.72098  0.50249  0.02201  Biso   1.000  Cl
  Cl8      1.0000 0.77902  0.00249  0.47799  Biso   1.000  Cl
  N1       1.0000 0.16490  0.42563  0.49970  Biso   1.000  N
  N2       1.0000 0.33510  0.92563  0.00030  Biso   1.000  N
  N3       1.0000 0.83510  0.57437  0.50030  Biso   1.000  N
  N4       1.0000 0.66490  0.07437  0.99970  Biso   1.000  N
  N5       1.0000 0.24080  0.49619  0.45233  Biso   1.000  N
  N6       1.0000 0.25920  0.99619  0.04767  Biso   1.000  N
  N7       1.0000 0.75920  0.50381  0.54767  Biso   1.000  N
  N8       1.0000 0.74080  0.00381  0.95233  Biso   1.000  N
  N9       1.0000 0.32660  0.55955  0.55442  Biso   1.000  N
  N10      1.0000 0.17340  0.05955  0.94558  Biso   1.000  N
  N11      1.0000 0.67340  0.44045  0.44558  Biso   1.000  N
  N12      1.0000 0.82660  0.94045  0.05442  Biso   1.000  N
  N13      1.0000 0.30900  0.53061  0.67823  Biso   1.000  N
  N14      1.0000 0.19100  0.03061  0.82177  Biso   1.000  N
  N15      1.0000 0.69100  0.46939  0.32177  Biso   1.000  N
  N16      1.0000 0.80900  0.96939  0.17823  Biso   1.000  N
  C1       1.0000 0.21020  0.44990  0.64180  Biso   1.000  C
  C2       1.0000 0.28980  0.94990  0.85820  Biso   1.000  C
  C3       1.0000 0.78980  0.55010  0.35820  Biso   1.000  C
  C4       1.0000 0.71020  0.05010  0.14180  Biso   1.000  C
  H1       1.0000 0.17710  0.41490  0.70880  Biso   1.000  H
  H2       1.0000 0.32290  0.91490  0.79120  Biso   1.000  H
  H3       1.0000 0.82290  0.58510  0.29120  Biso   1.000  H
  H4       1.0000 0.67710  0.08510  0.20880  Biso   1.000  H
  C5       1.0000 0.22650  0.50270  0.29730  Biso   1.000  C
  C6       1.0000 0.27350  0.00270  0.20270  Biso   1.000  C
  C7       1.0000 0.77350  0.49730  0.70270  Biso   1.000  C
  C8       1.0000 0.72650  0.99730  0.79730  Biso   1.000  C
  H5       1.0000 0.27010  0.56600  0.28130  Biso   1.000  H
  H6       1.0000 0.22990  0.06600  0.21870  Biso   1.000  H
  H7       1.0000 0.72990  0.43400  0.71870  Biso   1.000  H
  H8       1.0000 0.77010  0.93400  0.78130  Biso   1.000  H
  H9       1.0000 0.11260  0.49770  0.23240  Biso   1.000  H
  H10      1.0000 0.38740  0.99770  0.26760  Biso   1.000  H
  H11      1.0000 0.88740  0.50230  0.76760  Biso   1.000  H
  H12      1.0000 0.61260  0.00230  0.73240  Biso   1.000  H
  H13      1.0000 0.28760  0.44880  0.27660  Biso   1.000  H
  H14      1.0000 0.21240  0.94880  0.22340  Biso   1.000  H
  H15      1.0000 0.71240  0.55120  0.72340  Biso   1.000  H
  H16      1.0000 0.78760  0.05120  0.77660  Biso   1.000  H
  N17      1.0000 0.14007  0.71573  0.75258  Biso   1.000  N
  N18      1.0000 0.35993  0.21573  0.74742  Biso   1.000  N
  N19      1.0000 0.85993  0.28427  0.24742  Biso   1.000  N
  N20      1.0000 0.64007  0.78427  0.25258  Biso   1.000  N
  N21      1.0000 0.00727  0.74639  0.77508  Biso   1.000  N
  N22      1.0000 0.49273  0.24639  0.72492  Biso   1.000  N
  N23      1.0000 0.99273  0.25361  0.22492  Biso   1.000  N
  N24      1.0000 0.50727  0.75361  0.27508  Biso   1.000  N
  N25      1.0000 0.90668  0.80140  0.66664  Biso   1.000  N
  N26      1.0000 0.59332  0.30140  0.83336  Biso   1.000  N
  N27      1.0000 0.09332  0.19860  0.33336  Biso   1.000  N
  N28      1.0000 0.40668  0.69860  0.16664  Biso   1.000  N
  N29      1.0000 0.97493  0.80663  0.56659  Biso   1.000  N
  N30      1.0000 0.52507  0.30663  0.93341  Biso   1.000  N
  N31      1.0000 0.02507  0.19337  0.43341  Biso   1.000  N
  N32      1.0000 0.47493  0.69337  0.06659  Biso   1.000  N
  C9       1.0000 0.11560  0.75401  0.62013  Biso   1.000  C
  C10      1.0000 0.38440  0.25401  0.87987  Biso   1.000  C
  C11      1.0000 0.88440  0.24599  0.37987  Biso   1.000  C
  C12      1.0000 0.61560  0.74599  0.12013  Biso   1.000  C
  H17      1.0000 0.18710  0.74550  0.57050  Biso   1.000  H
  H18      1.0000 0.31290  0.24550  0.92950  Biso   1.000  H
  H19      1.0000 0.81290  0.25450  0.42950  Biso   1.000  H
  H20      1.0000 0.68710  0.75450  0.07050  Biso   1.000  H
  C13      1.0000 0.98200  0.72606  0.91310  Biso   1.000  C
  C14      1.0000 0.51800  0.22606  0.58690  Biso   1.000  C
  C15      1.0000 0.01800  0.27394  0.08690  Biso   1.000  C
  C16      1.0000 0.48200  0.77394  0.41310  Biso   1.000  C
  H21      1.0000 0.86600  0.72650  0.89370  Biso   1.000  H
  H22      1.0000 0.63400  0.22650  0.60630  Biso   1.000  H
  H23      1.0000 0.13400  0.27350  0.10630  Biso   1.000  H
  H24      1.0000 0.36600  0.77350  0.39370  Biso   1.000  H
  H25      1.0000 0.02720  0.66130  0.95110  Biso   1.000  H
  H26      1.0000 0.47280  0.16130  0.54890  Biso   1.000  H
  H27      1.0000 0.97280  0.33870  0.04890  Biso   1.000  H
  H28      1.0000 0.52720  0.83870  0.45110  Biso   1.000  H
  H29      1.0000 0.03610  0.77700  0.98520  Biso   1.000  H
  H30      1.0000 0.46390  0.27700  0.51480  Biso   1.000  H
  H31      1.0000 0.96390  0.22300  0.01480  Biso   1.000  H
  H32      1.0000 0.53610  0.72300  0.48520  Biso   1.000  H
