data_image0
_cell_length_a       17.3457
_cell_length_b       5.6766
_cell_length_c       10.6979
_cell_angle_alpha    90
_cell_angle_beta     115.593
_cell_angle_gamma    90

_symmetry_space_group_name_H-M    "P 1"
_symmetry_int_tables_number       1

loop_
  _symmetry_equiv_pos_as_xyz
  'x, y, z'

loop_
  _atom_site_label
  _atom_site_occupancy
  _atom_site_fract_x
  _atom_site_fract_y
  _atom_site_fract_z
  _atom_site_thermal_displace_type
  _atom_site_B_iso_or_equiv
  _atom_site_type_symbol
  Br1      1.0000 0.38408  0.13635  0.17984  Biso   1.000  Br
  Br2      1.0000 0.61592  0.13635  0.32016  Biso   1.000  Br
  Br3      1.0000 0.88408  0.63635  0.17984  Biso   1.000  Br
  Br4      1.0000 0.11592  0.63635  0.32016  Biso   1.000  Br
  Br5      1.0000 0.61592  0.86365  0.82016  Biso   1.000  Br
  Br6      1.0000 0.38408  0.86365  0.67984  Biso   1.000  Br
  Br7      1.0000 0.11592  0.36365  0.82016  Biso   1.000  Br
  Br8      1.0000 0.88408  0.36365  0.67984  Biso   1.000  Br
  Cu1      1.0000 0.25000  0.25000  0.00000  Biso   1.000  Cu
  Cu2      1.0000 0.75000  0.25000  0.50000  Biso   1.000  Cu
  Cu3      1.0000 0.75000  0.75000  0.00000  Biso   1.000  Cu
  Cu4      1.0000 0.25000  0.75000  0.50000  Biso   1.000  Cu
  O1       1.0000 0.23460  0.47450  0.12708  Biso   1.000  O
  O2       1.0000 0.76540  0.47450  0.37292  Biso   1.000  O
  O3       1.0000 0.73460  0.97450  0.12708  Biso   1.000  O
  O4       1.0000 0.26540  0.97450  0.37292  Biso   1.000  O
  O5       1.0000 0.76540  0.52550  0.87292  Biso   1.000  O
  O6       1.0000 0.23460  0.52550  0.62708  Biso   1.000  O
  O7       1.0000 0.26540  0.02550  0.87292  Biso   1.000  O
  O8       1.0000 0.73460  0.02550  0.62708  Biso   1.000  O
  H1       1.0000 0.26060  0.47100  0.20810  Biso   1.000  H
  H2       1.0000 0.73940  0.47100  0.29190  Biso   1.000  H
  H3       1.0000 0.76060  0.97100  0.20810  Biso   1.000  H
  H4       1.0000 0.23940  0.97100  0.29190  Biso   1.000  H
  H5       1.0000 0.73940  0.52900  0.79190  Biso   1.000  H
  H6       1.0000 0.26060  0.52900  0.70810  Biso   1.000  H
  H7       1.0000 0.23940  0.02900  0.79190  Biso   1.000  H
  H8       1.0000 0.76060  0.02900  0.70810  Biso   1.000  H
  H9       1.0000 0.21210  0.59900  0.10700  Biso   1.000  H
  H10      1.0000 0.78790  0.59900  0.39300  Biso   1.000  H
  H11      1.0000 0.71210  0.09900  0.10700  Biso   1.000  H
  H12      1.0000 0.28790  0.09900  0.39300  Biso   1.000  H
  H13      1.0000 0.78790  0.40100  0.89300  Biso   1.000  H
  H14      1.0000 0.21210  0.40100  0.60700  Biso   1.000  H
  H15      1.0000 0.28790  0.90100  0.89300  Biso   1.000  H
  H16      1.0000 0.71210  0.90100  0.60700  Biso   1.000  H
  O9       1.0000 0.16873  0.93180  0.08540  Biso   1.000  O
  O10      1.0000 0.83127  0.93180  0.41460  Biso   1.000  O
  O11      1.0000 0.66873  0.43180  0.08540  Biso   1.000  O
  O12      1.0000 0.33127  0.43180  0.41460  Biso   1.000  O
  O13      1.0000 0.83127  0.06820  0.91460  Biso   1.000  O
  O14      1.0000 0.16873  0.06820  0.58540  Biso   1.000  O
  O15      1.0000 0.33127  0.56820  0.91460  Biso   1.000  O
  O16      1.0000 0.66873  0.56820  0.58540  Biso   1.000  O
  N1       1.0000 0.08591  0.96430  0.04271  Biso   1.000  N
  N2       1.0000 0.91409  0.96430  0.45729  Biso   1.000  N
  N3       1.0000 0.58591  0.46430  0.04271  Biso   1.000  N
  N4       1.0000 0.41409  0.46430  0.45729  Biso   1.000  N
  N5       1.0000 0.91409  0.03570  0.95729  Biso   1.000  N
  N6       1.0000 0.08591  0.03570  0.54271  Biso   1.000  N
  N7       1.0000 0.41409  0.53570  0.95729  Biso   1.000  N
  N8       1.0000 0.58591  0.53570  0.54271  Biso   1.000  N
  C1       1.0000 0.02814  0.81450  0.95300  Biso   1.000  C
  C2       1.0000 0.97186  0.81450  0.54700  Biso   1.000  C
  C3       1.0000 0.52814  0.31450  0.95300  Biso   1.000  C
  C4       1.0000 0.47186  0.31450  0.54700  Biso   1.000  C
  C5       1.0000 0.97186  0.18550  0.04700  Biso   1.000  C
  C6       1.0000 0.02814  0.18550  0.45300  Biso   1.000  C
  C7       1.0000 0.47186  0.68550  0.04700  Biso   1.000  C
  C8       1.0000 0.52814  0.68550  0.45300  Biso   1.000  C
  H17      1.0000 0.04710  0.68360  0.91850  Biso   1.000  H
  H18      1.0000 0.95290  0.68360  0.58150  Biso   1.000  H
  H19      1.0000 0.54710  0.18360  0.91850  Biso   1.000  H
  H20      1.0000 0.45290  0.18360  0.58150  Biso   1.000  H
  H21      1.0000 0.95290  0.31640  0.08150  Biso   1.000  H
  H22      1.0000 0.04710  0.31640  0.41850  Biso   1.000  H
  H23      1.0000 0.45290  0.81640  0.08150  Biso   1.000  H
  H24      1.0000 0.54710  0.81640  0.41850  Biso   1.000  H
  C9       1.0000 0.05750  0.15120  0.08900  Biso   1.000  C
  C10      1.0000 0.94250  0.15120  0.41100  Biso   1.000  C
  C11      1.0000 0.55750  0.65120  0.08900  Biso   1.000  C
  C12      1.0000 0.44250  0.65120  0.41100  Biso   1.000  C
  C13      1.0000 0.94250  0.84880  0.91100  Biso   1.000  C
  C14      1.0000 0.05750  0.84880  0.58900  Biso   1.000  C
  C15      1.0000 0.44250  0.34880  0.91100  Biso   1.000  C
  C16      1.0000 0.55750  0.34880  0.58900  Biso   1.000  C
  H25      1.0000 0.09730  0.25960  0.15120  Biso   1.000  H
  H26      1.0000 0.90270  0.25960  0.34880  Biso   1.000  H
  H27      1.0000 0.59730  0.75960  0.15120  Biso   1.000  H
  H28      1.0000 0.40270  0.75960  0.34880  Biso   1.000  H
  H29      1.0000 0.90270  0.74040  0.84880  Biso   1.000  H
  H30      1.0000 0.09730  0.74040  0.65120  Biso   1.000  H
  H31      1.0000 0.40270  0.24040  0.84880  Biso   1.000  H
  H32      1.0000 0.59730  0.24040  0.65120  Biso   1.000  H
