data_image0
_cell_length_a       17.0515
_cell_length_b       5.556
_cell_length_c       10.4254
_cell_angle_alpha    90
_cell_angle_beta     115.4
_cell_angle_gamma    90

_symmetry_space_group_name_H-M    "P 1"
_symmetry_int_tables_number       1

loop_
  _symmetry_equiv_pos_as_xyz
  'x, y, z'

loop_
  _atom_site_label
  _atom_site_occupancy
  _atom_site_fract_x
  _atom_site_fract_y
  _atom_site_fract_z
  _atom_site_thermal_displace_type
  _atom_site_B_iso_or_equiv
  _atom_site_type_symbol
  Cl1      1.0000 0.37901  0.13784  0.17543  Biso   1.000  Cl
  Cl2      1.0000 0.62099  0.13784  0.32457  Biso   1.000  Cl
  Cl3      1.0000 0.87901  0.63784  0.17543  Biso   1.000  Cl
  Cl4      1.0000 0.12099  0.63784  0.32457  Biso   1.000  Cl
  Cl5      1.0000 0.62099  0.86216  0.82457  Biso   1.000  Cl
  Cl6      1.0000 0.37901  0.86216  0.67543  Biso   1.000  Cl
  Cl7      1.0000 0.12099  0.36216  0.82457  Biso   1.000  Cl
  Cl8      1.0000 0.87901  0.36216  0.67543  Biso   1.000  Cl
  Cu1      1.0000 0.25000  0.25000  0.00000  Biso   1.000  Cu
  Cu2      1.0000 0.75000  0.25000  0.50000  Biso   1.000  Cu
  Cu3      1.0000 0.75000  0.75000  0.00000  Biso   1.000  Cu
  Cu4      1.0000 0.25000  0.75000  0.50000  Biso   1.000  Cu
  O1       1.0000 0.23319  0.47710  0.12920  Biso   1.000  O
  O2       1.0000 0.76681  0.47710  0.37080  Biso   1.000  O
  O3       1.0000 0.73319  0.97710  0.12920  Biso   1.000  O
  O4       1.0000 0.26681  0.97710  0.37080  Biso   1.000  O
  O5       1.0000 0.76681  0.52290  0.87080  Biso   1.000  O
  O6       1.0000 0.23319  0.52290  0.62920  Biso   1.000  O
  O7       1.0000 0.26681  0.02290  0.87080  Biso   1.000  O
  O8       1.0000 0.73319  0.02290  0.62920  Biso   1.000  O
  H1       1.0000 0.26340  0.47200  0.21460  Biso   1.000  H
  H2       1.0000 0.73660  0.47200  0.28540  Biso   1.000  H
  H3       1.0000 0.76340  0.97200  0.21460  Biso   1.000  H
  H4       1.0000 0.23660  0.97200  0.28540  Biso   1.000  H
  H5       1.0000 0.73660  0.52800  0.78540  Biso   1.000  H
  H6       1.0000 0.26340  0.52800  0.71460  Biso   1.000  H
  H7       1.0000 0.23660  0.02800  0.78540  Biso   1.000  H
  H8       1.0000 0.76340  0.02800  0.71460  Biso   1.000  H
  H9       1.0000 0.21590  0.61000  0.10400  Biso   1.000  H
  H10      1.0000 0.78410  0.61000  0.39600  Biso   1.000  H
  H11      1.0000 0.71590  0.11000  0.10400  Biso   1.000  H
  H12      1.0000 0.28410  0.11000  0.39600  Biso   1.000  H
  H13      1.0000 0.78410  0.39000  0.89600  Biso   1.000  H
  H14      1.0000 0.21590  0.39000  0.60400  Biso   1.000  H
  H15      1.0000 0.28410  0.89000  0.89600  Biso   1.000  H
  H16      1.0000 0.71590  0.89000  0.60400  Biso   1.000  H
  O9       1.0000 0.17081  0.93740  0.08257  Biso   1.000  O
  O10      1.0000 0.82919  0.93740  0.41743  Biso   1.000  O
  O11      1.0000 0.67081  0.43740  0.08257  Biso   1.000  O
  O12      1.0000 0.32919  0.43740  0.41743  Biso   1.000  O
  O13      1.0000 0.82919  0.06260  0.91743  Biso   1.000  O
  O14      1.0000 0.17081  0.06260  0.58257  Biso   1.000  O
  O15      1.0000 0.32919  0.56260  0.91743  Biso   1.000  O
  O16      1.0000 0.67081  0.56260  0.58257  Biso   1.000  O
  N1       1.0000 0.08684  0.96780  0.04130  Biso   1.000  N
  N2       1.0000 0.91316  0.96780  0.45870  Biso   1.000  N
  N3       1.0000 0.58684  0.46780  0.04130  Biso   1.000  N
  N4       1.0000 0.41316  0.46780  0.45870  Biso   1.000  N
  N5       1.0000 0.91316  0.03220  0.95870  Biso   1.000  N
  N6       1.0000 0.08684  0.03220  0.54130  Biso   1.000  N
  N7       1.0000 0.41316  0.53220  0.95870  Biso   1.000  N
  N8       1.0000 0.58684  0.53220  0.54130  Biso   1.000  N
  C1       1.0000 0.02920  0.81190  0.95012  Biso   1.000  C
  C2       1.0000 0.97080  0.81190  0.54988  Biso   1.000  C
  C3       1.0000 0.52920  0.31190  0.95012  Biso   1.000  C
  C4       1.0000 0.47080  0.31190  0.54988  Biso   1.000  C
  C5       1.0000 0.97080  0.18810  0.04988  Biso   1.000  C
  C6       1.0000 0.02920  0.18810  0.45012  Biso   1.000  C
  C7       1.0000 0.47080  0.68810  0.04988  Biso   1.000  C
  C8       1.0000 0.52920  0.68810  0.45012  Biso   1.000  C
  H17      1.0000 0.04910  0.67970  0.91440  Biso   1.000  H
  H18      1.0000 0.95090  0.67970  0.58560  Biso   1.000  H
  H19      1.0000 0.54910  0.17970  0.91440  Biso   1.000  H
  H20      1.0000 0.45090  0.17970  0.58560  Biso   1.000  H
  H21      1.0000 0.95090  0.32030  0.08560  Biso   1.000  H
  H22      1.0000 0.04910  0.32030  0.41440  Biso   1.000  H
  H23      1.0000 0.45090  0.82030  0.08560  Biso   1.000  H
  H24      1.0000 0.54910  0.82030  0.41440  Biso   1.000  H
  C9       1.0000 0.05823  0.15640  0.09133  Biso   1.000  C
  C10      1.0000 0.94177  0.15640  0.40867  Biso   1.000  C
  C11      1.0000 0.55823  0.65640  0.09133  Biso   1.000  C
  C12      1.0000 0.44177  0.65640  0.40867  Biso   1.000  C
  C13      1.0000 0.94177  0.84360  0.90867  Biso   1.000  C
  C14      1.0000 0.05823  0.84360  0.59133  Biso   1.000  C
  C15      1.0000 0.44177  0.34360  0.90867  Biso   1.000  C
  C16      1.0000 0.55823  0.34360  0.59133  Biso   1.000  C
  H25      1.0000 0.09860  0.26710  0.15520  Biso   1.000  H
  H26      1.0000 0.90140  0.26710  0.34480  Biso   1.000  H
  H27      1.0000 0.59860  0.76710  0.15520  Biso   1.000  H
  H28      1.0000 0.40140  0.76710  0.34480  Biso   1.000  H
  H29      1.0000 0.90140  0.73290  0.84480  Biso   1.000  H
  H30      1.0000 0.09860  0.73290  0.65520  Biso   1.000  H
  H31      1.0000 0.40140  0.23290  0.84480  Biso   1.000  H
  H32      1.0000 0.59860  0.23290  0.65520  Biso   1.000  H
