data_image0
_cell_length_a       6.438
_cell_length_b       10.9394
_cell_length_c       8.7285
_cell_angle_alpha    90
_cell_angle_beta     101.224
_cell_angle_gamma    90

_symmetry_space_group_name_H-M    "P 1"
_symmetry_int_tables_number       1

loop_
  _symmetry_equiv_pos_as_xyz
  'x, y, z'

loop_
  _atom_site_label
  _atom_site_occupancy
  _atom_site_fract_x
  _atom_site_fract_y
  _atom_site_fract_z
  _atom_site_thermal_displace_type
  _atom_site_B_iso_or_equiv
  _atom_site_type_symbol
  Cu1      1.0000 0.11223  0.49187  0.14396  Biso   1.000  Cu
  Cu2      1.0000 0.38777  0.99187  0.35604  Biso   1.000  Cu
  Cu3      1.0000 0.88777  0.50813  0.85604  Biso   1.000  Cu
  Cu4      1.0000 0.61223  0.00813  0.64396  Biso   1.000  Cu
  C1       1.0000 0.73570  0.62540  0.10850  Biso   1.000  C
  C2       1.0000 0.76430  0.12540  0.39150  Biso   1.000  C
  C3       1.0000 0.26430  0.37460  0.89150  Biso   1.000  C
  C4       1.0000 0.23570  0.87460  0.60850  Biso   1.000  C
  H1       1.0000 0.63260  0.67050  0.14460  Biso   1.000  H
  H2       1.0000 0.86740  0.17050  0.35540  Biso   1.000  H
  H3       1.0000 0.36740  0.32950  0.85540  Biso   1.000  H
  H4       1.0000 0.13260  0.82950  0.64460  Biso   1.000  H
  C5       1.0000 0.80860  0.31030  0.05420  Biso   1.000  C
  C6       1.0000 0.69140  0.81030  0.44580  Biso   1.000  C
  C7       1.0000 0.19140  0.68970  0.94580  Biso   1.000  C
  C8       1.0000 0.30860  0.18970  0.55420  Biso   1.000  C
  H5       1.0000 0.73200  0.24110  0.07070  Biso   1.000  H
  H6       1.0000 0.76800  0.74110  0.42930  Biso   1.000  H
  H7       1.0000 0.26800  0.75890  0.92930  Biso   1.000  H
  H8       1.0000 0.23200  0.25890  0.57070  Biso   1.000  H
  C9       1.0000 0.52170  0.42770  0.38270  Biso   1.000  C
  C10      1.0000 0.97830  0.92770  0.11730  Biso   1.000  C
  C11      1.0000 0.47830  0.57230  0.61730  Biso   1.000  C
  C12      1.0000 0.02170  0.07230  0.88270  Biso   1.000  C
  H9       1.0000 0.54230  0.37550  0.30290  Biso   1.000  H
  H10      1.0000 0.95770  0.87550  0.19710  Biso   1.000  H
  H11      1.0000 0.45770  0.62450  0.69710  Biso   1.000  H
  H12      1.0000 0.04230  0.12450  0.80290  Biso   1.000  H
  C13      1.0000 0.67830  0.43790  0.51490  Biso   1.000  C
  C14      1.0000 0.82170  0.93790  0.98510  Biso   1.000  C
  C15      1.0000 0.32170  0.56210  0.48510  Biso   1.000  C
  C16      1.0000 0.17830  0.06210  0.01490  Biso   1.000  C
  H13      1.0000 0.80240  0.39310  0.52110  Biso   1.000  H
  H14      1.0000 0.69760  0.89310  0.97890  Biso   1.000  H
  H15      1.0000 0.19760  0.60690  0.47890  Biso   1.000  H
  H16      1.0000 0.30240  0.10690  0.02110  Biso   1.000  H
  N1       1.0000 0.34290  0.49040  0.36710  Biso   1.000  N
  N2       1.0000 0.15710  0.99040  0.13290  Biso   1.000  N
  N3       1.0000 0.65710  0.50960  0.63290  Biso   1.000  N
  N4       1.0000 0.84290  0.00960  0.86710  Biso   1.000  N
  O1       1.0000 0.88940  0.59120  0.20960  Biso   1.000  O
  O2       1.0000 0.61060  0.09120  0.29040  Biso   1.000  O
  O3       1.0000 0.11060  0.40880  0.79040  Biso   1.000  O
  O4       1.0000 0.38940  0.90880  0.70960  Biso   1.000  O
  O5       1.0000 0.94290  0.34600  0.16780  Biso   1.000  O
  O6       1.0000 0.55710  0.84600  0.33220  Biso   1.000  O
  O7       1.0000 0.05710  0.65400  0.83220  Biso   1.000  O
  O8       1.0000 0.44290  0.15400  0.66780  Biso   1.000  O
  O9       1.0000 0.70370  0.60640  0.96540  Biso   1.000  O
  O10      1.0000 0.79630  0.10640  0.53460  Biso   1.000  O
  O11      1.0000 0.29630  0.39360  0.03460  Biso   1.000  O
  O12      1.0000 0.20370  0.89360  0.46540  Biso   1.000  O
  O13      1.0000 0.76420  0.35590  0.92090  Biso   1.000  O
  O14      1.0000 0.73580  0.85590  0.57910  Biso   1.000  O
  O15      1.0000 0.23580  0.64410  0.07910  Biso   1.000  O
  O16      1.0000 0.26420  0.14410  0.42090  Biso   1.000  O
