data_image0
_cell_length_a       15.5844
_cell_length_b       7.2574
_cell_length_c       12.655
_cell_angle_alpha    90
_cell_angle_beta     94.413
_cell_angle_gamma    90

_symmetry_space_group_name_H-M    "P 1"
_symmetry_int_tables_number       1

loop_
  _symmetry_equiv_pos_as_xyz
  'x, y, z'

loop_
  _atom_site_label
  _atom_site_occupancy
  _atom_site_fract_x
  _atom_site_fract_y
  _atom_site_fract_z
  _atom_site_thermal_displace_type
  _atom_site_B_iso_or_equiv
  _atom_site_type_symbol
  Cu1      1.0000 0.32418  0.19458  0.04984  Biso   1.000  Cu
  Cu2      1.0000 0.82418  0.69458  0.04984  Biso   1.000  Cu
  Cu3      1.0000 0.67581  0.19458  0.45016  Biso   1.000  Cu
  Cu4      1.0000 0.17581  0.69458  0.45016  Biso   1.000  Cu
  Cu5      1.0000 0.67581  0.80542  0.95016  Biso   1.000  Cu
  Cu6      1.0000 0.17581  0.30542  0.95016  Biso   1.000  Cu
  Cu7      1.0000 0.32418  0.80542  0.54984  Biso   1.000  Cu
  Cu8      1.0000 0.82418  0.30542  0.54984  Biso   1.000  Cu
  O1       1.0000 0.28261  0.36610  0.15640  Biso   1.000  O
  O2       1.0000 0.78261  0.86610  0.15640  Biso   1.000  O
  O3       1.0000 0.71739  0.36610  0.34360  Biso   1.000  O
  O4       1.0000 0.21739  0.86610  0.34360  Biso   1.000  O
  O5       1.0000 0.71739  0.63390  0.84360  Biso   1.000  O
  O6       1.0000 0.21739  0.13390  0.84360  Biso   1.000  O
  O7       1.0000 0.28261  0.63390  0.65640  Biso   1.000  O
  O8       1.0000 0.78261  0.13390  0.65640  Biso   1.000  O
  N1       1.0000 0.44000  0.14210  0.16313  Biso   1.000  N
  N2       1.0000 0.94000  0.64210  0.16313  Biso   1.000  N
  N3       1.0000 0.56000  0.14210  0.33687  Biso   1.000  N
  N4       1.0000 0.06000  0.64210  0.33687  Biso   1.000  N
  N5       1.0000 0.56000  0.85790  0.83687  Biso   1.000  N
  N6       1.0000 0.06000  0.35790  0.83687  Biso   1.000  N
  N7       1.0000 0.44000  0.85790  0.66313  Biso   1.000  N
  N8       1.0000 0.94000  0.35790  0.66313  Biso   1.000  N
  C1       1.0000 0.21519  0.45800  0.14820  Biso   1.000  C
  C2       1.0000 0.71519  0.95800  0.14820  Biso   1.000  C
  C3       1.0000 0.78481  0.45800  0.35180  Biso   1.000  C
  C4       1.0000 0.28481  0.95800  0.35180  Biso   1.000  C
  C5       1.0000 0.78481  0.54200  0.85180  Biso   1.000  C
  C6       1.0000 0.28481  0.04200  0.85180  Biso   1.000  C
  C7       1.0000 0.21519  0.54200  0.64820  Biso   1.000  C
  C8       1.0000 0.71519  0.04200  0.64820  Biso   1.000  C
  H1       1.0000 0.20670  0.53670  0.20450  Biso   1.000  H
  H2       1.0000 0.70670  0.03670  0.20450  Biso   1.000  H
  H3       1.0000 0.79330  0.53670  0.29550  Biso   1.000  H
  H4       1.0000 0.29330  0.03670  0.29550  Biso   1.000  H
  H5       1.0000 0.79330  0.46330  0.79550  Biso   1.000  H
  H6       1.0000 0.29330  0.96330  0.79550  Biso   1.000  H
  H7       1.0000 0.20670  0.46330  0.70450  Biso   1.000  H
  H8       1.0000 0.70670  0.96330  0.70450  Biso   1.000  H
  O9       1.0000 0.37526  0.40690  0.98108  Biso   1.000  O
  O10      1.0000 0.87526  0.90690  0.98108  Biso   1.000  O
  O11      1.0000 0.62474  0.40690  0.51892  Biso   1.000  O
  O12      1.0000 0.12474  0.90690  0.51892  Biso   1.000  O
  O13      1.0000 0.62474  0.59310  0.01892  Biso   1.000  O
  O14      1.0000 0.12474  0.09310  0.01892  Biso   1.000  O
  O15      1.0000 0.37526  0.59310  0.48108  Biso   1.000  O
  O16      1.0000 0.87526  0.09310  0.48108  Biso   1.000  O
  O17      1.0000 0.15727  0.45840  0.07419  Biso   1.000  O
  O18      1.0000 0.65727  0.95840  0.07419  Biso   1.000  O
  O19      1.0000 0.84273  0.45840  0.42581  Biso   1.000  O
  O20      1.0000 0.34273  0.95840  0.42581  Biso   1.000  O
  O21      1.0000 0.84273  0.54160  0.92581  Biso   1.000  O
  O22      1.0000 0.34273  0.04160  0.92581  Biso   1.000  O
  O23      1.0000 0.15727  0.54160  0.57419  Biso   1.000  O
  O24      1.0000 0.65727  0.04160  0.57419  Biso   1.000  O
  C9       1.0000 0.32810  0.51500  0.92390  Biso   1.000  C
  C10      1.0000 0.82810  0.01500  0.92390  Biso   1.000  C
  C11      1.0000 0.67190  0.51500  0.57610  Biso   1.000  C
  C12      1.0000 0.17190  0.01500  0.57610  Biso   1.000  C
  C13      1.0000 0.67190  0.48500  0.07610  Biso   1.000  C
  C14      1.0000 0.17190  0.98500  0.07610  Biso   1.000  C
  C15      1.0000 0.32810  0.48500  0.42390  Biso   1.000  C
  C16      1.0000 0.82810  0.98500  0.42390  Biso   1.000  C
  H9       1.0000 0.35570  0.61530  0.89570  Biso   1.000  H
  H10      1.0000 0.85570  0.11530  0.89570  Biso   1.000  H
  H11      1.0000 0.64430  0.61530  0.60430  Biso   1.000  H
  H12      1.0000 0.14430  0.11530  0.60430  Biso   1.000  H
  H13      1.0000 0.64430  0.38470  0.10430  Biso   1.000  H
  H14      1.0000 0.14430  0.88470  0.10430  Biso   1.000  H
  H15      1.0000 0.35570  0.38470  0.39570  Biso   1.000  H
  H16      1.0000 0.85570  0.88470  0.39570  Biso   1.000  H
  O25      1.0000 0.24921  0.50320  0.90083  Biso   1.000  O
  O26      1.0000 0.74921  0.00320  0.90083  Biso   1.000  O
  O27      1.0000 0.75079  0.50320  0.59917  Biso   1.000  O
  O28      1.0000 0.25079  0.00320  0.59917  Biso   1.000  O
  O29      1.0000 0.75079  0.49680  0.09917  Biso   1.000  O
  O30      1.0000 0.25079  0.99680  0.09917  Biso   1.000  O
  O31      1.0000 0.24921  0.49680  0.40083  Biso   1.000  O
  O32      1.0000 0.74921  0.99680  0.40083  Biso   1.000  O
  C17      1.0000 0.47054  0.98520  0.20470  Biso   1.000  C
  C18      1.0000 0.97054  0.48520  0.20470  Biso   1.000  C
  C19      1.0000 0.52946  0.98520  0.29530  Biso   1.000  C
  C20      1.0000 0.02946  0.48520  0.29530  Biso   1.000  C
  C21      1.0000 0.52946  0.01480  0.79530  Biso   1.000  C
  C22      1.0000 0.02946  0.51480  0.79530  Biso   1.000  C
  C23      1.0000 0.47054  0.01480  0.70470  Biso   1.000  C
  C24      1.0000 0.97054  0.51480  0.70470  Biso   1.000  C
  C25      1.0000 0.47046  0.29920  0.20720  Biso   1.000  C
  C26      1.0000 0.97046  0.79920  0.20720  Biso   1.000  C
  C27      1.0000 0.52954  0.29920  0.29280  Biso   1.000  C
  C28      1.0000 0.02954  0.79920  0.29280  Biso   1.000  C
  C29      1.0000 0.52954  0.70080  0.79280  Biso   1.000  C
  C30      1.0000 0.02954  0.20080  0.79280  Biso   1.000  C
  C31      1.0000 0.47046  0.70080  0.70720  Biso   1.000  C
  C32      1.0000 0.97046  0.20080  0.70720  Biso   1.000  C
  H17      1.0000 0.45090  0.41110  0.17890  Biso   1.000  H
  H18      1.0000 0.95090  0.91110  0.17890  Biso   1.000  H
  H19      1.0000 0.54910  0.41110  0.32110  Biso   1.000  H
  H20      1.0000 0.04910  0.91110  0.32110  Biso   1.000  H
  H21      1.0000 0.54910  0.58890  0.82110  Biso   1.000  H
  H22      1.0000 0.04910  0.08890  0.82110  Biso   1.000  H
  H23      1.0000 0.45090  0.58890  0.67890  Biso   1.000  H
  H24      1.0000 0.95090  0.08890  0.67890  Biso   1.000  H
  C33      1.0000 0.44010  0.80850  0.15280  Biso   1.000  C
  C34      1.0000 0.94010  0.30850  0.15280  Biso   1.000  C
  C35      1.0000 0.55990  0.80850  0.34720  Biso   1.000  C
  C36      1.0000 0.05990  0.30850  0.34720  Biso   1.000  C
  C37      1.0000 0.55990  0.19150  0.84720  Biso   1.000  C
  C38      1.0000 0.05990  0.69150  0.84720  Biso   1.000  C
  C39      1.0000 0.44010  0.19150  0.65280  Biso   1.000  C
  C40      1.0000 0.94010  0.69150  0.65280  Biso   1.000  C
  H25      1.0000 0.40900  0.83510  0.08610  Biso   1.000  H
  H26      1.0000 0.90900  0.33510  0.08610  Biso   1.000  H
  H27      1.0000 0.59100  0.83510  0.41390  Biso   1.000  H
  H28      1.0000 0.09100  0.33510  0.41390  Biso   1.000  H
  H29      1.0000 0.59100  0.16490  0.91390  Biso   1.000  H
  H30      1.0000 0.09100  0.66490  0.91390  Biso   1.000  H
  H31      1.0000 0.40900  0.16490  0.58610  Biso   1.000  H
  H32      1.0000 0.90900  0.66490  0.58610  Biso   1.000  H
  H33      1.0000 0.40310  0.74510  0.19790  Biso   1.000  H
  H34      1.0000 0.90310  0.24510  0.19790  Biso   1.000  H
  H35      1.0000 0.59690  0.74510  0.30210  Biso   1.000  H
  H36      1.0000 0.09690  0.24510  0.30210  Biso   1.000  H
  H37      1.0000 0.59690  0.25490  0.80210  Biso   1.000  H
  H38      1.0000 0.09690  0.75490  0.80210  Biso   1.000  H
  H39      1.0000 0.40310  0.25490  0.69790  Biso   1.000  H
  H40      1.0000 0.90310  0.75490  0.69790  Biso   1.000  H
  H41      1.0000 0.48880  0.73210  0.14120  Biso   1.000  H
  H42      1.0000 0.98880  0.23210  0.14120  Biso   1.000  H
  H43      1.0000 0.51120  0.73210  0.35880  Biso   1.000  H
  H44      1.0000 0.01120  0.23210  0.35880  Biso   1.000  H
  H45      1.0000 0.51120  0.26790  0.85880  Biso   1.000  H
  H46      1.0000 0.01120  0.76790  0.85880  Biso   1.000  H
  H47      1.0000 0.48880  0.26790  0.64120  Biso   1.000  H
  H48      1.0000 0.98880  0.76790  0.64120  Biso   1.000  H
