data_image0
_cell_length_a       7.8347
_cell_length_b       13.3996
_cell_length_c       14.0216
_cell_angle_alpha    90
_cell_angle_beta     90
_cell_angle_gamma    90

_symmetry_space_group_name_H-M    "P 1"
_symmetry_int_tables_number       1

loop_
  _symmetry_equiv_pos_as_xyz
  'x, y, z'

loop_
  _atom_site_label
  _atom_site_occupancy
  _atom_site_fract_x
  _atom_site_fract_y
  _atom_site_fract_z
  _atom_site_thermal_displace_type
  _atom_site_B_iso_or_equiv
  _atom_site_type_symbol
  Cu1      1.0000 0.50396  0.33922  0.26898  Biso   1.000  Cu
  Cu2      1.0000 0.99604  0.66078  0.76898  Biso   1.000  Cu
  Cu3      1.0000 0.49604  0.83922  0.23102  Biso   1.000  Cu
  Cu4      1.0000 0.00396  0.16078  0.73102  Biso   1.000  Cu
  Cu5      1.0000 0.98048  0.09172  0.15545  Biso   1.000  Cu
  Cu6      1.0000 0.51952  0.90828  0.65545  Biso   1.000  Cu
  Cu7      1.0000 0.01952  0.59172  0.34455  Biso   1.000  Cu
  Cu8      1.0000 0.48048  0.40828  0.84455  Biso   1.000  Cu
  B1       1.0000 0.25830  0.20900  0.20570  Biso   1.000  B
  B2       1.0000 0.24170  0.79100  0.70570  Biso   1.000  B
  B3       1.0000 0.74170  0.70900  0.29430  Biso   1.000  B
  B4       1.0000 0.75830  0.29100  0.79430  Biso   1.000  B
  C1       1.0000 0.19170  0.39880  0.34330  Biso   1.000  C
  C2       1.0000 0.30830  0.60120  0.84330  Biso   1.000  C
  C3       1.0000 0.80830  0.89880  0.15670  Biso   1.000  C
  C4       1.0000 0.69170  0.10120  0.65670  Biso   1.000  C
  C5       1.0000 0.17210  0.28560  0.35060  Biso   1.000  C
  C6       1.0000 0.32790  0.71440  0.85060  Biso   1.000  C
  C7       1.0000 0.82790  0.78560  0.14940  Biso   1.000  C
  C8       1.0000 0.67210  0.21440  0.64940  Biso   1.000  C
  H1       1.0000 0.16830  0.26580  0.41780  Biso   1.000  H
  H2       1.0000 0.33170  0.73420  0.91780  Biso   1.000  H
  H3       1.0000 0.83170  0.76580  0.08220  Biso   1.000  H
  H4       1.0000 0.66830  0.23420  0.58220  Biso   1.000  H
  C9       1.0000 0.01190  0.24670  0.29900  Biso   1.000  C
  C10      1.0000 0.48810  0.75330  0.79900  Biso   1.000  C
  C11      1.0000 0.98810  0.74670  0.20100  Biso   1.000  C
  C12      1.0000 0.51190  0.25330  0.70100  Biso   1.000  C
  H5       1.0000 0.92510  0.29930  0.29720  Biso   1.000  H
  H6       1.0000 0.57490  0.70070  0.79720  Biso   1.000  H
  H7       1.0000 0.07490  0.79930  0.20280  Biso   1.000  H
  H8       1.0000 0.42510  0.20070  0.70280  Biso   1.000  H
  C13      1.0000 0.93680  0.15360  0.34340  Biso   1.000  C
  C14      1.0000 0.56320  0.84640  0.84340  Biso   1.000  C
  C15      1.0000 0.06320  0.65360  0.15660  Biso   1.000  C
  C16      1.0000 0.43680  0.34640  0.65660  Biso   1.000  C
  C17      1.0000 0.63880  0.19990  0.13470  Biso   1.000  C
  C18      1.0000 0.86120  0.80010  0.63470  Biso   1.000  C
  C19      1.0000 0.36120  0.69990  0.36530  Biso   1.000  C
  C20      1.0000 0.13880  0.30010  0.86530  Biso   1.000  C
  C21      1.0000 0.46450  0.20490  0.08580  Biso   1.000  C
  C22      1.0000 0.03550  0.79510  0.58580  Biso   1.000  C
  C23      1.0000 0.53550  0.70490  0.41420  Biso   1.000  C
  C24      1.0000 0.96450  0.29510  0.91420  Biso   1.000  C
  H9       1.0000 0.47590  0.22520  0.01890  Biso   1.000  H
  H10      1.0000 0.02410  0.77480  0.51890  Biso   1.000  H
  H11      1.0000 0.52410  0.72520  0.48110  Biso   1.000  H
  H12      1.0000 0.97590  0.27480  0.98110  Biso   1.000  H
  C25      1.0000 0.37750  0.10130  0.09390  Biso   1.000  C
  C26      1.0000 0.12250  0.89870  0.59390  Biso   1.000  C
  C27      1.0000 0.62250  0.60130  0.40610  Biso   1.000  C
  C28      1.0000 0.87750  0.39870  0.90610  Biso   1.000  C
  H13      1.0000 0.46390  0.04840  0.09250  Biso   1.000  H
  H14      1.0000 0.03610  0.95160  0.59250  Biso   1.000  H
  H15      1.0000 0.53610  0.54840  0.40750  Biso   1.000  H
  H16      1.0000 0.96390  0.45160  0.90750  Biso   1.000  H
  C29      1.0000 0.25180  0.08720  0.01230  Biso   1.000  C
  C30      1.0000 0.24820  0.91280  0.51230  Biso   1.000  C
  C31      1.0000 0.74820  0.58720  0.48770  Biso   1.000  C
  C32      1.0000 0.75180  0.41280  0.98770  Biso   1.000  C
  O1       1.0000 0.32900  0.43290  0.31170  Biso   1.000  O
  O2       1.0000 0.17100  0.56710  0.81170  Biso   1.000  O
  O3       1.0000 0.67100  0.93290  0.18830  Biso   1.000  O
  O4       1.0000 0.82900  0.06710  0.68830  Biso   1.000  O
  O5       1.0000 0.06660  0.44890  0.37130  Biso   1.000  O
  O6       1.0000 0.43340  0.55110  0.87130  Biso   1.000  O
  O7       1.0000 0.93340  0.94890  0.12870  Biso   1.000  O
  O8       1.0000 0.56660  0.05110  0.62870  Biso   1.000  O
  O9       1.0000 0.89030  0.15680  0.42700  Biso   1.000  O
  O10      1.0000 0.60970  0.84320  0.92700  Biso   1.000  O
  O11      1.0000 0.10970  0.65680  0.07300  Biso   1.000  O
  O12      1.0000 0.39030  0.34320  0.57300  Biso   1.000  O
  O13      1.0000 0.91970  0.07750  0.28920  Biso   1.000  O
  O14      1.0000 0.58030  0.92250  0.78920  Biso   1.000  O
  O15      1.0000 0.08030  0.57750  0.21080  Biso   1.000  O
  O16      1.0000 0.41970  0.42250  0.71080  Biso   1.000  O
  O17      1.0000 0.65970  0.24290  0.21390  Biso   1.000  O
  O18      1.0000 0.84030  0.75710  0.71390  Biso   1.000  O
  O19      1.0000 0.34030  0.74290  0.28610  Biso   1.000  O
  O20      1.0000 0.15970  0.25710  0.78610  Biso   1.000  O
  O21      1.0000 0.74950  0.15060  0.09180  Biso   1.000  O
  O22      1.0000 0.75050  0.84940  0.59180  Biso   1.000  O
  O23      1.0000 0.25050  0.65060  0.40820  Biso   1.000  O
  O24      1.0000 0.24950  0.34940  0.90820  Biso   1.000  O
  O25      1.0000 0.31660  0.07290  0.93260  Biso   1.000  O
  O26      1.0000 0.18340  0.92710  0.43260  Biso   1.000  O
  O27      1.0000 0.68340  0.57290  0.56740  Biso   1.000  O
  O28      1.0000 0.81660  0.42710  0.06740  Biso   1.000  O
  O29      1.0000 0.09180  0.09440  0.02900  Biso   1.000  O
  O30      1.0000 0.40820  0.90560  0.52900  Biso   1.000  O
  O31      1.0000 0.90820  0.59440  0.47100  Biso   1.000  O
  O32      1.0000 0.59180  0.40560  0.97100  Biso   1.000  O
  O33      1.0000 0.34770  0.26850  0.13560  Biso   1.000  O
  O34      1.0000 0.15230  0.73150  0.63560  Biso   1.000  O
  O35      1.0000 0.65230  0.76850  0.36440  Biso   1.000  O
  O36      1.0000 0.84770  0.23150  0.86440  Biso   1.000  O
  O37      1.0000 0.29790  0.10450  0.18470  Biso   1.000  O
  O38      1.0000 0.20210  0.89550  0.68470  Biso   1.000  O
  O39      1.0000 0.70210  0.60450  0.31530  Biso   1.000  O
  O40      1.0000 0.79790  0.39550  0.81530  Biso   1.000  O
  O41      1.0000 0.31140  0.23700  0.30450  Biso   1.000  O
  O42      1.0000 0.18860  0.76300  0.80450  Biso   1.000  O
  O43      1.0000 0.68860  0.73700  0.19550  Biso   1.000  O
  O44      1.0000 0.81140  0.26300  0.69550  Biso   1.000  O
  O45      1.0000 0.07270  0.22750  0.20400  Biso   1.000  O
  O46      1.0000 0.42730  0.77250  0.70400  Biso   1.000  O
  O47      1.0000 0.92730  0.72750  0.29600  Biso   1.000  O
  O48      1.0000 0.57270  0.27250  0.79600  Biso   1.000  O
  O49      1.0000 0.60630  0.45240  0.20240  Biso   1.000  O
  O50      1.0000 0.89370  0.54760  0.70240  Biso   1.000  O
  O51      1.0000 0.39370  0.95240  0.29760  Biso   1.000  O
  O52      1.0000 0.10630  0.04760  0.79760  Biso   1.000  O
  H17      1.0000 0.62210  0.50340  0.23740  Biso   1.000  H
  H18      1.0000 0.87790  0.49660  0.73740  Biso   1.000  H
  H19      1.0000 0.37790  0.00340  0.26260  Biso   1.000  H
  H20      1.0000 0.12210  0.99660  0.76260  Biso   1.000  H
  H21      1.0000 0.69590  0.43780  0.17120  Biso   1.000  H
  H22      1.0000 0.80410  0.56220  0.67120  Biso   1.000  H
  H23      1.0000 0.30410  0.93780  0.32880  Biso   1.000  H
  H24      1.0000 0.19590  0.06220  0.82880  Biso   1.000  H
  O53      1.0000 0.62290  0.33080  0.41150  Biso   1.000  O
  O54      1.0000 0.87710  0.66920  0.91150  Biso   1.000  O
  O55      1.0000 0.37710  0.83080  0.08850  Biso   1.000  O
  O56      1.0000 0.12290  0.16920  0.58850  Biso   1.000  O
  H25      1.0000 0.66640  0.27320  0.41920  Biso   1.000  H
  H26      1.0000 0.83360  0.72680  0.91920  Biso   1.000  H
  H27      1.0000 0.33360  0.77320  0.08080  Biso   1.000  H
  H28      1.0000 0.16640  0.22680  0.58080  Biso   1.000  H
  H29      1.0000 0.54720  0.34070  0.45400  Biso   1.000  H
  H30      1.0000 0.95280  0.65930  0.95400  Biso   1.000  H
  H31      1.0000 0.45280  0.84070  0.04600  Biso   1.000  H
  H32      1.0000 0.04720  0.15930  0.54600  Biso   1.000  H
  K1       1.0000 0.72720  0.96274  0.42312  Biso   1.000  K
  K2       1.0000 0.77280  0.03726  0.92312  Biso   1.000  K
  K3       1.0000 0.27280  0.46274  0.07688  Biso   1.000  K
  K4       1.0000 0.22720  0.53726  0.57688  Biso   1.000  K
  O57      1.0000 0.49380  0.61920  0.05960  Biso   1.000  O
  O58      1.0000 0.00620  0.38080  0.55960  Biso   1.000  O
  O59      1.0000 0.50620  0.11920  0.44040  Biso   1.000  O
  O60      1.0000 0.99380  0.88080  0.94040  Biso   1.000  O
