data_image0
_cell_length_a       14.563
_cell_length_b       11.473
_cell_length_c       16.377
_cell_angle_alpha    90
_cell_angle_beta     100.289
_cell_angle_gamma    90

_symmetry_space_group_name_H-M    "P 1"
_symmetry_int_tables_number       1

loop_
  _symmetry_equiv_pos_as_xyz
  'x, y, z'

loop_
  _atom_site_label
  _atom_site_occupancy
  _atom_site_fract_x
  _atom_site_fract_y
  _atom_site_fract_z
  _atom_site_thermal_displace_type
  _atom_site_B_iso_or_equiv
  _atom_site_type_symbol
  Cu1      1.0000 0.26412  0.99965  0.16657  Biso   1.000  Cu
  Cu2      1.0000 0.23588  0.49965  0.83343  Biso   1.000  Cu
  Cu3      1.0000 0.73588  0.00035  0.83343  Biso   1.000  Cu
  Cu4      1.0000 0.76412  0.50035  0.16657  Biso   1.000  Cu
  S1       1.0000 0.96237  0.79372  0.50274  Biso   1.000  S
  S2       1.0000 0.53763  0.29372  0.49726  Biso   1.000  S
  S3       1.0000 0.03763  0.20628  0.49726  Biso   1.000  S
  S4       1.0000 0.46237  0.70628  0.50274  Biso   1.000  S
  O1       1.0000 0.24446  0.97822  0.04650  Biso   1.000  O
  O2       1.0000 0.25554  0.47822  0.95350  Biso   1.000  O
  O3       1.0000 0.75554  0.02178  0.95350  Biso   1.000  O
  O4       1.0000 0.74446  0.52178  0.04650  Biso   1.000  O
  O5       1.0000 0.37254  0.10180  0.16677  Biso   1.000  O
  O6       1.0000 0.12746  0.60180  0.83323  Biso   1.000  O
  O7       1.0000 0.62746  0.89820  0.83323  Biso   1.000  O
  O8       1.0000 0.87254  0.39820  0.16677  Biso   1.000  O
  O9       1.0000 0.28600  0.01748  0.28717  Biso   1.000  O
  O10      1.0000 0.21400  0.51748  0.71283  Biso   1.000  O
  O11      1.0000 0.71400  0.98252  0.71283  Biso   1.000  O
  O12      1.0000 0.78600  0.48252  0.28717  Biso   1.000  O
  O13      1.0000 0.15472  0.89910  0.16496  Biso   1.000  O
  O14      1.0000 0.34528  0.39910  0.83504  Biso   1.000  O
  O15      1.0000 0.84528  0.10090  0.83504  Biso   1.000  O
  O16      1.0000 0.65472  0.60090  0.16496  Biso   1.000  O
  N1       1.0000 0.19190  0.94990  0.73960  Biso   1.000  N
  N2       1.0000 0.30810  0.44990  0.26040  Biso   1.000  N
  N3       1.0000 0.80810  0.05010  0.26040  Biso   1.000  N
  N4       1.0000 0.69190  0.55010  0.73960  Biso   1.000  N
  N5       1.0000 0.65000  0.34540  0.14790  Biso   1.000  N
  N6       1.0000 0.85000  0.84540  0.85210  Biso   1.000  N
  N7       1.0000 0.35000  0.65460  0.85210  Biso   1.000  N
  N8       1.0000 0.15000  0.15460  0.14790  Biso   1.000  N
  N9       1.0000 0.37180  0.98770  0.59570  Biso   1.000  N
  N10      1.0000 0.12820  0.48770  0.40430  Biso   1.000  N
  N11      1.0000 0.62820  0.01230  0.40430  Biso   1.000  N
  N12      1.0000 0.87180  0.51230  0.59570  Biso   1.000  N
  N13      1.0000 0.87970  0.65320  0.18800  Biso   1.000  N
  N14      1.0000 0.62030  0.15320  0.81200  Biso   1.000  N
  N15      1.0000 0.12030  0.34680  0.81200  Biso   1.000  N
  N16      1.0000 0.37970  0.84680  0.18800  Biso   1.000  N
  C1       1.0000 0.29730  0.01650  0.99820  Biso   1.000  C
  C2       1.0000 0.20270  0.51650  0.00180  Biso   1.000  C
  C3       1.0000 0.70270  0.98350  0.00180  Biso   1.000  C
  C4       1.0000 0.79730  0.48350  0.99820  Biso   1.000  C
  C5       1.0000 0.26450  0.99250  0.90790  Biso   1.000  C
  C6       1.0000 0.23550  0.49250  0.09210  Biso   1.000  C
  C7       1.0000 0.73550  0.00750  0.09210  Biso   1.000  C
  C8       1.0000 0.76450  0.50750  0.90790  Biso   1.000  C
  C9       1.0000 0.20130  0.90270  0.88320  Biso   1.000  C
  C10      1.0000 0.29870  0.40270  0.11680  Biso   1.000  C
  C11      1.0000 0.79870  0.09730  0.11680  Biso   1.000  C
  C12      1.0000 0.70130  0.59730  0.88320  Biso   1.000  C
  H1       1.0000 0.18170  0.85360  0.92350  Biso   1.000  H
  H2       1.0000 0.31830  0.35360  0.07650  Biso   1.000  H
  H3       1.0000 0.81830  0.14640  0.07650  Biso   1.000  H
  H4       1.0000 0.68170  0.64640  0.92350  Biso   1.000  H
  C13      1.0000 0.16800  0.88540  0.80150  Biso   1.000  C
  C14      1.0000 0.33200  0.38540  0.19850  Biso   1.000  C
  C15      1.0000 0.83200  0.11460  0.19850  Biso   1.000  C
  C16      1.0000 0.66800  0.61460  0.80150  Biso   1.000  C
  H5       1.0000 0.12480  0.82360  0.78670  Biso   1.000  H
  H6       1.0000 0.37520  0.32360  0.21330  Biso   1.000  H
  H7       1.0000 0.87520  0.17640  0.21330  Biso   1.000  H
  H8       1.0000 0.62480  0.67640  0.78670  Biso   1.000  H
  C17      1.0000 0.25230  0.03460  0.76360  Biso   1.000  C
  C18      1.0000 0.24770  0.53460  0.23640  Biso   1.000  C
  C19      1.0000 0.74770  0.96540  0.23640  Biso   1.000  C
  C20      1.0000 0.75230  0.46540  0.76360  Biso   1.000  C
  H9       1.0000 0.27110  0.08150  0.72170  Biso   1.000  H
  H10      1.0000 0.22890  0.58150  0.27830  Biso   1.000  H
  H11      1.0000 0.72890  0.91850  0.27830  Biso   1.000  H
  H12      1.0000 0.77110  0.41850  0.72170  Biso   1.000  H
  C21      1.0000 0.29010  0.06010  0.84490  Biso   1.000  C
  C22      1.0000 0.20990  0.56010  0.15510  Biso   1.000  C
  C23      1.0000 0.70990  0.93990  0.15510  Biso   1.000  C
  C24      1.0000 0.79010  0.43990  0.84490  Biso   1.000  C
  H13      1.0000 0.33300  0.12270  0.85780  Biso   1.000  H
  H14      1.0000 0.16700  0.62270  0.14220  Biso   1.000  H
  H15      1.0000 0.66700  0.87730  0.14220  Biso   1.000  H
  H16      1.0000 0.83300  0.37730  0.85780  Biso   1.000  H
  C25      1.0000 0.37910  0.08090  0.02280  Biso   1.000  C
  C26      1.0000 0.12090  0.58090  0.97720  Biso   1.000  C
  C27      1.0000 0.62090  0.91910  0.97720  Biso   1.000  C
  C28      1.0000 0.87910  0.41910  0.02280  Biso   1.000  C
  H17      1.0000 0.41600  0.09840  0.98210  Biso   1.000  H
  H18      1.0000 0.08400  0.59840  0.01790  Biso   1.000  H
  H19      1.0000 0.58400  0.90160  0.01790  Biso   1.000  H
  H20      1.0000 0.91600  0.40160  0.98210  Biso   1.000  H
  C29      1.0000 0.41010  0.12120  0.10380  Biso   1.000  C
  C30      1.0000 0.08990  0.62120  0.89620  Biso   1.000  C
  C31      1.0000 0.58990  0.87880  0.89620  Biso   1.000  C
  C32      1.0000 0.91010  0.37880  0.10380  Biso   1.000  C
  C33      1.0000 0.49540  0.19750  0.11930  Biso   1.000  C
  C34      1.0000 0.00460  0.69750  0.88070  Biso   1.000  C
  C35      1.0000 0.50460  0.80250  0.88070  Biso   1.000  C
  C36      1.0000 0.99540  0.30250  0.11930  Biso   1.000  C
  C37      1.0000 0.51120  0.27880  0.05980  Biso   1.000  C
  C38      1.0000 0.98880  0.77880  0.94020  Biso   1.000  C
  C39      1.0000 0.48880  0.72120  0.94020  Biso   1.000  C
  C40      1.0000 0.01120  0.22120  0.05980  Biso   1.000  C
  H21      1.0000 0.47000  0.28440  0.00800  Biso   1.000  H
  H22      1.0000 0.03000  0.78440  0.99200  Biso   1.000  H
  H23      1.0000 0.53000  0.71560  0.99200  Biso   1.000  H
  H24      1.0000 0.97000  0.21560  0.00800  Biso   1.000  H
  C41      1.0000 0.58880  0.35130  0.07830  Biso   1.000  C
  C42      1.0000 0.91120  0.85130  0.92170  Biso   1.000  C
  C43      1.0000 0.41120  0.64870  0.92170  Biso   1.000  C
  C44      1.0000 0.08880  0.14870  0.07830  Biso   1.000  C
  H25      1.0000 0.59810  0.40830  0.03840  Biso   1.000  H
  H26      1.0000 0.90190  0.90830  0.96160  Biso   1.000  H
  H27      1.0000 0.40190  0.59170  0.96160  Biso   1.000  H
  H28      1.0000 0.09810  0.09170  0.03840  Biso   1.000  H
  C45      1.0000 0.63440  0.26730  0.20470  Biso   1.000  C
  C46      1.0000 0.86560  0.76730  0.79530  Biso   1.000  C
  C47      1.0000 0.36560  0.73270  0.79530  Biso   1.000  C
  C48      1.0000 0.13440  0.23270  0.20470  Biso   1.000  C
  H29      1.0000 0.67760  0.26280  0.25550  Biso   1.000  H
  H30      1.0000 0.82240  0.76280  0.74450  Biso   1.000  H
  H31      1.0000 0.32240  0.73720  0.74450  Biso   1.000  H
  H32      1.0000 0.17760  0.23720  0.25550  Biso   1.000  H
  C49      1.0000 0.55820  0.19310  0.19320  Biso   1.000  C
  C50      1.0000 0.94180  0.69310  0.80680  Biso   1.000  C
  C51      1.0000 0.44180  0.80690  0.80680  Biso   1.000  C
  C52      1.0000 0.05820  0.30690  0.19320  Biso   1.000  C
  H33      1.0000 0.54930  0.13980  0.23540  Biso   1.000  H
  H34      1.0000 0.95070  0.63980  0.76460  Biso   1.000  H
  H35      1.0000 0.45070  0.86020  0.76460  Biso   1.000  H
  H36      1.0000 0.04930  0.36020  0.23540  Biso   1.000  H
  C53      1.0000 0.24510  0.95900  0.33680  Biso   1.000  C
  C54      1.0000 0.25490  0.45900  0.66320  Biso   1.000  C
  C55      1.0000 0.75490  0.04100  0.66320  Biso   1.000  C
  C56      1.0000 0.74510  0.54100  0.33680  Biso   1.000  C
  C57      1.0000 0.28650  0.96930  0.42710  Biso   1.000  C
  C58      1.0000 0.21350  0.46930  0.57290  Biso   1.000  C
  C59      1.0000 0.71350  0.03070  0.57290  Biso   1.000  C
  C60      1.0000 0.78650  0.53070  0.42710  Biso   1.000  C
  C61      1.0000 0.36070  0.04370  0.45230  Biso   1.000  C
  C62      1.0000 0.13930  0.54370  0.54770  Biso   1.000  C
  C63      1.0000 0.63930  0.95630  0.54770  Biso   1.000  C
  C64      1.0000 0.86070  0.45630  0.45230  Biso   1.000  C
  H37      1.0000 0.38400  0.09030  0.41260  Biso   1.000  H
  H38      1.0000 0.11600  0.59030  0.58740  Biso   1.000  H
  H39      1.0000 0.61600  0.90970  0.58740  Biso   1.000  H
  H40      1.0000 0.88400  0.40970  0.41260  Biso   1.000  H
  C65      1.0000 0.40096  0.05040  0.53518  Biso   1.000  C
  C66      1.0000 0.09904  0.55040  0.46482  Biso   1.000  C
  C67      1.0000 0.59904  0.94960  0.46482  Biso   1.000  C
  C68      1.0000 0.90096  0.44960  0.53518  Biso   1.000  C
  H41      1.0000 0.45210  0.10200  0.55060  Biso   1.000  H
  H42      1.0000 0.04790  0.60200  0.44940  Biso   1.000  H
  H43      1.0000 0.54790  0.89800  0.44940  Biso   1.000  H
  H44      1.0000 0.95210  0.39800  0.55060  Biso   1.000  H
  O17      1.0000 0.04468  0.83150  0.47410  Biso   1.000  O
  O18      1.0000 0.45532  0.33150  0.52590  Biso   1.000  O
  O19      1.0000 0.95532  0.16850  0.52590  Biso   1.000  O
  O20      1.0000 0.54468  0.66850  0.47410  Biso   1.000  O
  C69      1.0000 0.95329  0.87840  0.59249  Biso   1.000  C
  C70      1.0000 0.54671  0.37840  0.40751  Biso   1.000  C
  C71      1.0000 0.04671  0.12160  0.40751  Biso   1.000  C
  C72      1.0000 0.45329  0.62160  0.59249  Biso   1.000  C
  H45      1.0000 0.00810  0.86430  0.63560  Biso   1.000  H
  H46      1.0000 0.49190  0.36430  0.36440  Biso   1.000  H
  H47      1.0000 0.99190  0.13570  0.36440  Biso   1.000  H
  H48      1.0000 0.50810  0.63570  0.63560  Biso   1.000  H
  H49      1.0000 0.89670  0.85600  0.61330  Biso   1.000  H
  H50      1.0000 0.60330  0.35600  0.38670  Biso   1.000  H
  H51      1.0000 0.10330  0.14400  0.38670  Biso   1.000  H
  H52      1.0000 0.39670  0.64400  0.61330  Biso   1.000  H
  H53      1.0000 0.95010  0.96130  0.57780  Biso   1.000  H
  H54      1.0000 0.54990  0.46130  0.42220  Biso   1.000  H
  H55      1.0000 0.04990  0.03870  0.42220  Biso   1.000  H
  H56      1.0000 0.45010  0.53870  0.57780  Biso   1.000  H
  C73      1.0000 0.86548  0.85210  0.43309  Biso   1.000  C
  C74      1.0000 0.63452  0.35210  0.56691  Biso   1.000  C
  C75      1.0000 0.13452  0.14790  0.56691  Biso   1.000  C
  C76      1.0000 0.36548  0.64790  0.43309  Biso   1.000  C
  H57      1.0000 0.87190  0.93690  0.43020  Biso   1.000  H
  H58      1.0000 0.62810  0.43690  0.56980  Biso   1.000  H
  H59      1.0000 0.12810  0.06310  0.56980  Biso   1.000  H
  H60      1.0000 0.37190  0.56310  0.43020  Biso   1.000  H
  H61      1.0000 0.80770  0.83300  0.45290  Biso   1.000  H
  H62      1.0000 0.69230  0.33300  0.54710  Biso   1.000  H
  H63      1.0000 0.19230  0.16700  0.54710  Biso   1.000  H
  H64      1.0000 0.30770  0.66700  0.45290  Biso   1.000  H
  H65      1.0000 0.86350  0.81850  0.37780  Biso   1.000  H
  H66      1.0000 0.63650  0.31850  0.62220  Biso   1.000  H
  H67      1.0000 0.13650  0.18150  0.62220  Biso   1.000  H
  H68      1.0000 0.36350  0.68150  0.37780  Biso   1.000  H
  C77      1.0000 0.30150  0.91590  0.57110  Biso   1.000  C
  C78      1.0000 0.19850  0.41590  0.42890  Biso   1.000  C
  C79      1.0000 0.69850  0.08410  0.42890  Biso   1.000  C
  C80      1.0000 0.80150  0.58410  0.57110  Biso   1.000  C
  H69      1.0000 0.27970  0.87020  0.61210  Biso   1.000  H
  H70      1.0000 0.22030  0.37020  0.38790  Biso   1.000  H
  H71      1.0000 0.72030  0.12980  0.38790  Biso   1.000  H
  H72      1.0000 0.77970  0.62980  0.61210  Biso   1.000  H
  C81      1.0000 0.25710  0.90280  0.48920  Biso   1.000  C
  C82      1.0000 0.24290  0.40280  0.51080  Biso   1.000  C
  C83      1.0000 0.74290  0.09720  0.51080  Biso   1.000  C
  C84      1.0000 0.75710  0.59720  0.48920  Biso   1.000  C
  H73      1.0000 0.20710  0.84910  0.47550  Biso   1.000  H
  H74      1.0000 0.29290  0.34910  0.52450  Biso   1.000  H
  H75      1.0000 0.79290  0.15090  0.52450  Biso   1.000  H
  H76      1.0000 0.70710  0.65090  0.47550  Biso   1.000  H
  C85      1.0000 0.16780  0.88840  0.31240  Biso   1.000  C
  C86      1.0000 0.33220  0.38840  0.68760  Biso   1.000  C
  C87      1.0000 0.83220  0.11160  0.68760  Biso   1.000  C
  C88      1.0000 0.66780  0.61160  0.31240  Biso   1.000  C
  H77      1.0000 0.14080  0.85280  0.35480  Biso   1.000  H
  H78      1.0000 0.35920  0.35280  0.64520  Biso   1.000  H
  H79      1.0000 0.85920  0.14720  0.64520  Biso   1.000  H
  H80      1.0000 0.64080  0.64720  0.35480  Biso   1.000  H
  C89      1.0000 0.12640  0.86560  0.22980  Biso   1.000  C
  C90      1.0000 0.37360  0.36560  0.77020  Biso   1.000  C
  C91      1.0000 0.87360  0.13440  0.77020  Biso   1.000  C
  C92      1.0000 0.62640  0.63440  0.22980  Biso   1.000  C
  C93      1.0000 0.03970  0.79230  0.21570  Biso   1.000  C
  C94      1.0000 0.46030  0.29230  0.78430  Biso   1.000  C
  C95      1.0000 0.96030  0.20770  0.78430  Biso   1.000  C
  C96      1.0000 0.53970  0.70770  0.21570  Biso   1.000  C
  C97      1.0000 0.03080  0.69730  0.26650  Biso   1.000  C
  C98      1.0000 0.46920  0.19730  0.73350  Biso   1.000  C
  C99      1.0000 0.96920  0.30270  0.73350  Biso   1.000  C
  C100     1.0000 0.53080  0.80270  0.26650  Biso   1.000  C
  H81      1.0000 0.07900  0.67840  0.31160  Biso   1.000  H
  H82      1.0000 0.42100  0.17840  0.68840  Biso   1.000  H
  H83      1.0000 0.92100  0.32160  0.68840  Biso   1.000  H
  H84      1.0000 0.57900  0.82160  0.31160  Biso   1.000  H
  C101     1.0000 0.95010  0.63060  0.25000  Biso   1.000  C
  C102     1.0000 0.54990  0.13060  0.75000  Biso   1.000  C
  C103     1.0000 0.04990  0.36940  0.75000  Biso   1.000  C
  C104     1.0000 0.45010  0.86940  0.25000  Biso   1.000  C
  H85      1.0000 0.94470  0.56540  0.28460  Biso   1.000  H
  H86      1.0000 0.55530  0.06540  0.71540  Biso   1.000  H
  H87      1.0000 0.05530  0.43460  0.71540  Biso   1.000  H
  H88      1.0000 0.44470  0.93460  0.28460  Biso   1.000  H
  C105     1.0000 0.88880  0.74380  0.13940  Biso   1.000  C
  C106     1.0000 0.61120  0.24380  0.86060  Biso   1.000  C
  C107     1.0000 0.11120  0.25620  0.86060  Biso   1.000  C
  C108     1.0000 0.38880  0.75620  0.13940  Biso   1.000  C
  H89      1.0000 0.83940  0.76010  0.09460  Biso   1.000  H
  H90      1.0000 0.66060  0.26010  0.90540  Biso   1.000  H
  H91      1.0000 0.16060  0.23990  0.90540  Biso   1.000  H
  H92      1.0000 0.33940  0.73990  0.09460  Biso   1.000  H
  C109     1.0000 0.96620  0.81570  0.15050  Biso   1.000  C
  C110     1.0000 0.53380  0.31570  0.84950  Biso   1.000  C
  C111     1.0000 0.03380  0.18430  0.84950  Biso   1.000  C
  C112     1.0000 0.46620  0.68430  0.15050  Biso   1.000  C
  H93      1.0000 0.96930  0.87980  0.11440  Biso   1.000  H
  H94      1.0000 0.53070  0.37980  0.88560  Biso   1.000  H
  H95      1.0000 0.03070  0.12020  0.88560  Biso   1.000  H
  H96      1.0000 0.46930  0.62020  0.11440  Biso   1.000  H
