data_image0
_cell_length_a       7.639
_cell_length_b       8.088
_cell_length_c       8.169
_cell_angle_alpha    67.86
_cell_angle_beta     71.56
_cell_angle_gamma    84.827

_symmetry_space_group_name_H-M    "P 1"
_symmetry_int_tables_number       1

loop_
  _symmetry_equiv_pos_as_xyz
  'x, y, z'

loop_
  _atom_site_label
  _atom_site_occupancy
  _atom_site_fract_x
  _atom_site_fract_y
  _atom_site_fract_z
  _atom_site_thermal_displace_type
  _atom_site_B_iso_or_equiv
  _atom_site_type_symbol
  Cu1      1.0000 0.69779  0.64197  0.26151  Biso   1.000  Cu
  Cu2      1.0000 0.30221  0.35803  0.73849  Biso   1.000  Cu
  N1       1.0000 0.53270  0.42230  0.35520  Biso   1.000  N
  N2       1.0000 0.46730  0.57770  0.64480  Biso   1.000  N
  N3       1.0000 0.40100  0.31680  0.50040  Biso   1.000  N
  N4       1.0000 0.59900  0.68320  0.49960  Biso   1.000  N
  N5       1.0000 0.35710  0.18630  0.45810  Biso   1.000  N
  N6       1.0000 0.64290  0.81370  0.54190  Biso   1.000  N
  N7       1.0000 0.46000  0.20540  0.28530  Biso   1.000  N
  N8       1.0000 0.54000  0.79460  0.71470  Biso   1.000  N
  C1       1.0000 0.70890  0.44060  0.04570  Biso   1.000  C
  C2       1.0000 0.29110  0.55940  0.95430  Biso   1.000  C
  C3       1.0000 0.56540  0.35040  0.22720  Biso   1.000  C
  C4       1.0000 0.43460  0.64960  0.77280  Biso   1.000  C
  O1       1.0000 0.74530  0.38120  0.92020  Biso   1.000  O
  O2       1.0000 0.25470  0.61880  0.07980  Biso   1.000  O
  O3       1.0000 0.78480  0.57780  0.03830  Biso   1.000  O
  O4       1.0000 0.21520  0.42220  0.96170  Biso   1.000  O
  N9       1.0000 0.87390  0.85810  0.11240  Biso   1.000  N
  N10      1.0000 0.12610  0.14190  0.88760  Biso   1.000  N
  C5       1.0000 0.98060  0.91900  0.18080  Biso   1.000  C
  C6       1.0000 0.01940  0.08100  0.81920  Biso   1.000  C
  H1       1.0000 0.96990  0.86400  0.30900  Biso   1.000  H
  H2       1.0000 0.03010  0.13600  0.69100  Biso   1.000  H
  C7       1.0000 0.89380  0.93970  0.93040  Biso   1.000  C
  C8       1.0000 0.10620  0.06030  0.06960  Biso   1.000  C
  H3       1.0000 0.82030  0.89980  0.87710  Biso   1.000  H
  H4       1.0000 0.17970  0.10020  0.12290  Biso   1.000  H
  O5       1.0000 0.46460  0.83110  0.14750  Biso   1.000  O
  O6       1.0000 0.53540  0.16890  0.85250  Biso   1.000  O
  H5       1.0000 0.39700  0.77430  0.12180  Biso   1.000  H
  H6       1.0000 0.60300  0.22570  0.87820  Biso   1.000  H
  H7       1.0000 0.40240  0.85220  0.24220  Biso   1.000  H
  H8       1.0000 0.59760  0.14780  0.75780  Biso   1.000  H
  H9       1.0000 0.49440  0.92570  0.05340  Biso   1.000  H
  H10      1.0000 0.50560  0.07430  0.94660  Biso   1.000  H
  O7       1.0000 0.94140  0.47510  0.36590  Biso   1.000  O
  O8       1.0000 0.05860  0.52490  0.63410  Biso   1.000  O
  H11      1.0000 0.03390  0.50350  0.27050  Biso   1.000  H
  H12      1.0000 0.96610  0.49650  0.72950  Biso   1.000  H
  H13      1.0000 0.98480  0.50070  0.43630  Biso   1.000  H
  H14      1.0000 0.01520  0.49930  0.56370  Biso   1.000  H
  H15      1.0000 0.92300  0.36810  0.38330  Biso   1.000  H
  H16      1.0000 0.07700  0.63190  0.61670  Biso   1.000  H
  O9       1.0000 0.79910  0.13240  0.54020  Biso   1.000  O
  O10      1.0000 0.20090  0.86760  0.45980  Biso   1.000  O
  H17      1.0000 0.77370  0.05740  0.50200  Biso   1.000  H
  H18      1.0000 0.22630  0.94260  0.49800  Biso   1.000  H
  H19      1.0000 0.69570  0.13020  0.61800  Biso   1.000  H
  H20      1.0000 0.30430  0.86980  0.38200  Biso   1.000  H
  H21      1.0000 0.82860  0.22980  0.44960  Biso   1.000  H
  H22      1.0000 0.17140  0.77020  0.55040  Biso   1.000  H
