data_image0
_cell_length_a       9.272
_cell_length_b       6.864
_cell_length_c       14.484
_cell_angle_alpha    90
_cell_angle_beta     94.052
_cell_angle_gamma    90

_symmetry_space_group_name_H-M    "P 1"
_symmetry_int_tables_number       1

loop_
  _symmetry_equiv_pos_as_xyz
  'x, y, z'

loop_
  _atom_site_label
  _atom_site_occupancy
  _atom_site_fract_x
  _atom_site_fract_y
  _atom_site_fract_z
  _atom_site_thermal_displace_type
  _atom_site_B_iso_or_equiv
  _atom_site_type_symbol
  Cu1      1.0000 0.47213  0.51187  0.35917  Biso   1.000  Cu
  Cu2      1.0000 0.02787  0.01187  0.14083  Biso   1.000  Cu
  Cu3      1.0000 0.52787  0.48813  0.64083  Biso   1.000  Cu
  Cu4      1.0000 0.97213  0.98813  0.85917  Biso   1.000  Cu
  N1       1.0000 0.32196  0.04470  0.50570  Biso   1.000  N
  N2       1.0000 0.17804  0.54470  0.99430  Biso   1.000  N
  N3       1.0000 0.67804  0.95530  0.49430  Biso   1.000  N
  N4       1.0000 0.82196  0.45530  0.00570  Biso   1.000  N
  N5       1.0000 0.34046  0.14110  0.42668  Biso   1.000  N
  N6       1.0000 0.15954  0.64110  0.07332  Biso   1.000  N
  N7       1.0000 0.65954  0.85890  0.57332  Biso   1.000  N
  N8       1.0000 0.84046  0.35890  0.92668  Biso   1.000  N
  N9       1.0000 0.41652  0.30200  0.44628  Biso   1.000  N
  N10      1.0000 0.08348  0.80200  0.05372  Biso   1.000  N
  N11      1.0000 0.58348  0.69800  0.55372  Biso   1.000  N
  N12      1.0000 0.91652  0.19800  0.94628  Biso   1.000  N
  N13      1.0000 0.44841  0.31200  0.53751  Biso   1.000  N
  N14      1.0000 0.05159  0.81200  0.96249  Biso   1.000  N
  N15      1.0000 0.55159  0.68800  0.46249  Biso   1.000  N
  N16      1.0000 0.94841  0.18800  0.03751  Biso   1.000  N
  C1       1.0000 0.38960  0.15320  0.57189  Biso   1.000  C
  C2       1.0000 0.11040  0.65320  0.92811  Biso   1.000  C
  C3       1.0000 0.61040  0.84680  0.42811  Biso   1.000  C
  C4       1.0000 0.88960  0.34680  0.07189  Biso   1.000  C
  C5       1.0000 0.40203  0.12550  0.67466  Biso   1.000  C
  C6       1.0000 0.09797  0.62550  0.82534  Biso   1.000  C
  C7       1.0000 0.59797  0.87450  0.32534  Biso   1.000  C
  C8       1.0000 0.90203  0.37450  0.17466  Biso   1.000  C
  O1       1.0000 0.46451  0.26660  0.71847  Biso   1.000  O
  O2       1.0000 0.03549  0.76660  0.78153  Biso   1.000  O
  O3       1.0000 0.53549  0.73340  0.28153  Biso   1.000  O
  O4       1.0000 0.96451  0.23340  0.21847  Biso   1.000  O
  O5       1.0000 0.35103  0.97864  0.70976  Biso   1.000  O
  O6       1.0000 0.14897  0.47864  0.79024  Biso   1.000  O
  O7       1.0000 0.64897  0.02136  0.29024  Biso   1.000  O
  O8       1.0000 0.85103  0.52136  0.20976  Biso   1.000  O
  N17      1.0000 0.24066  0.66230  0.35261  Biso   1.000  N
  N18      1.0000 0.25934  0.16230  0.14739  Biso   1.000  N
  N19      1.0000 0.75934  0.33770  0.64739  Biso   1.000  N
  N20      1.0000 0.74066  0.83770  0.85261  Biso   1.000  N
  N21      1.0000 0.08098  0.86710  0.26104  Biso   1.000  N
  N22      1.0000 0.41902  0.36710  0.23896  Biso   1.000  N
  N23      1.0000 0.91902  0.13290  0.73896  Biso   1.000  N
  N24      1.0000 0.58098  0.63290  0.76104  Biso   1.000  N
  C9       1.0000 0.20157  0.76090  0.27563  Biso   1.000  C
  C10      1.0000 0.29843  0.26090  0.22437  Biso   1.000  C
  C11      1.0000 0.79843  0.23910  0.72437  Biso   1.000  C
  C12      1.0000 0.70157  0.73910  0.77563  Biso   1.000  C
  H1       1.0000 0.26480  0.75540  0.22690  Biso   1.000  H
  H2       1.0000 0.23520  0.25540  0.27310  Biso   1.000  H
  H3       1.0000 0.73520  0.24460  0.77310  Biso   1.000  H
  H4       1.0000 0.76480  0.74460  0.72690  Biso   1.000  H
  C13      1.0000 0.99288  0.87760  0.33112  Biso   1.000  C
  C14      1.0000 0.50712  0.37760  0.16888  Biso   1.000  C
  C15      1.0000 0.00712  0.12240  0.66888  Biso   1.000  C
  C16      1.0000 0.49288  0.62240  0.83112  Biso   1.000  C
  H5       1.0000 0.90680  0.95280  0.32360  Biso   1.000  H
  H6       1.0000 0.59320  0.45280  0.17640  Biso   1.000  H
  H7       1.0000 0.09320  0.04720  0.67640  Biso   1.000  H
  H8       1.0000 0.40680  0.54720  0.82360  Biso   1.000  H
  C17      1.0000 0.02550  0.78150  0.41343  Biso   1.000  C
  C18      1.0000 0.47450  0.28150  0.08657  Biso   1.000  C
  C19      1.0000 0.97450  0.21850  0.58657  Biso   1.000  C
  C20      1.0000 0.52550  0.71850  0.91343  Biso   1.000  C
  H9       1.0000 0.96340  0.78880  0.46270  Biso   1.000  H
  H10      1.0000 0.53660  0.28880  0.03730  Biso   1.000  H
  H11      1.0000 0.03660  0.21120  0.53730  Biso   1.000  H
  H12      1.0000 0.46340  0.71120  0.96270  Biso   1.000  H
  C21      1.0000 0.15240  0.67340  0.42182  Biso   1.000  C
  C22      1.0000 0.34760  0.17340  0.07818  Biso   1.000  C
  C23      1.0000 0.84760  0.32660  0.57818  Biso   1.000  C
  C24      1.0000 0.65240  0.82660  0.92182  Biso   1.000  C
  H13      1.0000 0.17720  0.60590  0.47790  Biso   1.000  H
  H14      1.0000 0.32280  0.10590  0.02210  Biso   1.000  H
  H15      1.0000 0.82280  0.39410  0.52210  Biso   1.000  H
  H16      1.0000 0.67720  0.89410  0.97790  Biso   1.000  H
  O9       1.0000 0.71597  0.38930  0.36637  Biso   1.000  O
  O10      1.0000 0.78403  0.88930  0.13363  Biso   1.000  O
  O11      1.0000 0.28403  0.61070  0.63363  Biso   1.000  O
  O12      1.0000 0.21597  0.11070  0.86637  Biso   1.000  O
  H17      1.0000 0.76380  0.42920  0.32300  Biso   1.000  H
  H18      1.0000 0.73620  0.92920  0.17700  Biso   1.000  H
  H19      1.0000 0.23620  0.57080  0.67700  Biso   1.000  H
  H20      1.0000 0.26380  0.07080  0.82300  Biso   1.000  H
  H21      1.0000 0.70490  0.27400  0.34780  Biso   1.000  H
  H22      1.0000 0.79510  0.77400  0.15220  Biso   1.000  H
  H23      1.0000 0.29510  0.72600  0.65220  Biso   1.000  H
  H24      1.0000 0.20490  0.22600  0.84780  Biso   1.000  H
