data_image0
_cell_length_a       5.606
_cell_length_b       6.83
_cell_length_c       11.891
_cell_angle_alpha    90
_cell_angle_beta     99.379
_cell_angle_gamma    90

_symmetry_space_group_name_H-M    "P 1"
_symmetry_int_tables_number       1

loop_
  _symmetry_equiv_pos_as_xyz
  'x, y, z'

loop_
  _atom_site_label
  _atom_site_occupancy
  _atom_site_fract_x
  _atom_site_fract_y
  _atom_site_fract_z
  _atom_site_thermal_displace_type
  _atom_site_B_iso_or_equiv
  _atom_site_type_symbol
  Cu1      1.0000 0.61701  0.25000  0.75913  Biso   1.000  Cu
  Cu2      1.0000 0.38299  0.75000  0.24087  Biso   1.000  Cu
  N1       1.0000 0.24560  0.25000  0.63210  Biso   1.000  N
  N2       1.0000 0.75440  0.75000  0.36790  Biso   1.000  N
  N3       1.0000 0.09700  0.25000  0.52990  Biso   1.000  N
  N4       1.0000 0.90300  0.75000  0.47010  Biso   1.000  N
  N5       1.0000 0.86970  0.25000  0.54630  Biso   1.000  N
  N6       1.0000 0.13030  0.75000  0.45370  Biso   1.000  N
  N7       1.0000 0.86650  0.25000  0.65920  Biso   1.000  N
  N8       1.0000 0.13350  0.75000  0.34080  Biso   1.000  N
  C1       1.0000 0.17200  0.25000  0.83560  Biso   1.000  C
  C2       1.0000 0.82800  0.75000  0.16440  Biso   1.000  C
  C3       1.0000 0.09650  0.25000  0.70900  Biso   1.000  C
  C4       1.0000 0.90350  0.75000  0.29100  Biso   1.000  C
  O1       1.0000 0.39650  0.25000  0.87370  Biso   1.000  O
  O2       1.0000 0.60350  0.75000  0.12630  Biso   1.000  O
  O3       1.0000 0.00520  0.25000  0.89420  Biso   1.000  O
  O4       1.0000 0.99480  0.75000  0.10580  Biso   1.000  O
  N9       1.0000 0.61970  0.54780  0.76300  Biso   1.000  N
  N10      1.0000 0.38030  0.04780  0.23700  Biso   1.000  N
  N11      1.0000 0.38030  0.45220  0.23700  Biso   1.000  N
  N12      1.0000 0.61970  0.95220  0.76300  Biso   1.000  N
  C5       1.0000 0.56150  0.64840  0.66700  Biso   1.000  C
  C6       1.0000 0.43850  0.14840  0.33300  Biso   1.000  C
  C7       1.0000 0.43850  0.35160  0.33300  Biso   1.000  C
  C8       1.0000 0.56150  0.85160  0.66700  Biso   1.000  C
  H1       1.0000 0.51910  0.58010  0.59700  Biso   1.000  H
  H2       1.0000 0.48090  0.08010  0.40300  Biso   1.000  H
  H3       1.0000 0.48090  0.41990  0.40300  Biso   1.000  H
  H4       1.0000 0.51910  0.91990  0.59700  Biso   1.000  H
  C9       1.0000 0.67740  0.64820  0.85970  Biso   1.000  C
  C10      1.0000 0.32260  0.14820  0.14030  Biso   1.000  C
  C11      1.0000 0.32260  0.35180  0.14030  Biso   1.000  C
  C12      1.0000 0.67740  0.85180  0.85970  Biso   1.000  C
  H5       1.0000 0.71920  0.57960  0.92970  Biso   1.000  H
  H6       1.0000 0.28080  0.07960  0.07030  Biso   1.000  H
  H7       1.0000 0.28080  0.42040  0.07030  Biso   1.000  H
  H8       1.0000 0.71920  0.92040  0.92970  Biso   1.000  H
