data_image0
_cell_length_a       7.5502
_cell_length_b       12.884
_cell_length_c       10.036
_cell_angle_alpha    90
_cell_angle_beta     98.038
_cell_angle_gamma    90

_symmetry_space_group_name_H-M    "P 1"
_symmetry_int_tables_number       1

loop_
  _symmetry_equiv_pos_as_xyz
  'x, y, z'

loop_
  _atom_site_label
  _atom_site_occupancy
  _atom_site_fract_x
  _atom_site_fract_y
  _atom_site_fract_z
  _atom_site_thermal_displace_type
  _atom_site_B_iso_or_equiv
  _atom_site_type_symbol
  Cu1      1.0000 0.20176  0.55437  0.63487  Biso   1.000  Cu
  Cu2      1.0000 0.79824  0.05437  0.86513  Biso   1.000  Cu
  Cu3      1.0000 0.79824  0.44563  0.36513  Biso   1.000  Cu
  Cu4      1.0000 0.20176  0.94563  0.13487  Biso   1.000  Cu
  O1       1.0000 0.18756  0.67975  0.74700  Biso   1.000  O
  O2       1.0000 0.81244  0.17975  0.75300  Biso   1.000  O
  O3       1.0000 0.81244  0.32025  0.25300  Biso   1.000  O
  O4       1.0000 0.18756  0.82025  0.24700  Biso   1.000  O
  O5       1.0000 0.02060  0.81974  0.77350  Biso   1.000  O
  O6       1.0000 0.97940  0.31974  0.72650  Biso   1.000  O
  O7       1.0000 0.97940  0.18026  0.22650  Biso   1.000  O
  O8       1.0000 0.02060  0.68026  0.27350  Biso   1.000  O
  C1       1.0000 0.04880  0.73735  0.71880  Biso   1.000  C
  C2       1.0000 0.95120  0.23735  0.78120  Biso   1.000  C
  C3       1.0000 0.95120  0.26265  0.28120  Biso   1.000  C
  C4       1.0000 0.04880  0.76265  0.21880  Biso   1.000  C
  C5       1.0000 0.91550  0.69193  0.61010  Biso   1.000  C
  C6       1.0000 0.08450  0.19193  0.88990  Biso   1.000  C
  C7       1.0000 0.08450  0.30807  0.38990  Biso   1.000  C
  C8       1.0000 0.91550  0.80807  0.11010  Biso   1.000  C
  N1       1.0000 0.95540  0.60091  0.55948  Biso   1.000  N
  N2       1.0000 0.04460  0.10091  0.94052  Biso   1.000  N
  N3       1.0000 0.04460  0.39909  0.44052  Biso   1.000  N
  N4       1.0000 0.95540  0.89909  0.05948  Biso   1.000  N
  N5       1.0000 0.81370  0.57649  0.47009  Biso   1.000  N
  N6       1.0000 0.18630  0.07649  0.02991  Biso   1.000  N
  N7       1.0000 0.18630  0.42351  0.52991  Biso   1.000  N
  N8       1.0000 0.81370  0.92351  0.97009  Biso   1.000  N
  N9       1.0000 0.69230  0.65054  0.46841  Biso   1.000  N
  N10      1.0000 0.30770  0.15054  0.03159  Biso   1.000  N
  N11      1.0000 0.30770  0.34946  0.53159  Biso   1.000  N
  N12      1.0000 0.69230  0.84946  0.96841  Biso   1.000  N
  N13      1.0000 0.75360  0.72471  0.55710  Biso   1.000  N
  N14      1.0000 0.24640  0.22471  0.94290  Biso   1.000  N
  N15      1.0000 0.24640  0.27529  0.44290  Biso   1.000  N
  N16      1.0000 0.75360  0.77529  0.05710  Biso   1.000  N
  N17      1.0000 0.42610  0.51918  0.75291  Biso   1.000  N
  N18      1.0000 0.57390  0.01918  0.74709  Biso   1.000  N
  N19      1.0000 0.57390  0.48082  0.24709  Biso   1.000  N
  N20      1.0000 0.42610  0.98082  0.25291  Biso   1.000  N
  C9       1.0000 0.93090  0.46703  0.99270  Biso   1.000  C
  C10      1.0000 0.06910  0.96703  0.50730  Biso   1.000  C
  C11      1.0000 0.06910  0.53297  0.00730  Biso   1.000  C
  C12      1.0000 0.93090  0.03297  0.49270  Biso   1.000  C
  H1       1.0000 0.94650  0.40230  0.03810  Biso   1.000  H
  H2       1.0000 0.05350  0.90230  0.46190  Biso   1.000  H
  H3       1.0000 0.05350  0.59770  0.96190  Biso   1.000  H
  H4       1.0000 0.94650  0.09770  0.53810  Biso   1.000  H
  C13      1.0000 0.46200  0.42904  0.81810  Biso   1.000  C
  C14      1.0000 0.53800  0.92904  0.68190  Biso   1.000  C
  C15      1.0000 0.53800  0.57096  0.18190  Biso   1.000  C
  C16      1.0000 0.46200  0.07096  0.31810  Biso   1.000  C
  H5       1.0000 0.37350  0.37610  0.80950  Biso   1.000  H
  H6       1.0000 0.62650  0.87610  0.69050  Biso   1.000  H
  H7       1.0000 0.62650  0.62390  0.19050  Biso   1.000  H
  H8       1.0000 0.37350  0.12390  0.30950  Biso   1.000  H
  C17      1.0000 0.62450  0.41074  0.89780  Biso   1.000  C
  C18      1.0000 0.37550  0.91074  0.60220  Biso   1.000  C
  C19      1.0000 0.37550  0.58926  0.10220  Biso   1.000  C
  C20      1.0000 0.62450  0.08926  0.39780  Biso   1.000  C
  H9       1.0000 0.64580  0.34620  0.94290  Biso   1.000  H
  H10      1.0000 0.35420  0.84620  0.55710  Biso   1.000  H
  H11      1.0000 0.35420  0.65380  0.05710  Biso   1.000  H
  H12      1.0000 0.64580  0.15380  0.44290  Biso   1.000  H
  C21      1.0000 0.75690  0.48734  0.91165  Biso   1.000  C
  C22      1.0000 0.24310  0.98734  0.58835  Biso   1.000  C
  C23      1.0000 0.24310  0.51266  0.08835  Biso   1.000  C
  C24      1.0000 0.75690  0.01266  0.41165  Biso   1.000  C
  C25      1.0000 0.71500  0.58178  0.84660  Biso   1.000  C
  C26      1.0000 0.28500  0.08178  0.65340  Biso   1.000  C
  C27      1.0000 0.28500  0.41822  0.15340  Biso   1.000  C
  C28      1.0000 0.71500  0.91822  0.34660  Biso   1.000  C
  H13      1.0000 0.79950  0.63680  0.85550  Biso   1.000  H
  H14      1.0000 0.20050  0.13680  0.64450  Biso   1.000  H
  H15      1.0000 0.20050  0.36320  0.14450  Biso   1.000  H
  H16      1.0000 0.79950  0.86320  0.35550  Biso   1.000  H
  C29      1.0000 0.55080  0.59500  0.76950  Biso   1.000  C
  C30      1.0000 0.44920  0.09500  0.73050  Biso   1.000  C
  C31      1.0000 0.44920  0.40500  0.23050  Biso   1.000  C
  C32      1.0000 0.55080  0.90500  0.26950  Biso   1.000  C
  H17      1.0000 0.52420  0.65990  0.72640  Biso   1.000  H
  H18      1.0000 0.47580  0.15990  0.77360  Biso   1.000  H
  H19      1.0000 0.47580  0.34010  0.27360  Biso   1.000  H
  H20      1.0000 0.52420  0.84010  0.22640  Biso   1.000  H
  O9       1.0000 0.30892  0.64331  0.47462  Biso   1.000  O
  O10      1.0000 0.69108  0.14331  0.02538  Biso   1.000  O
  O11      1.0000 0.69108  0.35669  0.52538  Biso   1.000  O
  O12      1.0000 0.30892  0.85669  0.97462  Biso   1.000  O
  H21      1.0000 0.40450  0.64420  0.44500  Biso   1.000  H
  H22      1.0000 0.59550  0.14420  0.05500  Biso   1.000  H
  H23      1.0000 0.59550  0.35580  0.55500  Biso   1.000  H
  H24      1.0000 0.40450  0.85580  0.94500  Biso   1.000  H
  H25      1.0000 0.23630  0.66210  0.40540  Biso   1.000  H
  H26      1.0000 0.76370  0.16210  0.09460  Biso   1.000  H
  H27      1.0000 0.76370  0.33790  0.59460  Biso   1.000  H
  H28      1.0000 0.23630  0.83790  0.90540  Biso   1.000  H
