data_image0
_cell_length_a       7.633
_cell_length_b       12.718
_cell_length_c       10.105
_cell_angle_alpha    90
_cell_angle_beta     101.016
_cell_angle_gamma    90

_symmetry_space_group_name_H-M    "P 1"
_symmetry_int_tables_number       1

loop_
  _symmetry_equiv_pos_as_xyz
  'x, y, z'

loop_
  _atom_site_label
  _atom_site_occupancy
  _atom_site_fract_x
  _atom_site_fract_y
  _atom_site_fract_z
  _atom_site_thermal_displace_type
  _atom_site_B_iso_or_equiv
  _atom_site_type_symbol
  Cu1      1.0000 0.20952  0.55719  0.63544  Biso   1.000  Cu
  Cu2      1.0000 0.79048  0.05719  0.86456  Biso   1.000  Cu
  Cu3      1.0000 0.79048  0.44281  0.36456  Biso   1.000  Cu
  Cu4      1.0000 0.20952  0.94281  0.13544  Biso   1.000  Cu
  O1       1.0000 0.20390  0.68772  0.74220  Biso   1.000  O
  O2       1.0000 0.79610  0.18772  0.75780  Biso   1.000  O
  O3       1.0000 0.79610  0.31228  0.25780  Biso   1.000  O
  O4       1.0000 0.20390  0.81228  0.24220  Biso   1.000  O
  O5       1.0000 0.03370  0.82763  0.76840  Biso   1.000  O
  O6       1.0000 0.96630  0.32763  0.73160  Biso   1.000  O
  O7       1.0000 0.96630  0.17237  0.23160  Biso   1.000  O
  O8       1.0000 0.03370  0.67237  0.26840  Biso   1.000  O
  C1       1.0000 0.06100  0.74340  0.71520  Biso   1.000  C
  C2       1.0000 0.93900  0.24340  0.78480  Biso   1.000  C
  C3       1.0000 0.93900  0.25660  0.28480  Biso   1.000  C
  C4       1.0000 0.06100  0.75660  0.21520  Biso   1.000  C
  C5       1.0000 0.92140  0.69550  0.60690  Biso   1.000  C
  C6       1.0000 0.07860  0.19550  0.89310  Biso   1.000  C
  C7       1.0000 0.07860  0.30450  0.39310  Biso   1.000  C
  C8       1.0000 0.92140  0.80450  0.10690  Biso   1.000  C
  N1       1.0000 0.96120  0.60400  0.55570  Biso   1.000  N
  N2       1.0000 0.03880  0.10400  0.94430  Biso   1.000  N
  N3       1.0000 0.03880  0.39600  0.44430  Biso   1.000  N
  N4       1.0000 0.96120  0.89600  0.05570  Biso   1.000  N
  N5       1.0000 0.81420  0.57810  0.46570  Biso   1.000  N
  N6       1.0000 0.18580  0.07810  0.03430  Biso   1.000  N
  N7       1.0000 0.18580  0.42190  0.53430  Biso   1.000  N
  N8       1.0000 0.81420  0.92190  0.96570  Biso   1.000  N
  N9       1.0000 0.69140  0.65150  0.46430  Biso   1.000  N
  N10      1.0000 0.30860  0.15150  0.03570  Biso   1.000  N
  N11      1.0000 0.30860  0.34850  0.53570  Biso   1.000  N
  N12      1.0000 0.69140  0.84850  0.96430  Biso   1.000  N
  N13      1.0000 0.75590  0.72710  0.55480  Biso   1.000  N
  N14      1.0000 0.24410  0.22710  0.94520  Biso   1.000  N
  N15      1.0000 0.24410  0.27290  0.44520  Biso   1.000  N
  N16      1.0000 0.75590  0.77290  0.05480  Biso   1.000  N
  N17      1.0000 0.43930  0.52120  0.75780  Biso   1.000  N
  N18      1.0000 0.56070  0.02120  0.74220  Biso   1.000  N
  N19      1.0000 0.56070  0.47880  0.24220  Biso   1.000  N
  N20      1.0000 0.43930  0.97880  0.25780  Biso   1.000  N
  N21      1.0000 0.94150  0.46650  0.00440  Biso   1.000  N
  N22      1.0000 0.05850  0.96650  0.49560  Biso   1.000  N
  N23      1.0000 0.05850  0.53350  0.99560  Biso   1.000  N
  N24      1.0000 0.94150  0.03350  0.50440  Biso   1.000  N
  C9       1.0000 0.47470  0.43120  0.82740  Biso   1.000  C
  C10      1.0000 0.52530  0.93120  0.67260  Biso   1.000  C
  C11      1.0000 0.52530  0.56880  0.17260  Biso   1.000  C
  C12      1.0000 0.47470  0.06880  0.32740  Biso   1.000  C
  H1       1.0000 0.38450  0.37890  0.81950  Biso   1.000  H
  H2       1.0000 0.61550  0.87890  0.68050  Biso   1.000  H
  H3       1.0000 0.61550  0.62110  0.18050  Biso   1.000  H
  H4       1.0000 0.38450  0.12110  0.31950  Biso   1.000  H
  C13      1.0000 0.64010  0.41190  0.91140  Biso   1.000  C
  C14      1.0000 0.35990  0.91190  0.58860  Biso   1.000  C
  C15      1.0000 0.35990  0.58810  0.08860  Biso   1.000  C
  C16      1.0000 0.64010  0.08810  0.41140  Biso   1.000  C
  H5       1.0000 0.66160  0.34850  0.96140  Biso   1.000  H
  H6       1.0000 0.33840  0.84850  0.53860  Biso   1.000  H
  H7       1.0000 0.33840  0.65150  0.03860  Biso   1.000  H
  H8       1.0000 0.66160  0.15150  0.46140  Biso   1.000  H
  C17      1.0000 0.77180  0.48860  0.91940  Biso   1.000  C
  C18      1.0000 0.22820  0.98860  0.58060  Biso   1.000  C
  C19      1.0000 0.22820  0.51140  0.08060  Biso   1.000  C
  C20      1.0000 0.77180  0.01140  0.41940  Biso   1.000  C
  C21      1.0000 0.73330  0.58270  0.84860  Biso   1.000  C
  C22      1.0000 0.26670  0.08270  0.65140  Biso   1.000  C
  C23      1.0000 0.26670  0.41730  0.15140  Biso   1.000  C
  C24      1.0000 0.73330  0.91730  0.34860  Biso   1.000  C
  H9       1.0000 0.82060  0.63660  0.85460  Biso   1.000  H
  H10      1.0000 0.17940  0.13660  0.64540  Biso   1.000  H
  H11      1.0000 0.17940  0.36340  0.14540  Biso   1.000  H
  H12      1.0000 0.82060  0.86340  0.35460  Biso   1.000  H
  C25      1.0000 0.56680  0.59590  0.77010  Biso   1.000  C
  C26      1.0000 0.43320  0.09590  0.72990  Biso   1.000  C
  C27      1.0000 0.43320  0.40410  0.22990  Biso   1.000  C
  C28      1.0000 0.56680  0.90410  0.27010  Biso   1.000  C
  H13      1.0000 0.54050  0.66020  0.72250  Biso   1.000  H
  H14      1.0000 0.45950  0.16020  0.77750  Biso   1.000  H
  H15      1.0000 0.45950  0.33980  0.27750  Biso   1.000  H
  H16      1.0000 0.54050  0.83980  0.22250  Biso   1.000  H
  O9       1.0000 0.31800  0.63690  0.47520  Biso   1.000  O
  O10      1.0000 0.68200  0.13690  0.02480  Biso   1.000  O
  O11      1.0000 0.68200  0.36310  0.52480  Biso   1.000  O
  O12      1.0000 0.31800  0.86310  0.97520  Biso   1.000  O
  H17      1.0000 0.41370  0.63770  0.44560  Biso   1.000  H
  H18      1.0000 0.58630  0.13770  0.05440  Biso   1.000  H
  H19      1.0000 0.58630  0.36230  0.55440  Biso   1.000  H
  H20      1.0000 0.41370  0.86230  0.94560  Biso   1.000  H
  H21      1.0000 0.24540  0.65560  0.40600  Biso   1.000  H
  H22      1.0000 0.75460  0.15560  0.09400  Biso   1.000  H
  H23      1.0000 0.75460  0.34440  0.59400  Biso   1.000  H
  H24      1.0000 0.24540  0.84440  0.90600  Biso   1.000  H
