data_image0
_cell_length_a       5.246
_cell_length_b       10.709
_cell_length_c       13.134
_cell_angle_alpha    90
_cell_angle_beta     94.49
_cell_angle_gamma    90

_symmetry_space_group_name_H-M    "P 1"
_symmetry_int_tables_number       1

loop_
  _symmetry_equiv_pos_as_xyz
  'x, y, z'

loop_
  _atom_site_label
  _atom_site_occupancy
  _atom_site_fract_x
  _atom_site_fract_y
  _atom_site_fract_z
  _atom_site_thermal_displace_type
  _atom_site_B_iso_or_equiv
  _atom_site_type_symbol
  Cu1      1.0000 0.00000  0.00000  0.00000  Biso   1.000  Cu
  Cu2      1.0000 0.50000  0.50000  0.50000  Biso   1.000  Cu
  O1       1.0000 0.74010  0.98890  0.09630  Biso   1.000  O
  O2       1.0000 0.75990  0.48890  0.40370  Biso   1.000  O
  O3       1.0000 0.25990  0.01110  0.90370  Biso   1.000  O
  O4       1.0000 0.24010  0.51110  0.59630  Biso   1.000  O
  O5       1.0000 0.85760  0.82680  0.19580  Biso   1.000  O
  O6       1.0000 0.64240  0.32680  0.30420  Biso   1.000  O
  O7       1.0000 0.14240  0.17320  0.80420  Biso   1.000  O
  O8       1.0000 0.35760  0.67320  0.69580  Biso   1.000  O
  O9       1.0000 0.66610  0.88850  0.87450  Biso   1.000  O
  O10      1.0000 0.83390  0.38850  0.62550  Biso   1.000  O
  O11      1.0000 0.33390  0.11150  0.12550  Biso   1.000  O
  O12      1.0000 0.16610  0.61150  0.37450  Biso   1.000  O
  O13      1.0000 0.68300  0.81050  0.37400  Biso   1.000  O
  O14      1.0000 0.81700  0.31050  0.12600  Biso   1.000  O
  O15      1.0000 0.31700  0.18950  0.62600  Biso   1.000  O
  O16      1.0000 0.18300  0.68950  0.87400  Biso   1.000  O
  O17      1.0000 0.16120  0.84080  0.04270  Biso   1.000  O
  O18      1.0000 0.33880  0.34080  0.45730  Biso   1.000  O
  O19      1.0000 0.83880  0.15920  0.95730  Biso   1.000  O
  O20      1.0000 0.66120  0.65920  0.54270  Biso   1.000  O
  C1       1.0000 0.72060  0.91990  0.17570  Biso   1.000  C
  C2       1.0000 0.77940  0.41990  0.32430  Biso   1.000  C
  C3       1.0000 0.27940  0.08010  0.82430  Biso   1.000  C
  C4       1.0000 0.22060  0.58010  0.67570  Biso   1.000  C
  C5       1.0000 0.52450  0.95870  0.24520  Biso   1.000  C
  C6       1.0000 0.97550  0.45870  0.25480  Biso   1.000  C
  C7       1.0000 0.47550  0.04130  0.75480  Biso   1.000  C
  C8       1.0000 0.02450  0.54130  0.74520  Biso   1.000  C
  C9       1.0000 0.51250  0.90060  0.34040  Biso   1.000  C
  C10      1.0000 0.98750  0.40060  0.15960  Biso   1.000  C
  C11      1.0000 0.48750  0.09940  0.65960  Biso   1.000  C
  C12      1.0000 0.01250  0.59940  0.84040  Biso   1.000  C
  C13      1.0000 0.32860  0.93340  0.40520  Biso   1.000  C
  C14      1.0000 0.17140  0.43340  0.09480  Biso   1.000  C
  C15      1.0000 0.67140  0.06660  0.59480  Biso   1.000  C
  C16      1.0000 0.82860  0.56660  0.90520  Biso   1.000  C
  C17      1.0000 0.16240  0.02940  0.37710  Biso   1.000  C
  C18      1.0000 0.33760  0.52940  0.12290  Biso   1.000  C
  C19      1.0000 0.83760  0.97060  0.62290  Biso   1.000  C
  C20      1.0000 0.66240  0.47060  0.87710  Biso   1.000  C
  C21      1.0000 0.16850  0.08940  0.28520  Biso   1.000  C
  C22      1.0000 0.33150  0.58940  0.21480  Biso   1.000  C
  C23      1.0000 0.83150  0.91060  0.71480  Biso   1.000  C
  C24      1.0000 0.66850  0.41060  0.78520  Biso   1.000  C
  C25      1.0000 0.34750  0.05370  0.21840  Biso   1.000  C
  C26      1.0000 0.15250  0.55370  0.28160  Biso   1.000  C
  C27      1.0000 0.65250  0.94630  0.78160  Biso   1.000  C
  C28      1.0000 0.84750  0.44630  0.71840  Biso   1.000  C
  H1       1.0000 0.31700  0.89200  0.46600  Biso   1.000  H
  H2       1.0000 0.18300  0.39200  0.03400  Biso   1.000  H
  H3       1.0000 0.68300  0.10800  0.53400  Biso   1.000  H
  H4       1.0000 0.81700  0.60800  0.96600  Biso   1.000  H
  H5       1.0000 0.05500  0.05600  0.41900  Biso   1.000  H
  H6       1.0000 0.44500  0.55600  0.08100  Biso   1.000  H
  H7       1.0000 0.94500  0.94400  0.58100  Biso   1.000  H
  H8       1.0000 0.55500  0.44400  0.91900  Biso   1.000  H
  H9       1.0000 0.06900  0.15600  0.26300  Biso   1.000  H
  H10      1.0000 0.43100  0.65600  0.23700  Biso   1.000  H
  H11      1.0000 0.93100  0.84400  0.73700  Biso   1.000  H
  H12      1.0000 0.56900  0.34400  0.76300  Biso   1.000  H
  H13      1.0000 0.56600  0.90300  0.89700  Biso   1.000  H
  H14      1.0000 0.93400  0.40300  0.60300  Biso   1.000  H
  H15      1.0000 0.43400  0.09700  0.10300  Biso   1.000  H
  H16      1.0000 0.06600  0.59700  0.39700  Biso   1.000  H
  H17      1.0000 0.75800  0.79700  0.33900  Biso   1.000  H
  H18      1.0000 0.74200  0.29700  0.16100  Biso   1.000  H
  H19      1.0000 0.24200  0.20300  0.66100  Biso   1.000  H
  H20      1.0000 0.25800  0.70300  0.83900  Biso   1.000  H
  H21      1.0000 0.09100  0.81600  0.08500  Biso   1.000  H
  H22      1.0000 0.40900  0.31600  0.41500  Biso   1.000  H
  H23      1.0000 0.90900  0.18400  0.91500  Biso   1.000  H
  H24      1.0000 0.59100  0.68400  0.58500  Biso   1.000  H
  H25      1.0000 0.16400  0.79300  0.99500  Biso   1.000  H
  H26      1.0000 0.33600  0.29300  0.50500  Biso   1.000  H
  H27      1.0000 0.83600  0.20700  0.00500  Biso   1.000  H
  H28      1.0000 0.66400  0.70700  0.49500  Biso   1.000  H
