data_image0
_cell_length_a       11.8447
_cell_length_b       11.8447
_cell_length_c       18.9782
_cell_angle_alpha    90
_cell_angle_beta     90
_cell_angle_gamma    90

_symmetry_space_group_name_H-M    "P 1"
_symmetry_int_tables_number       1

loop_
  _symmetry_equiv_pos_as_xyz
  'x, y, z'

loop_
  _atom_site_label
  _atom_site_occupancy
  _atom_site_fract_x
  _atom_site_fract_y
  _atom_site_fract_z
  _atom_site_thermal_displace_type
  _atom_site_B_iso_or_equiv
  _atom_site_type_symbol
  Cu1      1.0000 0.00000  0.75000  0.12500  Biso   1.000  Cu
  Cu2      1.0000 0.50000  0.25000  0.62500  Biso   1.000  Cu
  Cu3      1.0000 0.50000  0.75000  0.37500  Biso   1.000  Cu
  Cu4      1.0000 0.00000  0.25000  0.87500  Biso   1.000  Cu
  Cu5      1.0000 0.75000  0.75000  0.25000  Biso   1.000  Cu
  Cu6      1.0000 0.75000  0.25000  0.75000  Biso   1.000  Cu
  Cu7      1.0000 0.50000  0.50000  0.50000  Biso   1.000  Cu
  Cu8      1.0000 0.00000  0.50000  0.00000  Biso   1.000  Cu
  Cu9      1.0000 0.25000  0.25000  0.75000  Biso   1.000  Cu
  Cu10     1.0000 0.25000  0.75000  0.25000  Biso   1.000  Cu
  Cu11     1.0000 0.00000  0.00000  0.00000  Biso   1.000  Cu
  Cu12     1.0000 0.50000  0.00000  0.50000  Biso   1.000  Cu
  N1       1.0000 0.00000  0.75000  0.24870  Biso   1.000  N
  N2       1.0000 0.50000  0.25000  0.74870  Biso   1.000  N
  N3       1.0000 0.50000  0.75000  0.49870  Biso   1.000  N
  N4       1.0000 0.00000  0.25000  0.99870  Biso   1.000  N
  N5       1.0000 0.50000  0.75000  0.25130  Biso   1.000  N
  N6       1.0000 0.00000  0.25000  0.75130  Biso   1.000  N
  N7       1.0000 0.00000  0.75000  0.00130  Biso   1.000  N
  N8       1.0000 0.50000  0.25000  0.50130  Biso   1.000  N
  N9       1.0000 0.87820  0.87180  0.12500  Biso   1.000  N
  N10      1.0000 0.62180  0.12820  0.62500  Biso   1.000  N
  N11      1.0000 0.37820  0.62820  0.37500  Biso   1.000  N
  N12      1.0000 0.12180  0.37180  0.87500  Biso   1.000  N
  N13      1.0000 0.62180  0.87180  0.37500  Biso   1.000  N
  N14      1.0000 0.87820  0.12820  0.87500  Biso   1.000  N
  N15      1.0000 0.12180  0.62820  0.12500  Biso   1.000  N
  N16      1.0000 0.37820  0.37180  0.62500  Biso   1.000  N
  N17      1.0000 0.12180  0.12820  0.87500  Biso   1.000  N
  N18      1.0000 0.37820  0.87180  0.37500  Biso   1.000  N
  N19      1.0000 0.12180  0.87180  0.12500  Biso   1.000  N
  N20      1.0000 0.37820  0.12820  0.62500  Biso   1.000  N
  N21      1.0000 0.62180  0.62820  0.37500  Biso   1.000  N
  N22      1.0000 0.87820  0.37180  0.87500  Biso   1.000  N
  N23      1.0000 0.62180  0.37180  0.62500  Biso   1.000  N
  N24      1.0000 0.87820  0.62820  0.12500  Biso   1.000  N
  N25      1.0000 0.90850  0.75000  0.28940  Biso   1.000  N
  N26      1.0000 0.59150  0.25000  0.78940  Biso   1.000  N
  N27      1.0000 0.50000  0.65850  0.53940  Biso   1.000  N
  N28      1.0000 0.00000  0.34150  0.03940  Biso   1.000  N
  N29      1.0000 0.59150  0.75000  0.21060  Biso   1.000  N
  N30      1.0000 0.90850  0.25000  0.71060  Biso   1.000  N
  N31      1.0000 0.00000  0.65850  0.96060  Biso   1.000  N
  N32      1.0000 0.50000  0.34150  0.46060  Biso   1.000  N
  N33      1.0000 0.40850  0.25000  0.78940  Biso   1.000  N
  N34      1.0000 0.09150  0.75000  0.28940  Biso   1.000  N
  N35      1.0000 0.00000  0.15850  0.03940  Biso   1.000  N
  N36      1.0000 0.50000  0.84150  0.53940  Biso   1.000  N
  N37      1.0000 0.09150  0.25000  0.71060  Biso   1.000  N
  N38      1.0000 0.40850  0.75000  0.21060  Biso   1.000  N
  N39      1.0000 0.50000  0.15850  0.46060  Biso   1.000  N
  N40      1.0000 0.00000  0.84150  0.96060  Biso   1.000  N
  N41      1.0000 0.79470  0.87840  0.17210  Biso   1.000  N
  N42      1.0000 0.70530  0.12160  0.67210  Biso   1.000  N
  N43      1.0000 0.37160  0.54470  0.42210  Biso   1.000  N
  N44      1.0000 0.12840  0.45530  0.92210  Biso   1.000  N
  N45      1.0000 0.70530  0.87840  0.32790  Biso   1.000  N
  N46      1.0000 0.79470  0.12160  0.82790  Biso   1.000  N
  N47      1.0000 0.12840  0.54470  0.07790  Biso   1.000  N
  N48      1.0000 0.37160  0.45530  0.57790  Biso   1.000  N
  N49      1.0000 0.29470  0.37840  0.67210  Biso   1.000  N
  N50      1.0000 0.20530  0.62160  0.17210  Biso   1.000  N
  N51      1.0000 0.87160  0.04470  0.92210  Biso   1.000  N
  N52      1.0000 0.62840  0.95530  0.42210  Biso   1.000  N
  N53      1.0000 0.20530  0.37840  0.82790  Biso   1.000  N
  N54      1.0000 0.29470  0.62160  0.32790  Biso   1.000  N
  N55      1.0000 0.62840  0.04470  0.57790  Biso   1.000  N
  N56      1.0000 0.87160  0.95530  0.07790  Biso   1.000  N
  N57      1.0000 0.20530  0.12160  0.82790  Biso   1.000  N
  N58      1.0000 0.29470  0.87840  0.32790  Biso   1.000  N
  N59      1.0000 0.12840  0.95530  0.07790  Biso   1.000  N
  N60      1.0000 0.37160  0.04470  0.57790  Biso   1.000  N
  N61      1.0000 0.29470  0.12160  0.67210  Biso   1.000  N
  N62      1.0000 0.20530  0.87840  0.17210  Biso   1.000  N
  N63      1.0000 0.37160  0.95530  0.42210  Biso   1.000  N
  N64      1.0000 0.12840  0.04470  0.92210  Biso   1.000  N
  N65      1.0000 0.70530  0.62160  0.32790  Biso   1.000  N
  N66      1.0000 0.79470  0.37840  0.82790  Biso   1.000  N
  N67      1.0000 0.62840  0.45530  0.57790  Biso   1.000  N
  N68      1.0000 0.87160  0.54470  0.07790  Biso   1.000  N
  N69      1.0000 0.79470  0.62160  0.17210  Biso   1.000  N
  N70      1.0000 0.70530  0.37840  0.67210  Biso   1.000  N
  N71      1.0000 0.87160  0.45530  0.92210  Biso   1.000  N
  N72      1.0000 0.62840  0.54470  0.42210  Biso   1.000  N
  C1       1.0000 0.94300  0.75000  0.35620  Biso   1.000  C
  C2       1.0000 0.55700  0.25000  0.85620  Biso   1.000  C
  C3       1.0000 0.50000  0.69300  0.60620  Biso   1.000  C
  C4       1.0000 0.00000  0.30700  0.10620  Biso   1.000  C
  C5       1.0000 0.55700  0.75000  0.14380  Biso   1.000  C
  C6       1.0000 0.94300  0.25000  0.64380  Biso   1.000  C
  C7       1.0000 0.00000  0.69300  0.89380  Biso   1.000  C
  C8       1.0000 0.50000  0.30700  0.39380  Biso   1.000  C
  C9       1.0000 0.44300  0.25000  0.85620  Biso   1.000  C
  C10      1.0000 0.05700  0.75000  0.35620  Biso   1.000  C
  C11      1.0000 0.00000  0.19300  0.10620  Biso   1.000  C
  C12      1.0000 0.50000  0.80700  0.60620  Biso   1.000  C
  C13      1.0000 0.05700  0.25000  0.64380  Biso   1.000  C
  C14      1.0000 0.44300  0.75000  0.14380  Biso   1.000  C
  C15      1.0000 0.50000  0.19300  0.39380  Biso   1.000  C
  C16      1.0000 0.00000  0.80700  0.89380  Biso   1.000  C
  H1       1.0000 0.89670  0.75000  0.39580  Biso   1.000  H
  H2       1.0000 0.60330  0.25000  0.89580  Biso   1.000  H
  H3       1.0000 0.50000  0.64670  0.64580  Biso   1.000  H
  H4       1.0000 0.00000  0.35330  0.14580  Biso   1.000  H
  H5       1.0000 0.60330  0.75000  0.10420  Biso   1.000  H
  H6       1.0000 0.89670  0.25000  0.60420  Biso   1.000  H
  H7       1.0000 0.00000  0.64670  0.85420  Biso   1.000  H
  H8       1.0000 0.50000  0.35330  0.35420  Biso   1.000  H
  H9       1.0000 0.39670  0.25000  0.89580  Biso   1.000  H
  H10      1.0000 0.10330  0.75000  0.39580  Biso   1.000  H
  H11      1.0000 0.00000  0.14670  0.14580  Biso   1.000  H
  H12      1.0000 0.50000  0.85330  0.64580  Biso   1.000  H
  H13      1.0000 0.10330  0.25000  0.60420  Biso   1.000  H
  H14      1.0000 0.39670  0.75000  0.10420  Biso   1.000  H
  H15      1.0000 0.50000  0.14670  0.35420  Biso   1.000  H
  H16      1.0000 0.00000  0.85330  0.85420  Biso   1.000  H
  C17      1.0000 0.73350  0.96940  0.15390  Biso   1.000  C
  C18      1.0000 0.76650  0.03060  0.65390  Biso   1.000  C
  C19      1.0000 0.28060  0.48350  0.40390  Biso   1.000  C
  C20      1.0000 0.21940  0.51650  0.90390  Biso   1.000  C
  C21      1.0000 0.76650  0.96940  0.34610  Biso   1.000  C
  C22      1.0000 0.73350  0.03060  0.84610  Biso   1.000  C
  C23      1.0000 0.21940  0.48350  0.09610  Biso   1.000  C
  C24      1.0000 0.28060  0.51650  0.59610  Biso   1.000  C
  C25      1.0000 0.23350  0.46940  0.65390  Biso   1.000  C
  C26      1.0000 0.26650  0.53060  0.15390  Biso   1.000  C
  C27      1.0000 0.78060  0.98350  0.90390  Biso   1.000  C
  C28      1.0000 0.71940  0.01650  0.40390  Biso   1.000  C
  C29      1.0000 0.26650  0.46940  0.84610  Biso   1.000  C
  C30      1.0000 0.23350  0.53060  0.34610  Biso   1.000  C
  C31      1.0000 0.71940  0.98350  0.59610  Biso   1.000  C
  C32      1.0000 0.78060  0.01650  0.09610  Biso   1.000  C
  C33      1.0000 0.26650  0.03060  0.84610  Biso   1.000  C
  C34      1.0000 0.23350  0.96940  0.34610  Biso   1.000  C
  C35      1.0000 0.21940  0.01650  0.09610  Biso   1.000  C
  C36      1.0000 0.28060  0.98350  0.59610  Biso   1.000  C
  C37      1.0000 0.23350  0.03060  0.65390  Biso   1.000  C
  C38      1.0000 0.26650  0.96940  0.15390  Biso   1.000  C
  C39      1.0000 0.28060  0.01650  0.40390  Biso   1.000  C
  C40      1.0000 0.21940  0.98350  0.90390  Biso   1.000  C
  C41      1.0000 0.76650  0.53060  0.34610  Biso   1.000  C
  C42      1.0000 0.73350  0.46940  0.84610  Biso   1.000  C
  C43      1.0000 0.71940  0.51650  0.59610  Biso   1.000  C
  C44      1.0000 0.78060  0.48350  0.09610  Biso   1.000  C
  C45      1.0000 0.73350  0.53060  0.15390  Biso   1.000  C
  C46      1.0000 0.76650  0.46940  0.65390  Biso   1.000  C
  C47      1.0000 0.78060  0.51650  0.90390  Biso   1.000  C
  C48      1.0000 0.71940  0.48350  0.40390  Biso   1.000  C
  H17      1.0000 0.66960  0.99550  0.17720  Biso   1.000  H
  H18      1.0000 0.83040  0.00450  0.67720  Biso   1.000  H
  H19      1.0000 0.25450  0.41960  0.42720  Biso   1.000  H
  H20      1.0000 0.24550  0.58040  0.92720  Biso   1.000  H
  H21      1.0000 0.83040  0.99550  0.32280  Biso   1.000  H
  H22      1.0000 0.66960  0.00450  0.82280  Biso   1.000  H
  H23      1.0000 0.24550  0.41960  0.07280  Biso   1.000  H
  H24      1.0000 0.25450  0.58040  0.57280  Biso   1.000  H
  H25      1.0000 0.16960  0.49550  0.67720  Biso   1.000  H
  H26      1.0000 0.33040  0.50450  0.17720  Biso   1.000  H
  H27      1.0000 0.75450  0.91960  0.92720  Biso   1.000  H
  H28      1.0000 0.74550  0.08040  0.42720  Biso   1.000  H
  H29      1.0000 0.33040  0.49550  0.82280  Biso   1.000  H
  H30      1.0000 0.16960  0.50450  0.32280  Biso   1.000  H
  H31      1.0000 0.74550  0.91960  0.57280  Biso   1.000  H
  H32      1.0000 0.75450  0.08040  0.07280  Biso   1.000  H
  H33      1.0000 0.33040  0.00450  0.82280  Biso   1.000  H
  H34      1.0000 0.16960  0.99550  0.32280  Biso   1.000  H
  H35      1.0000 0.24550  0.08040  0.07280  Biso   1.000  H
  H36      1.0000 0.25450  0.91960  0.57280  Biso   1.000  H
  H37      1.0000 0.16960  0.00450  0.67720  Biso   1.000  H
  H38      1.0000 0.33040  0.99550  0.17720  Biso   1.000  H
  H39      1.0000 0.25450  0.08040  0.42720  Biso   1.000  H
  H40      1.0000 0.24550  0.91960  0.92720  Biso   1.000  H
  H41      1.0000 0.83040  0.50450  0.32280  Biso   1.000  H
  H42      1.0000 0.66960  0.49550  0.82280  Biso   1.000  H
  H43      1.0000 0.74550  0.58040  0.57280  Biso   1.000  H
  H44      1.0000 0.75450  0.41960  0.07280  Biso   1.000  H
  H45      1.0000 0.66960  0.50450  0.17720  Biso   1.000  H
  H46      1.0000 0.83040  0.49550  0.67720  Biso   1.000  H
  H47      1.0000 0.75450  0.58040  0.92720  Biso   1.000  H
  H48      1.0000 0.74550  0.41960  0.42720  Biso   1.000  H
