data_image0
_cell_length_a       17.4416
_cell_length_b       17.4416
_cell_length_c       17.4416
_cell_angle_alpha    90
_cell_angle_beta     90
_cell_angle_gamma    90

_symmetry_space_group_name_H-M    "P 1"
_symmetry_int_tables_number       1

loop_
  _symmetry_equiv_pos_as_xyz
  'x, y, z'

loop_
  _atom_site_label
  _atom_site_occupancy
  _atom_site_fract_x
  _atom_site_fract_y
  _atom_site_fract_z
  _atom_site_thermal_displace_type
  _atom_site_B_iso_or_equiv
  _atom_site_type_symbol
  C1       1.0000 0.09770  0.37580  0.09770  Biso   1.000  C
  C2       1.0000 0.65230  0.87420  0.59770  Biso   1.000  C
  C3       1.0000 0.15230  0.87580  0.65230  Biso   1.000  C
  C4       1.0000 0.59770  0.37420  0.15230  Biso   1.000  C
  C5       1.0000 0.09770  0.09770  0.37580  Biso   1.000  C
  C6       1.0000 0.59770  0.65230  0.87420  Biso   1.000  C
  C7       1.0000 0.65230  0.15230  0.87580  Biso   1.000  C
  C8       1.0000 0.15230  0.59770  0.37420  Biso   1.000  C
  C9       1.0000 0.37580  0.09770  0.09770  Biso   1.000  C
  C10      1.0000 0.87420  0.59770  0.65230  Biso   1.000  C
  C11      1.0000 0.87580  0.65230  0.15230  Biso   1.000  C
  C12      1.0000 0.37420  0.15230  0.59770  Biso   1.000  C
  C13      1.0000 0.12580  0.34770  0.40230  Biso   1.000  C
  C14      1.0000 0.62420  0.90230  0.90230  Biso   1.000  C
  C15      1.0000 0.62580  0.40230  0.84770  Biso   1.000  C
  C16      1.0000 0.12420  0.84770  0.34770  Biso   1.000  C
  C17      1.0000 0.84770  0.34770  0.12420  Biso   1.000  C
  C18      1.0000 0.40230  0.84770  0.62580  Biso   1.000  C
  C19      1.0000 0.90230  0.90230  0.62420  Biso   1.000  C
  C20      1.0000 0.34770  0.40230  0.12580  Biso   1.000  C
  C21      1.0000 0.84770  0.62580  0.40230  Biso   1.000  C
  C22      1.0000 0.34770  0.12420  0.84770  Biso   1.000  C
  C23      1.0000 0.40230  0.12580  0.34770  Biso   1.000  C
  C24      1.0000 0.90230  0.62420  0.90230  Biso   1.000  C
  C25      1.0000 0.09770  0.87580  0.59770  Biso   1.000  C
  C26      1.0000 0.65230  0.37420  0.09770  Biso   1.000  C
  C27      1.0000 0.15230  0.37580  0.15230  Biso   1.000  C
  C28      1.0000 0.59770  0.87420  0.65230  Biso   1.000  C
  C29      1.0000 0.09770  0.59770  0.87580  Biso   1.000  C
  C30      1.0000 0.59770  0.15230  0.37420  Biso   1.000  C
  C31      1.0000 0.65230  0.65230  0.37580  Biso   1.000  C
  C32      1.0000 0.15230  0.09770  0.87420  Biso   1.000  C
  C33      1.0000 0.37580  0.59770  0.59770  Biso   1.000  C
  C34      1.0000 0.87420  0.09770  0.15230  Biso   1.000  C
  C35      1.0000 0.87580  0.15230  0.65230  Biso   1.000  C
  C36      1.0000 0.37420  0.65230  0.09770  Biso   1.000  C
  C37      1.0000 0.12580  0.84770  0.90230  Biso   1.000  C
  C38      1.0000 0.62420  0.40230  0.40230  Biso   1.000  C
  C39      1.0000 0.62580  0.90230  0.34770  Biso   1.000  C
  C40      1.0000 0.12420  0.34770  0.84770  Biso   1.000  C
  C41      1.0000 0.84770  0.84770  0.62420  Biso   1.000  C
  C42      1.0000 0.40230  0.34770  0.12580  Biso   1.000  C
  C43      1.0000 0.90230  0.40230  0.12420  Biso   1.000  C
  C44      1.0000 0.34770  0.90230  0.62580  Biso   1.000  C
  C45      1.0000 0.84770  0.12580  0.90230  Biso   1.000  C
  C46      1.0000 0.34770  0.62420  0.34770  Biso   1.000  C
  C47      1.0000 0.40230  0.62580  0.84770  Biso   1.000  C
  C48      1.0000 0.90230  0.12420  0.40230  Biso   1.000  C
  C49      1.0000 0.59770  0.37580  0.59770  Biso   1.000  C
  C50      1.0000 0.15230  0.87420  0.09770  Biso   1.000  C
  C51      1.0000 0.65230  0.87580  0.15230  Biso   1.000  C
  C52      1.0000 0.09770  0.37420  0.65230  Biso   1.000  C
  C53      1.0000 0.59770  0.09770  0.87580  Biso   1.000  C
  C54      1.0000 0.09770  0.65230  0.37420  Biso   1.000  C
  C55      1.0000 0.15230  0.15230  0.37580  Biso   1.000  C
  C56      1.0000 0.65230  0.59770  0.87420  Biso   1.000  C
  C57      1.0000 0.87580  0.09770  0.59770  Biso   1.000  C
  C58      1.0000 0.37420  0.59770  0.15230  Biso   1.000  C
  C59      1.0000 0.37580  0.65230  0.65230  Biso   1.000  C
  C60      1.0000 0.87420  0.15230  0.09770  Biso   1.000  C
  C61      1.0000 0.62580  0.34770  0.90230  Biso   1.000  C
  C62      1.0000 0.12420  0.90230  0.40230  Biso   1.000  C
  C63      1.0000 0.12580  0.40230  0.34770  Biso   1.000  C
  C64      1.0000 0.62420  0.84770  0.84770  Biso   1.000  C
  C65      1.0000 0.34770  0.34770  0.62420  Biso   1.000  C
  C66      1.0000 0.90230  0.84770  0.12580  Biso   1.000  C
  C67      1.0000 0.40230  0.90230  0.12420  Biso   1.000  C
  C68      1.0000 0.84770  0.40230  0.62580  Biso   1.000  C
  C69      1.0000 0.34770  0.62580  0.90230  Biso   1.000  C
  C70      1.0000 0.84770  0.12420  0.34770  Biso   1.000  C
  C71      1.0000 0.90230  0.12580  0.84770  Biso   1.000  C
  C72      1.0000 0.40230  0.62420  0.40230  Biso   1.000  C
  C73      1.0000 0.59770  0.87580  0.09770  Biso   1.000  C
  C74      1.0000 0.15230  0.37420  0.59770  Biso   1.000  C
  C75      1.0000 0.65230  0.37580  0.65230  Biso   1.000  C
  C76      1.0000 0.09770  0.87420  0.15230  Biso   1.000  C
  C77      1.0000 0.59770  0.59770  0.37580  Biso   1.000  C
  C78      1.0000 0.09770  0.15230  0.87420  Biso   1.000  C
  C79      1.0000 0.15230  0.65230  0.87580  Biso   1.000  C
  C80      1.0000 0.65230  0.09770  0.37420  Biso   1.000  C
  C81      1.0000 0.87580  0.59770  0.09770  Biso   1.000  C
  C82      1.0000 0.37420  0.09770  0.65230  Biso   1.000  C
  C83      1.0000 0.37580  0.15230  0.15230  Biso   1.000  C
  C84      1.0000 0.87420  0.65230  0.59770  Biso   1.000  C
  C85      1.0000 0.62580  0.84770  0.40230  Biso   1.000  C
  C86      1.0000 0.12420  0.40230  0.90230  Biso   1.000  C
  C87      1.0000 0.12580  0.90230  0.84770  Biso   1.000  C
  C88      1.0000 0.62420  0.34770  0.34770  Biso   1.000  C
  C89      1.0000 0.34770  0.84770  0.12420  Biso   1.000  C
  C90      1.0000 0.90230  0.34770  0.62580  Biso   1.000  C
  C91      1.0000 0.40230  0.40230  0.62420  Biso   1.000  C
  C92      1.0000 0.84770  0.90230  0.12580  Biso   1.000  C
  C93      1.0000 0.34770  0.12580  0.40230  Biso   1.000  C
  C94      1.0000 0.84770  0.62420  0.84770  Biso   1.000  C
  C95      1.0000 0.90230  0.62580  0.34770  Biso   1.000  C
  C96      1.0000 0.40230  0.12420  0.90230  Biso   1.000  C
  Cu1      1.0000 0.00000  0.50000  0.00000  Biso   1.000  Cu
  Cu2      1.0000 0.75000  0.75000  0.50000  Biso   1.000  Cu
  Cu3      1.0000 0.25000  0.00000  0.75000  Biso   1.000  Cu
  Cu4      1.0000 0.50000  0.25000  0.25000  Biso   1.000  Cu
  Cu5      1.0000 0.00000  0.00000  0.50000  Biso   1.000  Cu
  Cu6      1.0000 0.50000  0.75000  0.75000  Biso   1.000  Cu
  Cu7      1.0000 0.75000  0.25000  0.00000  Biso   1.000  Cu
  Cu8      1.0000 0.25000  0.50000  0.25000  Biso   1.000  Cu
  Cu9      1.0000 0.50000  0.00000  0.00000  Biso   1.000  Cu
  Cu10     1.0000 0.75000  0.50000  0.75000  Biso   1.000  Cu
  Cu11     1.0000 0.00000  0.75000  0.25000  Biso   1.000  Cu
  Cu12     1.0000 0.25000  0.25000  0.50000  Biso   1.000  Cu
  Cu13     1.0000 0.50000  0.50000  0.50000  Biso   1.000  Cu
  Cu14     1.0000 0.75000  0.00000  0.25000  Biso   1.000  Cu
  Cu15     1.0000 0.00000  0.25000  0.75000  Biso   1.000  Cu
  Cu16     1.0000 0.25000  0.75000  0.00000  Biso   1.000  Cu
  Cu17     1.0000 0.12500  0.62500  0.12500  Biso   1.000  Cu
  Cu18     1.0000 0.62500  0.62500  0.62500  Biso   1.000  Cu
  Cu19     1.0000 0.12500  0.12500  0.62500  Biso   1.000  Cu
  Cu20     1.0000 0.62500  0.12500  0.12500  Biso   1.000  Cu
  Cu21     1.0000 0.37500  0.37500  0.37500  Biso   1.000  Cu
  Cu22     1.0000 0.37500  0.87500  0.87500  Biso   1.000  Cu
  Cu23     1.0000 0.87500  0.37500  0.87500  Biso   1.000  Cu
  Cu24     1.0000 0.87500  0.87500  0.37500  Biso   1.000  Cu
  N1       1.0000 0.08042  0.44890  0.08042  Biso   1.000  N
  N2       1.0000 0.66958  0.80110  0.58042  Biso   1.000  N
  N3       1.0000 0.16958  0.94890  0.66958  Biso   1.000  N
  N4       1.0000 0.58042  0.30110  0.16958  Biso   1.000  N
  N5       1.0000 0.08042  0.08042  0.44890  Biso   1.000  N
  N6       1.0000 0.58042  0.66958  0.80110  Biso   1.000  N
  N7       1.0000 0.66958  0.16958  0.94890  Biso   1.000  N
  N8       1.0000 0.16958  0.58042  0.30110  Biso   1.000  N
  N9       1.0000 0.44890  0.08042  0.08042  Biso   1.000  N
  N10      1.0000 0.80110  0.58042  0.66958  Biso   1.000  N
  N11      1.0000 0.94890  0.66958  0.16958  Biso   1.000  N
  N12      1.0000 0.30110  0.16958  0.58042  Biso   1.000  N
  N13      1.0000 0.19890  0.33042  0.41958  Biso   1.000  N
  N14      1.0000 0.55110  0.91958  0.91958  Biso   1.000  N
  N15      1.0000 0.69890  0.41958  0.83042  Biso   1.000  N
  N16      1.0000 0.05110  0.83042  0.33042  Biso   1.000  N
  N17      1.0000 0.83042  0.33042  0.05110  Biso   1.000  N
  N18      1.0000 0.41958  0.83042  0.69890  Biso   1.000  N
  N19      1.0000 0.91958  0.91958  0.55110  Biso   1.000  N
  N20      1.0000 0.33042  0.41958  0.19890  Biso   1.000  N
  N21      1.0000 0.83042  0.69890  0.41958  Biso   1.000  N
  N22      1.0000 0.33042  0.05110  0.83042  Biso   1.000  N
  N23      1.0000 0.41958  0.19890  0.33042  Biso   1.000  N
  N24      1.0000 0.91958  0.55110  0.91958  Biso   1.000  N
  N25      1.0000 0.08042  0.94890  0.58042  Biso   1.000  N
  N26      1.0000 0.66958  0.30110  0.08042  Biso   1.000  N
  N27      1.0000 0.16958  0.44890  0.16958  Biso   1.000  N
  N28      1.0000 0.58042  0.80110  0.66958  Biso   1.000  N
  N29      1.0000 0.08042  0.58042  0.94890  Biso   1.000  N
  N30      1.0000 0.58042  0.16958  0.30110  Biso   1.000  N
  N31      1.0000 0.66958  0.66958  0.44890  Biso   1.000  N
  N32      1.0000 0.16958  0.08042  0.80110  Biso   1.000  N
  N33      1.0000 0.44890  0.58042  0.58042  Biso   1.000  N
  N34      1.0000 0.80110  0.08042  0.16958  Biso   1.000  N
  N35      1.0000 0.94890  0.16958  0.66958  Biso   1.000  N
  N36      1.0000 0.30110  0.66958  0.08042  Biso   1.000  N
  N37      1.0000 0.19890  0.83042  0.91958  Biso   1.000  N
  N38      1.0000 0.55110  0.41958  0.41958  Biso   1.000  N
  N39      1.0000 0.69890  0.91958  0.33042  Biso   1.000  N
  N40      1.0000 0.05110  0.33042  0.83042  Biso   1.000  N
  N41      1.0000 0.83042  0.83042  0.55110  Biso   1.000  N
  N42      1.0000 0.41958  0.33042  0.19890  Biso   1.000  N
  N43      1.0000 0.91958  0.41958  0.05110  Biso   1.000  N
  N44      1.0000 0.33042  0.91958  0.69890  Biso   1.000  N
  N45      1.0000 0.83042  0.19890  0.91958  Biso   1.000  N
  N46      1.0000 0.33042  0.55110  0.33042  Biso   1.000  N
  N47      1.0000 0.41958  0.69890  0.83042  Biso   1.000  N
  N48      1.0000 0.91958  0.05110  0.41958  Biso   1.000  N
  N49      1.0000 0.58042  0.44890  0.58042  Biso   1.000  N
  N50      1.0000 0.16958  0.80110  0.08042  Biso   1.000  N
  N51      1.0000 0.66958  0.94890  0.16958  Biso   1.000  N
  N52      1.0000 0.08042  0.30110  0.66958  Biso   1.000  N
  N53      1.0000 0.58042  0.08042  0.94890  Biso   1.000  N
  N54      1.0000 0.08042  0.66958  0.30110  Biso   1.000  N
  N55      1.0000 0.16958  0.16958  0.44890  Biso   1.000  N
  N56      1.0000 0.66958  0.58042  0.80110  Biso   1.000  N
  N57      1.0000 0.94890  0.08042  0.58042  Biso   1.000  N
  N58      1.0000 0.30110  0.58042  0.16958  Biso   1.000  N
  N59      1.0000 0.44890  0.66958  0.66958  Biso   1.000  N
  N60      1.0000 0.80110  0.16958  0.08042  Biso   1.000  N
  N61      1.0000 0.69890  0.33042  0.91958  Biso   1.000  N
  N62      1.0000 0.05110  0.91958  0.41958  Biso   1.000  N
  N63      1.0000 0.19890  0.41958  0.33042  Biso   1.000  N
  N64      1.0000 0.55110  0.83042  0.83042  Biso   1.000  N
  N65      1.0000 0.33042  0.33042  0.55110  Biso   1.000  N
  N66      1.0000 0.91958  0.83042  0.19890  Biso   1.000  N
  N67      1.0000 0.41958  0.91958  0.05110  Biso   1.000  N
  N68      1.0000 0.83042  0.41958  0.69890  Biso   1.000  N
  N69      1.0000 0.33042  0.69890  0.91958  Biso   1.000  N
  N70      1.0000 0.83042  0.05110  0.33042  Biso   1.000  N
  N71      1.0000 0.91958  0.19890  0.83042  Biso   1.000  N
  N72      1.0000 0.41958  0.55110  0.41958  Biso   1.000  N
  N73      1.0000 0.58042  0.94890  0.08042  Biso   1.000  N
  N74      1.0000 0.16958  0.30110  0.58042  Biso   1.000  N
  N75      1.0000 0.66958  0.44890  0.66958  Biso   1.000  N
  N76      1.0000 0.08042  0.80110  0.16958  Biso   1.000  N
  N77      1.0000 0.58042  0.58042  0.44890  Biso   1.000  N
  N78      1.0000 0.08042  0.16958  0.80110  Biso   1.000  N
  N79      1.0000 0.16958  0.66958  0.94890  Biso   1.000  N
  N80      1.0000 0.66958  0.08042  0.30110  Biso   1.000  N
  N81      1.0000 0.94890  0.58042  0.08042  Biso   1.000  N
  N82      1.0000 0.30110  0.08042  0.66958  Biso   1.000  N
  N83      1.0000 0.44890  0.16958  0.16958  Biso   1.000  N
  N84      1.0000 0.80110  0.66958  0.58042  Biso   1.000  N
  N85      1.0000 0.69890  0.83042  0.41958  Biso   1.000  N
  N86      1.0000 0.05110  0.41958  0.91958  Biso   1.000  N
  N87      1.0000 0.19890  0.91958  0.83042  Biso   1.000  N
  N88      1.0000 0.55110  0.33042  0.33042  Biso   1.000  N
  N89      1.0000 0.33042  0.83042  0.05110  Biso   1.000  N
  N90      1.0000 0.91958  0.33042  0.69890  Biso   1.000  N
  N91      1.0000 0.41958  0.41958  0.55110  Biso   1.000  N
  N92      1.0000 0.83042  0.91958  0.19890  Biso   1.000  N
  N93      1.0000 0.33042  0.19890  0.41958  Biso   1.000  N
  N94      1.0000 0.83042  0.55110  0.83042  Biso   1.000  N
  N95      1.0000 0.91958  0.69890  0.33042  Biso   1.000  N
  N96      1.0000 0.41958  0.05110  0.91958  Biso   1.000  N
  N97      1.0000 0.12500  0.49220  0.12500  Biso   1.000  N
  N98      1.0000 0.62500  0.75780  0.62500  Biso   1.000  N
  N99      1.0000 0.12500  0.99220  0.62500  Biso   1.000  N
  N100     1.0000 0.62500  0.25780  0.12500  Biso   1.000  N
  N101     1.0000 0.12500  0.12500  0.49220  Biso   1.000  N
  N102     1.0000 0.62500  0.62500  0.75780  Biso   1.000  N
  N103     1.0000 0.62500  0.12500  0.99220  Biso   1.000  N
  N104     1.0000 0.12500  0.62500  0.25780  Biso   1.000  N
  N105     1.0000 0.49220  0.12500  0.12500  Biso   1.000  N
  N106     1.0000 0.75780  0.62500  0.62500  Biso   1.000  N
  N107     1.0000 0.99220  0.62500  0.12500  Biso   1.000  N
  N108     1.0000 0.25780  0.12500  0.62500  Biso   1.000  N
  N109     1.0000 0.24220  0.37500  0.37500  Biso   1.000  N
  N110     1.0000 0.50780  0.87500  0.87500  Biso   1.000  N
  N111     1.0000 0.74220  0.37500  0.87500  Biso   1.000  N
  N112     1.0000 0.00780  0.87500  0.37500  Biso   1.000  N
  N113     1.0000 0.87500  0.37500  0.00780  Biso   1.000  N
  N114     1.0000 0.37500  0.87500  0.74220  Biso   1.000  N
  N115     1.0000 0.87500  0.87500  0.50780  Biso   1.000  N
  N116     1.0000 0.37500  0.37500  0.24220  Biso   1.000  N
  N117     1.0000 0.87500  0.74220  0.37500  Biso   1.000  N
  N118     1.0000 0.37500  0.00780  0.87500  Biso   1.000  N
  N119     1.0000 0.37500  0.24220  0.37500  Biso   1.000  N
  N120     1.0000 0.87500  0.50780  0.87500  Biso   1.000  N
  N121     1.0000 0.12500  0.62500  0.99220  Biso   1.000  N
  N122     1.0000 0.62500  0.12500  0.25780  Biso   1.000  N
  N123     1.0000 0.62500  0.62500  0.49220  Biso   1.000  N
  N124     1.0000 0.12500  0.12500  0.75780  Biso   1.000  N
  N125     1.0000 0.49220  0.62500  0.62500  Biso   1.000  N
  N126     1.0000 0.75780  0.12500  0.12500  Biso   1.000  N
  N127     1.0000 0.99220  0.12500  0.62500  Biso   1.000  N
  N128     1.0000 0.25780  0.62500  0.12500  Biso   1.000  N
  N129     1.0000 0.24220  0.87500  0.87500  Biso   1.000  N
  N130     1.0000 0.50780  0.37500  0.37500  Biso   1.000  N
  N131     1.0000 0.74220  0.87500  0.37500  Biso   1.000  N
  N132     1.0000 0.00780  0.37500  0.87500  Biso   1.000  N
  N133     1.0000 0.87500  0.24220  0.87500  Biso   1.000  N
  N134     1.0000 0.37500  0.50780  0.37500  Biso   1.000  N
  N135     1.0000 0.37500  0.74220  0.87500  Biso   1.000  N
  N136     1.0000 0.87500  0.00780  0.37500  Biso   1.000  N
  N137     1.0000 0.62500  0.49220  0.62500  Biso   1.000  N
  N138     1.0000 0.12500  0.75780  0.12500  Biso   1.000  N
  N139     1.0000 0.62500  0.99220  0.12500  Biso   1.000  N
  N140     1.0000 0.12500  0.25780  0.62500  Biso   1.000  N
  N141     1.0000 0.37500  0.37500  0.50780  Biso   1.000  N
  N142     1.0000 0.87500  0.87500  0.24220  Biso   1.000  N
  N143     1.0000 0.37500  0.87500  0.00780  Biso   1.000  N
  N144     1.0000 0.87500  0.37500  0.74220  Biso   1.000  N
  H1       1.0000 0.07562  0.33255  0.07562  Biso   1.000  H
  H2       1.0000 0.67438  0.91745  0.57562  Biso   1.000  H
  H3       1.0000 0.17438  0.83255  0.67438  Biso   1.000  H
  H4       1.0000 0.57562  0.41745  0.17438  Biso   1.000  H
  H5       1.0000 0.07562  0.07562  0.33255  Biso   1.000  H
  H6       1.0000 0.57562  0.67438  0.91745  Biso   1.000  H
  H7       1.0000 0.67438  0.17438  0.83255  Biso   1.000  H
  H8       1.0000 0.17438  0.57562  0.41745  Biso   1.000  H
  H9       1.0000 0.33255  0.07562  0.07562  Biso   1.000  H
  H10      1.0000 0.91745  0.57562  0.67438  Biso   1.000  H
  H11      1.0000 0.83255  0.67438  0.17438  Biso   1.000  H
  H12      1.0000 0.41745  0.17438  0.57562  Biso   1.000  H
  H13      1.0000 0.08255  0.32562  0.42438  Biso   1.000  H
  H14      1.0000 0.66745  0.92438  0.92438  Biso   1.000  H
  H15      1.0000 0.58255  0.42438  0.82562  Biso   1.000  H
  H16      1.0000 0.16745  0.82562  0.32562  Biso   1.000  H
  H17      1.0000 0.82562  0.32562  0.16745  Biso   1.000  H
  H18      1.0000 0.42438  0.82562  0.58255  Biso   1.000  H
  H19      1.0000 0.92438  0.92438  0.66745  Biso   1.000  H
  H20      1.0000 0.32562  0.42438  0.08255  Biso   1.000  H
  H21      1.0000 0.82562  0.58255  0.42438  Biso   1.000  H
  H22      1.0000 0.32562  0.16745  0.82562  Biso   1.000  H
  H23      1.0000 0.42438  0.08255  0.32562  Biso   1.000  H
  H24      1.0000 0.92438  0.66745  0.92438  Biso   1.000  H
  H25      1.0000 0.07562  0.83255  0.57562  Biso   1.000  H
  H26      1.0000 0.67438  0.41745  0.07562  Biso   1.000  H
  H27      1.0000 0.17438  0.33255  0.17438  Biso   1.000  H
  H28      1.0000 0.57562  0.91745  0.67438  Biso   1.000  H
  H29      1.0000 0.07562  0.57562  0.83255  Biso   1.000  H
  H30      1.0000 0.57562  0.17438  0.41745  Biso   1.000  H
  H31      1.0000 0.67438  0.67438  0.33255  Biso   1.000  H
  H32      1.0000 0.17438  0.07562  0.91745  Biso   1.000  H
  H33      1.0000 0.33255  0.57562  0.57562  Biso   1.000  H
  H34      1.0000 0.91745  0.07562  0.17438  Biso   1.000  H
  H35      1.0000 0.83255  0.17438  0.67438  Biso   1.000  H
  H36      1.0000 0.41745  0.67438  0.07562  Biso   1.000  H
  H37      1.0000 0.08255  0.82562  0.92438  Biso   1.000  H
  H38      1.0000 0.66745  0.42438  0.42438  Biso   1.000  H
  H39      1.0000 0.58255  0.92438  0.32562  Biso   1.000  H
  H40      1.0000 0.16745  0.32562  0.82562  Biso   1.000  H
  H41      1.0000 0.82562  0.82562  0.66745  Biso   1.000  H
  H42      1.0000 0.42438  0.32562  0.08255  Biso   1.000  H
  H43      1.0000 0.92438  0.42438  0.16745  Biso   1.000  H
  H44      1.0000 0.32562  0.92438  0.58255  Biso   1.000  H
  H45      1.0000 0.82562  0.08255  0.92438  Biso   1.000  H
  H46      1.0000 0.32562  0.66745  0.32562  Biso   1.000  H
  H47      1.0000 0.42438  0.58255  0.82562  Biso   1.000  H
  H48      1.0000 0.92438  0.16745  0.42438  Biso   1.000  H
  H49      1.0000 0.57562  0.33255  0.57562  Biso   1.000  H
  H50      1.0000 0.17438  0.91745  0.07562  Biso   1.000  H
  H51      1.0000 0.67438  0.83255  0.17438  Biso   1.000  H
  H52      1.0000 0.07562  0.41745  0.67438  Biso   1.000  H
  H53      1.0000 0.57562  0.07562  0.83255  Biso   1.000  H
  H54      1.0000 0.07562  0.67438  0.41745  Biso   1.000  H
  H55      1.0000 0.17438  0.17438  0.33255  Biso   1.000  H
  H56      1.0000 0.67438  0.57562  0.91745  Biso   1.000  H
  H57      1.0000 0.83255  0.07562  0.57562  Biso   1.000  H
  H58      1.0000 0.41745  0.57562  0.17438  Biso   1.000  H
  H59      1.0000 0.33255  0.67438  0.67438  Biso   1.000  H
  H60      1.0000 0.91745  0.17438  0.07562  Biso   1.000  H
  H61      1.0000 0.58255  0.32562  0.92438  Biso   1.000  H
  H62      1.0000 0.16745  0.92438  0.42438  Biso   1.000  H
  H63      1.0000 0.08255  0.42438  0.32562  Biso   1.000  H
  H64      1.0000 0.66745  0.82562  0.82562  Biso   1.000  H
  H65      1.0000 0.32562  0.32562  0.66745  Biso   1.000  H
  H66      1.0000 0.92438  0.82562  0.08255  Biso   1.000  H
  H67      1.0000 0.42438  0.92438  0.16745  Biso   1.000  H
  H68      1.0000 0.82562  0.42438  0.58255  Biso   1.000  H
  H69      1.0000 0.32562  0.58255  0.92438  Biso   1.000  H
  H70      1.0000 0.82562  0.16745  0.32562  Biso   1.000  H
  H71      1.0000 0.92438  0.08255  0.82562  Biso   1.000  H
  H72      1.0000 0.42438  0.66745  0.42438  Biso   1.000  H
  H73      1.0000 0.57562  0.83255  0.07562  Biso   1.000  H
  H74      1.0000 0.17438  0.41745  0.57562  Biso   1.000  H
  H75      1.0000 0.67438  0.33255  0.67438  Biso   1.000  H
  H76      1.0000 0.07562  0.91745  0.17438  Biso   1.000  H
  H77      1.0000 0.57562  0.57562  0.33255  Biso   1.000  H
  H78      1.0000 0.07562  0.17438  0.91745  Biso   1.000  H
  H79      1.0000 0.17438  0.67438  0.83255  Biso   1.000  H
  H80      1.0000 0.67438  0.07562  0.41745  Biso   1.000  H
  H81      1.0000 0.83255  0.57562  0.07562  Biso   1.000  H
  H82      1.0000 0.41745  0.07562  0.67438  Biso   1.000  H
  H83      1.0000 0.33255  0.17438  0.17438  Biso   1.000  H
  H84      1.0000 0.91745  0.67438  0.57562  Biso   1.000  H
  H85      1.0000 0.58255  0.82562  0.42438  Biso   1.000  H
  H86      1.0000 0.16745  0.42438  0.92438  Biso   1.000  H
  H87      1.0000 0.08255  0.92438  0.82562  Biso   1.000  H
  H88      1.0000 0.66745  0.32562  0.32562  Biso   1.000  H
  H89      1.0000 0.32562  0.82562  0.16745  Biso   1.000  H
  H90      1.0000 0.92438  0.32562  0.58255  Biso   1.000  H
  H91      1.0000 0.42438  0.42438  0.66745  Biso   1.000  H
  H92      1.0000 0.82562  0.92438  0.08255  Biso   1.000  H
  H93      1.0000 0.32562  0.08255  0.42438  Biso   1.000  H
  H94      1.0000 0.82562  0.66745  0.82562  Biso   1.000  H
  H95      1.0000 0.92438  0.58255  0.32562  Biso   1.000  H
  H96      1.0000 0.42438  0.16745  0.92438  Biso   1.000  H
