data_image0
_cell_length_a       12.677
_cell_length_b       18.933
_cell_length_c       26.983
_cell_angle_alpha    90
_cell_angle_beta     90.138
_cell_angle_gamma    90

_symmetry_space_group_name_H-M    "P 1"
_symmetry_int_tables_number       1

loop_
  _symmetry_equiv_pos_as_xyz
  'x, y, z'

loop_
  _atom_site_label
  _atom_site_occupancy
  _atom_site_fract_x
  _atom_site_fract_y
  _atom_site_fract_z
  _atom_site_thermal_displace_type
  _atom_site_B_iso_or_equiv
  _atom_site_type_symbol
  C1       1.0000 0.30060  0.96740  0.10330  Biso   1.000  C
  C2       1.0000 0.69940  0.46740  0.39670  Biso   1.000  C
  C3       1.0000 0.69940  0.03260  0.89670  Biso   1.000  C
  C4       1.0000 0.30060  0.53260  0.60330  Biso   1.000  C
  H1       1.0000 0.23680  0.94470  0.10910  Biso   1.000  H
  H2       1.0000 0.76320  0.44470  0.39090  Biso   1.000  H
  H3       1.0000 0.76320  0.05530  0.89090  Biso   1.000  H
  H4       1.0000 0.23680  0.55530  0.60910  Biso   1.000  H
  C5       1.0000 0.37950  0.95660  0.13620  Biso   1.000  C
  C6       1.0000 0.62050  0.45660  0.36380  Biso   1.000  C
  C7       1.0000 0.62050  0.04340  0.86380  Biso   1.000  C
  C8       1.0000 0.37950  0.54340  0.63620  Biso   1.000  C
  H5       1.0000 0.36950  0.92770  0.16360  Biso   1.000  H
  H6       1.0000 0.63050  0.42770  0.33640  Biso   1.000  H
  H7       1.0000 0.63050  0.07230  0.83640  Biso   1.000  H
  H8       1.0000 0.36950  0.57230  0.66360  Biso   1.000  H
  C9       1.0000 0.47130  0.98800  0.12850  Biso   1.000  C
  C10      1.0000 0.52870  0.48800  0.37150  Biso   1.000  C
  C11      1.0000 0.52870  0.01200  0.87150  Biso   1.000  C
  C12      1.0000 0.47130  0.51200  0.62850  Biso   1.000  C
  H9       1.0000 0.52700  0.98100  0.15040  Biso   1.000  H
  H10      1.0000 0.47300  0.48100  0.34960  Biso   1.000  H
  H11      1.0000 0.47300  0.01900  0.84960  Biso   1.000  H
  H12      1.0000 0.52700  0.51900  0.65040  Biso   1.000  H
  C13      1.0000 0.48390  0.03160  0.08740  Biso   1.000  C
  C14      1.0000 0.51610  0.53160  0.41260  Biso   1.000  C
  C15      1.0000 0.51610  0.96840  0.91260  Biso   1.000  C
  C16      1.0000 0.48390  0.46840  0.58740  Biso   1.000  C
  H13      1.0000 0.54740  0.05460  0.08130  Biso   1.000  H
  H14      1.0000 0.45260  0.55460  0.41870  Biso   1.000  H
  H15      1.0000 0.45260  0.94540  0.91870  Biso   1.000  H
  H16      1.0000 0.54740  0.44540  0.58130  Biso   1.000  H
  C17      1.0000 0.39980  0.03930  0.05660  Biso   1.000  C
  C18      1.0000 0.60020  0.53930  0.44340  Biso   1.000  C
  C19      1.0000 0.60020  0.96070  0.94340  Biso   1.000  C
  C20      1.0000 0.39980  0.46070  0.55660  Biso   1.000  C
  C21      1.0000 0.40200  0.08130  0.01030  Biso   1.000  C
  C22      1.0000 0.59800  0.58130  0.48970  Biso   1.000  C
  C23      1.0000 0.59800  0.91870  0.98970  Biso   1.000  C
  C24      1.0000 0.40200  0.41870  0.51030  Biso   1.000  C
  C25      1.0000 0.48760  0.11820  0.99250  Biso   1.000  C
  C26      1.0000 0.51240  0.61820  0.50750  Biso   1.000  C
  C27      1.0000 0.51240  0.88180  0.00750  Biso   1.000  C
  C28      1.0000 0.48760  0.38180  0.49250  Biso   1.000  C
  H17      1.0000 0.55120  0.11690  0.00970  Biso   1.000  H
  H18      1.0000 0.44880  0.61690  0.49030  Biso   1.000  H
  H19      1.0000 0.44880  0.88310  0.99030  Biso   1.000  H
  H20      1.0000 0.55120  0.38310  0.50970  Biso   1.000  H
  C29      1.0000 0.47990  0.15550  0.95110  Biso   1.000  C
  C30      1.0000 0.52010  0.65550  0.54890  Biso   1.000  C
  C31      1.0000 0.52010  0.84450  0.04890  Biso   1.000  C
  C32      1.0000 0.47990  0.34450  0.45110  Biso   1.000  C
  H21      1.0000 0.53820  0.18090  0.94030  Biso   1.000  H
  H22      1.0000 0.46180  0.68090  0.55970  Biso   1.000  H
  H23      1.0000 0.46180  0.81910  0.05970  Biso   1.000  H
  H24      1.0000 0.53820  0.31910  0.44030  Biso   1.000  H
  C33      1.0000 0.38530  0.15770  0.92280  Biso   1.000  C
  C34      1.0000 0.61470  0.65770  0.57720  Biso   1.000  C
  C35      1.0000 0.61470  0.84230  0.07720  Biso   1.000  C
  C36      1.0000 0.38530  0.34230  0.42280  Biso   1.000  C
  H25      1.0000 0.37880  0.18210  0.89310  Biso   1.000  H
  H26      1.0000 0.62120  0.68210  0.60690  Biso   1.000  H
  H27      1.0000 0.62120  0.81790  0.10690  Biso   1.000  H
  H28      1.0000 0.37880  0.31790  0.39310  Biso   1.000  H
  C37      1.0000 0.30210  0.11890  0.94460  Biso   1.000  C
  C38      1.0000 0.69790  0.61890  0.55540  Biso   1.000  C
  C39      1.0000 0.69790  0.88110  0.05540  Biso   1.000  C
  C40      1.0000 0.30210  0.38110  0.44460  Biso   1.000  C
  H29      1.0000 0.23630  0.11970  0.92930  Biso   1.000  H
  H30      1.0000 0.76370  0.61970  0.57070  Biso   1.000  H
  H31      1.0000 0.76370  0.88030  0.07070  Biso   1.000  H
  H32      1.0000 0.23630  0.38030  0.42930  Biso   1.000  H
  C41      1.0000 0.99860  0.97400  0.02270  Biso   1.000  C
  C42      1.0000 0.00140  0.47400  0.47730  Biso   1.000  C
  C43      1.0000 0.00140  0.02600  0.97730  Biso   1.000  C
  C44      1.0000 0.99860  0.52600  0.52270  Biso   1.000  C
  C45      1.0000 0.70900  0.47540  0.88380  Biso   1.000  C
  C46      1.0000 0.29100  0.97540  0.61620  Biso   1.000  C
  C47      1.0000 0.29100  0.52460  0.11620  Biso   1.000  C
  C48      1.0000 0.70900  0.02460  0.38380  Biso   1.000  C
  H33      1.0000 0.77530  0.45700  0.87680  Biso   1.000  H
  H34      1.0000 0.22470  0.95700  0.62320  Biso   1.000  H
  H35      1.0000 0.22470  0.54300  0.12320  Biso   1.000  H
  H36      1.0000 0.77530  0.04300  0.37680  Biso   1.000  H
  C49      1.0000 0.63110  0.46860  0.84910  Biso   1.000  C
  C50      1.0000 0.36890  0.96860  0.65090  Biso   1.000  C
  C51      1.0000 0.36890  0.53140  0.15090  Biso   1.000  C
  C52      1.0000 0.63110  0.03140  0.34910  Biso   1.000  C
  H37      1.0000 0.64340  0.44420  0.81980  Biso   1.000  H
  H38      1.0000 0.35660  0.94420  0.68020  Biso   1.000  H
  H39      1.0000 0.35660  0.55580  0.18020  Biso   1.000  H
  H40      1.0000 0.64340  0.05580  0.31980  Biso   1.000  H
  C53      1.0000 0.53680  0.49730  0.85810  Biso   1.000  C
  C54      1.0000 0.46320  0.99730  0.64190  Biso   1.000  C
  C55      1.0000 0.46320  0.50270  0.14190  Biso   1.000  C
  C56      1.0000 0.53680  0.00270  0.35810  Biso   1.000  C
  H41      1.0000 0.48220  0.49280  0.83530  Biso   1.000  H
  H42      1.0000 0.51780  0.99280  0.66470  Biso   1.000  H
  H43      1.0000 0.51780  0.50720  0.16470  Biso   1.000  H
  H44      1.0000 0.48220  0.00720  0.33530  Biso   1.000  H
  C57      1.0000 0.52230  0.53220  0.89970  Biso   1.000  C
  C58      1.0000 0.47770  0.03220  0.60030  Biso   1.000  C
  C59      1.0000 0.47770  0.46780  0.10030  Biso   1.000  C
  C60      1.0000 0.52230  0.96780  0.39970  Biso   1.000  C
  H45      1.0000 0.45700  0.55310  0.90530  Biso   1.000  H
  H46      1.0000 0.54300  0.05310  0.59470  Biso   1.000  H
  H47      1.0000 0.54300  0.44690  0.09470  Biso   1.000  H
  H48      1.0000 0.45700  0.94690  0.40530  Biso   1.000  H
  C61      1.0000 0.59880  0.53900  0.93490  Biso   1.000  C
  C62      1.0000 0.40120  0.03900  0.56510  Biso   1.000  C
  C63      1.0000 0.40120  0.46100  0.06510  Biso   1.000  C
  C64      1.0000 0.59880  0.96100  0.43490  Biso   1.000  C
  C65      1.0000 0.59310  0.57370  0.98340  Biso   1.000  C
  C66      1.0000 0.40690  0.07370  0.51660  Biso   1.000  C
  C67      1.0000 0.40690  0.42630  0.01660  Biso   1.000  C
  C68      1.0000 0.59310  0.92630  0.48340  Biso   1.000  C
  C69      1.0000 0.50540  0.60750  0.00210  Biso   1.000  C
  C70      1.0000 0.49460  0.10750  0.49790  Biso   1.000  C
  C71      1.0000 0.49460  0.39250  0.99790  Biso   1.000  C
  C72      1.0000 0.50540  0.89250  0.50210  Biso   1.000  C
  H49      1.0000 0.44300  0.60850  0.98390  Biso   1.000  H
  H50      1.0000 0.55700  0.10850  0.51610  Biso   1.000  H
  H51      1.0000 0.55700  0.39150  0.01610  Biso   1.000  H
  H52      1.0000 0.44300  0.89150  0.48390  Biso   1.000  H
  C73      1.0000 0.51010  0.63810  0.04550  Biso   1.000  C
  C74      1.0000 0.48990  0.13810  0.45450  Biso   1.000  C
  C75      1.0000 0.48990  0.36190  0.95450  Biso   1.000  C
  C76      1.0000 0.51010  0.86190  0.54550  Biso   1.000  C
  H53      1.0000 0.45100  0.66200  0.05710  Biso   1.000  H
  H54      1.0000 0.54900  0.16200  0.44290  Biso   1.000  H
  H55      1.0000 0.54900  0.33800  0.94290  Biso   1.000  H
  H56      1.0000 0.45100  0.83800  0.55710  Biso   1.000  H
  C77      1.0000 0.59770  0.63640  0.07410  Biso   1.000  C
  C78      1.0000 0.40230  0.13640  0.42590  Biso   1.000  C
  C79      1.0000 0.40230  0.36360  0.92590  Biso   1.000  C
  C80      1.0000 0.59770  0.86360  0.57410  Biso   1.000  C
  H57      1.0000 0.59980  0.65920  0.10460  Biso   1.000  H
  H58      1.0000 0.40020  0.15920  0.39540  Biso   1.000  H
  H59      1.0000 0.40020  0.34080  0.89540  Biso   1.000  H
  H60      1.0000 0.59980  0.84080  0.60460  Biso   1.000  H
  C81      1.0000 0.68270  0.60020  0.05680  Biso   1.000  C
  C82      1.0000 0.31730  0.10020  0.44320  Biso   1.000  C
  C83      1.0000 0.31730  0.39980  0.94320  Biso   1.000  C
  C84      1.0000 0.68270  0.89980  0.55680  Biso   1.000  C
  H61      1.0000 0.74250  0.59640  0.07660  Biso   1.000  H
  H62      1.0000 0.25750  0.09640  0.42340  Biso   1.000  H
  H63      1.0000 0.25750  0.40360  0.92340  Biso   1.000  H
  H64      1.0000 0.74250  0.90360  0.57660  Biso   1.000  H
  C85      1.0000 0.00460  0.47910  0.97620  Biso   1.000  C
  C86      1.0000 0.99540  0.97910  0.52380  Biso   1.000  C
  C87      1.0000 0.99540  0.52090  0.02380  Biso   1.000  C
  C88      1.0000 0.00460  0.02090  0.47620  Biso   1.000  C
  N1       1.0000 0.30680  0.00560  0.06550  Biso   1.000  N
  N2       1.0000 0.69320  0.50560  0.43450  Biso   1.000  N
  N3       1.0000 0.69320  0.99440  0.93450  Biso   1.000  N
  N4       1.0000 0.30680  0.49440  0.56550  Biso   1.000  N
  N5       1.0000 0.31290  0.08330  0.98370  Biso   1.000  N
  N6       1.0000 0.68710  0.58330  0.51630  Biso   1.000  N
  N7       1.0000 0.68710  0.91670  0.01630  Biso   1.000  N
  N8       1.0000 0.31290  0.41670  0.48370  Biso   1.000  N
  N9       1.0000 0.69470  0.50640  0.92570  Biso   1.000  N
  N10      1.0000 0.30530  0.00640  0.57430  Biso   1.000  N
  N11      1.0000 0.30530  0.49360  0.07430  Biso   1.000  N
  N12      1.0000 0.69470  0.99360  0.42570  Biso   1.000  N
  N13      1.0000 0.68250  0.56940  0.01130  Biso   1.000  N
  N14      1.0000 0.31750  0.06940  0.48870  Biso   1.000  N
  N15      1.0000 0.31750  0.43060  0.98870  Biso   1.000  N
  N16      1.0000 0.68250  0.93060  0.51130  Biso   1.000  N
  O1       1.0000 0.14060  0.12530  0.06890  Biso   1.000  O
  O2       1.0000 0.85940  0.62530  0.43110  Biso   1.000  O
  O3       1.0000 0.85940  0.87470  0.93110  Biso   1.000  O
  O4       1.0000 0.14060  0.37470  0.56890  Biso   1.000  O
  O5       1.0000 0.80330  0.97280  0.14780  Biso   1.000  O
  O6       1.0000 0.19670  0.47280  0.35220  Biso   1.000  O
  O7       1.0000 0.19670  0.02720  0.85220  Biso   1.000  O
  O8       1.0000 0.80330  0.52720  0.64780  Biso   1.000  O
  O9       1.0000 0.74600  0.14160  0.98220  Biso   1.000  O
  O10      1.0000 0.25400  0.64160  0.51780  Biso   1.000  O
  O11      1.0000 0.25400  0.85840  0.01780  Biso   1.000  O
  O12      1.0000 0.74600  0.35840  0.48220  Biso   1.000  O
  O13      1.0000 0.20640  0.23250  0.23160  Biso   1.000  O
  O14      1.0000 0.79360  0.73250  0.26840  Biso   1.000  O
  O15      1.0000 0.79360  0.76750  0.76840  Biso   1.000  O
  O16      1.0000 0.20640  0.26750  0.73160  Biso   1.000  O
  O17      1.0000 0.86900  0.08340  0.30810  Biso   1.000  O
  O18      1.0000 0.13100  0.58340  0.19190  Biso   1.000  O
  O19      1.0000 0.13100  0.91660  0.69190  Biso   1.000  O
  O20      1.0000 0.86900  0.41660  0.80810  Biso   1.000  O
  O21      1.0000 0.51540  0.09540  0.23250  Biso   1.000  O
  O22      1.0000 0.48460  0.59540  0.26750  Biso   1.000  O
  O23      1.0000 0.48460  0.90460  0.76750  Biso   1.000  O
  O24      1.0000 0.51540  0.40460  0.73250  Biso   1.000  O
  O25      1.0000 0.45730  0.26150  0.06490  Biso   1.000  O
  O26      1.0000 0.54270  0.76150  0.43510  Biso   1.000  O
  O27      1.0000 0.54270  0.73850  0.93510  Biso   1.000  O
  O28      1.0000 0.45730  0.23850  0.56490  Biso   1.000  O
  O29      1.0000 0.75170  0.39810  0.99790  Biso   1.000  O
  O30      1.0000 0.24830  0.89810  0.50210  Biso   1.000  O
  O31      1.0000 0.24830  0.60190  0.00210  Biso   1.000  O
  O32      1.0000 0.75170  0.10190  0.49790  Biso   1.000  O
  O33      1.0000 0.14820  0.37990  0.08260  Biso   1.000  O
  O34      1.0000 0.85180  0.87990  0.41740  Biso   1.000  O
  O35      1.0000 0.85180  0.62010  0.91740  Biso   1.000  O
  O36      1.0000 0.14820  0.12010  0.58260  Biso   1.000  O
  O37      1.0000 0.86940  0.37410  0.32580  Biso   1.000  O
  O38      1.0000 0.13060  0.87410  0.17420  Biso   1.000  O
  O39      1.0000 0.13060  0.62590  0.67420  Biso   1.000  O
  O40      1.0000 0.86940  0.12590  0.82580  Biso   1.000  O
  O41      1.0000 0.52320  0.38860  0.24740  Biso   1.000  O
  O42      1.0000 0.47680  0.88860  0.25260  Biso   1.000  O
  O43      1.0000 0.47680  0.61140  0.75260  Biso   1.000  O
  O44      1.0000 0.52320  0.11140  0.74740  Biso   1.000  O
  O45      1.0000 0.82190  0.52110  0.17790  Biso   1.000  O
  O46      1.0000 0.17810  0.02110  0.32210  Biso   1.000  O
  O47      1.0000 0.17810  0.47890  0.82210  Biso   1.000  O
  O48      1.0000 0.82190  0.97890  0.67790  Biso   1.000  O
  O49      1.0000 0.95830  0.06670  0.11710  Biso   1.000  O
  O50      1.0000 0.04170  0.56670  0.38290  Biso   1.000  O
  O51      1.0000 0.04170  0.93330  0.88290  Biso   1.000  O
  O52      1.0000 0.95830  0.43330  0.61710  Biso   1.000  O
  O53      1.0000 0.76930  0.07340  0.07310  Biso   1.000  O
  O54      1.0000 0.23070  0.57340  0.42690  Biso   1.000  O
  O55      1.0000 0.23070  0.92660  0.92690  Biso   1.000  O
  O56      1.0000 0.76930  0.42660  0.57310  Biso   1.000  O
  O57      1.0000 0.93010  0.14560  0.03590  Biso   1.000  O
  O58      1.0000 0.06990  0.64560  0.46410  Biso   1.000  O
  O59      1.0000 0.06990  0.85440  0.96410  Biso   1.000  O
  O60      1.0000 0.93010  0.35440  0.53590  Biso   1.000  O
  O61      1.0000 0.06300  0.17430  0.16080  Biso   1.000  O
  O62      1.0000 0.93700  0.67430  0.33920  Biso   1.000  O
  O63      1.0000 0.93700  0.82570  0.83920  Biso   1.000  O
  O64      1.0000 0.06300  0.32570  0.66080  Biso   1.000  O
  O65      1.0000 0.86960  0.08910  0.20360  Biso   1.000  O
  O66      1.0000 0.13040  0.58910  0.29640  Biso   1.000  O
  O67      1.0000 0.13040  0.91090  0.79640  Biso   1.000  O
  O68      1.0000 0.86960  0.41090  0.70360  Biso   1.000  O
  O69      1.0000 0.68340  0.09510  0.16230  Biso   1.000  O
  O70      1.0000 0.31660  0.59510  0.33770  Biso   1.000  O
  O71      1.0000 0.31660  0.90490  0.83770  Biso   1.000  O
  O72      1.0000 0.68340  0.40490  0.66230  Biso   1.000  O
  O73      1.0000 0.65110  0.19060  0.06880  Biso   1.000  O
  O74      1.0000 0.34890  0.69060  0.43120  Biso   1.000  O
  O75      1.0000 0.34890  0.80940  0.93120  Biso   1.000  O
  O76      1.0000 0.65110  0.30940  0.56880  Biso   1.000  O
  O77      1.0000 0.80890  0.26290  0.03170  Biso   1.000  O
  O78      1.0000 0.19110  0.76290  0.46830  Biso   1.000  O
  O79      1.0000 0.19110  0.73710  0.96830  Biso   1.000  O
  O80      1.0000 0.80890  0.23710  0.53170  Biso   1.000  O
  O81      1.0000 0.03000  0.25470  0.08150  Biso   1.000  O
  O82      1.0000 0.97000  0.75470  0.41850  Biso   1.000  O
  O83      1.0000 0.97000  0.74530  0.91850  Biso   1.000  O
  O84      1.0000 0.03000  0.24530  0.58150  Biso   1.000  O
  O85      1.0000 0.01360  0.16230  0.25830  Biso   1.000  O
  O86      1.0000 0.98640  0.66230  0.24170  Biso   1.000  O
  O87      1.0000 0.98640  0.83770  0.74170  Biso   1.000  O
  O88      1.0000 0.01360  0.33770  0.75830  Biso   1.000  O
  O89      1.0000 0.71490  0.15460  0.25000  Biso   1.000  O
  O90      1.0000 0.28510  0.65460  0.25000  Biso   1.000  O
  O91      1.0000 0.28510  0.84540  0.75000  Biso   1.000  O
  O92      1.0000 0.71490  0.34540  0.75000  Biso   1.000  O
  O93      1.0000 0.52130  0.18020  0.14690  Biso   1.000  O
  O94      1.0000 0.47870  0.68020  0.35310  Biso   1.000  O
  O95      1.0000 0.47870  0.81980  0.85310  Biso   1.000  O
  O96      1.0000 0.52130  0.31980  0.64690  Biso   1.000  O
  O97      1.0000 0.65610  0.32880  0.07700  Biso   1.000  O
  O98      1.0000 0.34390  0.82880  0.42300  Biso   1.000  O
  O99      1.0000 0.34390  0.67120  0.92300  Biso   1.000  O
  O100     1.0000 0.65610  0.17120  0.57700  Biso   1.000  O
  O101     1.0000 0.93710  0.37370  0.04960  Biso   1.000  O
  O102     1.0000 0.06290  0.87370  0.45040  Biso   1.000  O
  O103     1.0000 0.06290  0.62630  0.95040  Biso   1.000  O
  O104     1.0000 0.93710  0.12630  0.54960  Biso   1.000  O
  O105     1.0000 0.06740  0.31520  0.16840  Biso   1.000  O
  O106     1.0000 0.93260  0.81520  0.33160  Biso   1.000  O
  O107     1.0000 0.93260  0.68480  0.83160  Biso   1.000  O
  O108     1.0000 0.06740  0.18480  0.66840  Biso   1.000  O
  O109     1.0000 0.01410  0.30480  0.26700  Biso   1.000  O
  O110     1.0000 0.98590  0.80480  0.23300  Biso   1.000  O
  O111     1.0000 0.98590  0.69520  0.73300  Biso   1.000  O
  O112     1.0000 0.01410  0.19520  0.76700  Biso   1.000  O
  O113     1.0000 0.85360  0.22820  0.30350  Biso   1.000  O
  O114     1.0000 0.14640  0.72820  0.19650  Biso   1.000  O
  O115     1.0000 0.14640  0.77180  0.69650  Biso   1.000  O
  O116     1.0000 0.85360  0.27180  0.80350  Biso   1.000  O
  O117     1.0000 0.55180  0.24140  0.23500  Biso   1.000  O
  O118     1.0000 0.44820  0.74140  0.26500  Biso   1.000  O
  O119     1.0000 0.44820  0.75860  0.76500  Biso   1.000  O
  O120     1.0000 0.55180  0.25860  0.73500  Biso   1.000  O
  O121     1.0000 0.52230  0.32150  0.15510  Biso   1.000  O
  O122     1.0000 0.47770  0.82150  0.34490  Biso   1.000  O
  O123     1.0000 0.47770  0.67850  0.84490  Biso   1.000  O
  O124     1.0000 0.52230  0.17850  0.65510  Biso   1.000  O
  O125     1.0000 0.77700  0.43970  0.09550  Biso   1.000  O
  O126     1.0000 0.22300  0.93970  0.40450  Biso   1.000  O
  O127     1.0000 0.22300  0.56030  0.90450  Biso   1.000  O
  O128     1.0000 0.77700  0.06030  0.59550  Biso   1.000  O
  O129     1.0000 0.96860  0.43350  0.13800  Biso   1.000  O
  O130     1.0000 0.03140  0.93350  0.36200  Biso   1.000  O
  O131     1.0000 0.03140  0.56650  0.86200  Biso   1.000  O
  O132     1.0000 0.96860  0.06650  0.63800  Biso   1.000  O
  O133     1.0000 0.71610  0.32160  0.25970  Biso   1.000  O
  O134     1.0000 0.28390  0.82160  0.24030  Biso   1.000  O
  O135     1.0000 0.28390  0.67840  0.74030  Biso   1.000  O
  O136     1.0000 0.71610  0.17840  0.75970  Biso   1.000  O
  O137     1.0000 0.68880  0.40110  0.18140  Biso   1.000  O
  O138     1.0000 0.31120  0.90110  0.31860  Biso   1.000  O
  O139     1.0000 0.31120  0.59890  0.81860  Biso   1.000  O
  O140     1.0000 0.68880  0.09890  0.68140  Biso   1.000  O
  O141     1.0000 0.87600  0.39160  0.22320  Biso   1.000  O
  O142     1.0000 0.12400  0.89160  0.27680  Biso   1.000  O
  O143     1.0000 0.12400  0.60840  0.77680  Biso   1.000  O
  O144     1.0000 0.87600  0.10840  0.72320  Biso   1.000  O
  O145     1.0000 0.85000  0.18220  0.11970  Biso   1.000  O
  O146     1.0000 0.15000  0.68220  0.38030  Biso   1.000  O
  O147     1.0000 0.15000  0.81780  0.88030  Biso   1.000  O
  O148     1.0000 0.85000  0.31780  0.61970  Biso   1.000  O
  O149     1.0000 0.87950  0.24170  0.21030  Biso   1.000  O
  O150     1.0000 0.12050  0.74170  0.28970  Biso   1.000  O
  O151     1.0000 0.12050  0.75830  0.78970  Biso   1.000  O
  O152     1.0000 0.87950  0.25830  0.71030  Biso   1.000  O
  Cu1      1.0000 0.19496  0.03021  0.01743  Biso   1.000  Cu
  Cu2      1.0000 0.80504  0.53021  0.48257  Biso   1.000  Cu
  Cu3      1.0000 0.80504  0.96979  0.98257  Biso   1.000  Cu
  Cu4      1.0000 0.19496  0.46979  0.51743  Biso   1.000  Cu
  Cu5      1.0000 0.80368  0.52331  0.97804  Biso   1.000  Cu
  Cu6      1.0000 0.19632  0.02331  0.52196  Biso   1.000  Cu
  Cu7      1.0000 0.19632  0.47669  0.02196  Biso   1.000  Cu
  Cu8      1.0000 0.80368  0.97669  0.47804  Biso   1.000  Cu
  Cu9      1.0000 0.06161  0.23861  0.21581  Biso   1.000  Cu
  Cu10     1.0000 0.93839  0.73861  0.28419  Biso   1.000  Cu
  Cu11     1.0000 0.93839  0.76139  0.78419  Biso   1.000  Cu
  Cu12     1.0000 0.06161  0.26139  0.71581  Biso   1.000  Cu
  Rb1      1.0000 0.95030  0.17787  0.92317  Biso   1.000  Rb
  Rb2      1.0000 0.04970  0.67787  0.57683  Biso   1.000  Rb
  Rb3      1.0000 0.04970  0.82213  0.07683  Biso   1.000  Rb
  Rb4      1.0000 0.95030  0.32213  0.42317  Biso   1.000  Rb
  Rb5      1.0000 0.03420  0.12297  0.37466  Biso   1.000  Rb
  Rb6      1.0000 0.96580  0.62297  0.12534  Biso   1.000  Rb
  Rb7      1.0000 0.96580  0.87703  0.62534  Biso   1.000  Rb
  Rb8      1.0000 0.03420  0.37703  0.87466  Biso   1.000  Rb
  O153     1.0000 0.68970  0.24770  0.16580  Biso   1.000  O
  O154     1.0000 0.31030  0.74770  0.33420  Biso   1.000  O
  O155     1.0000 0.31030  0.75230  0.83420  Biso   1.000  O
  O156     1.0000 0.68970  0.25230  0.66580  Biso   1.000  O
  O157     1.0000 0.85200  0.32340  0.12930  Biso   1.000  O
  O158     1.0000 0.14800  0.82340  0.37070  Biso   1.000  O
  O159     1.0000 0.14800  0.67660  0.87070  Biso   1.000  O
  O160     1.0000 0.85200  0.17660  0.62930  Biso   1.000  O
  O161     1.0000 0.08420  0.96960  0.04630  Biso   1.000  O
  O162     1.0000 0.91580  0.46960  0.45370  Biso   1.000  O
  O163     1.0000 0.91580  0.03040  0.95370  Biso   1.000  O
  O164     1.0000 0.08420  0.53040  0.54630  Biso   1.000  O
  O165     1.0000 0.08460  0.05620  0.96780  Biso   1.000  O
  O166     1.0000 0.91540  0.55620  0.53220  Biso   1.000  O
  O167     1.0000 0.91540  0.94380  0.03220  Biso   1.000  O
  O168     1.0000 0.08460  0.44380  0.46780  Biso   1.000  O
  O169     1.0000 0.92580  0.47140  0.94980  Biso   1.000  O
  O170     1.0000 0.07420  0.97140  0.55020  Biso   1.000  O
  O171     1.0000 0.07420  0.52860  0.05020  Biso   1.000  O
  O172     1.0000 0.92580  0.02860  0.44980  Biso   1.000  O
  O173     1.0000 0.90330  0.54650  0.03080  Biso   1.000  O
  O174     1.0000 0.09670  0.04650  0.46920  Biso   1.000  O
  O175     1.0000 0.09670  0.45350  0.96920  Biso   1.000  O
  O176     1.0000 0.90330  0.95350  0.53080  Biso   1.000  O
  O177     1.0000 0.83320  0.30890  0.91260  Biso   1.000  O
  O178     1.0000 0.16680  0.80890  0.58740  Biso   1.000  O
  O179     1.0000 0.16680  0.69110  0.08740  Biso   1.000  O
  O180     1.0000 0.83320  0.19110  0.41260  Biso   1.000  O
  O181     1.0000 0.06300  0.28400  0.96840  Biso   1.000  O
  O182     1.0000 0.93700  0.78400  0.53160  Biso   1.000  O
  O183     1.0000 0.93700  0.71600  0.03160  Biso   1.000  O
  O184     1.0000 0.06300  0.21600  0.46840  Biso   1.000  O
  O185     1.0000 0.25190  0.25180  0.02480  Biso   1.000  O
  O186     1.0000 0.74810  0.75180  0.47520  Biso   1.000  O
  O187     1.0000 0.74810  0.74820  0.97520  Biso   1.000  O
  O188     1.0000 0.25190  0.24820  0.52480  Biso   1.000  O
  O189     1.0000 0.63680  0.23410  0.35420  Biso   1.000  O
  O190     1.0000 0.36320  0.73410  0.14580  Biso   1.000  O
  O191     1.0000 0.36320  0.76590  0.64580  Biso   1.000  O
  O192     1.0000 0.63680  0.26590  0.85420  Biso   1.000  O
  O193     1.0000 0.12000  0.17900  0.85180  Biso   1.000  O
  O194     1.0000 0.88000  0.67900  0.64820  Biso   1.000  O
  O195     1.0000 0.88000  0.82100  0.14820  Biso   1.000  O
  O196     1.0000 0.12000  0.32100  0.35180  Biso   1.000  O
  O197     1.0000 0.41600  0.26040  0.81540  Biso   1.000  O
  O198     1.0000 0.58400  0.76040  0.68460  Biso   1.000  O
  O199     1.0000 0.58400  0.73960  0.18460  Biso   1.000  O
  O200     1.0000 0.41600  0.23960  0.31540  Biso   1.000  O
  O201     1.0000 0.30000  0.16240  0.14850  Biso   1.000  O
  O202     1.0000 0.70000  0.66240  0.35150  Biso   1.000  O
  O203     1.0000 0.70000  0.83760  0.85150  Biso   1.000  O
  O204     1.0000 0.30000  0.33760  0.64850  Biso   1.000  O
  Si1      1.0000 0.81860  0.24770  0.15612  Biso   1.000  Si
  Si2      1.0000 0.18140  0.74770  0.34388  Biso   1.000  Si
  Si3      1.0000 0.18140  0.75230  0.84388  Biso   1.000  Si
  Si4      1.0000 0.81860  0.25230  0.65612  Biso   1.000  Si
  Rb9      1.0000 0.30150  0.33160  0.16120  Biso   1.000  Rb
  Rb10     1.0000 0.69850  0.83160  0.33880  Biso   1.000  Rb
  Rb11     1.0000 0.69850  0.66840  0.83880  Biso   1.000  Rb
  Rb12     1.0000 0.30150  0.16840  0.66120  Biso   1.000  Rb
  Rb13     1.0000 0.70360  0.88270  0.23180  Biso   1.000  Rb
  Rb14     1.0000 0.29640  0.38270  0.26820  Biso   1.000  Rb
  Rb15     1.0000 0.29640  0.11730  0.76820  Biso   1.000  Rb
  Rb16     1.0000 0.70360  0.61730  0.73180  Biso   1.000  Rb
  Rb17     1.0000 0.89130  0.94290  0.26520  Biso   1.000  Rb
  Rb18     1.0000 0.10870  0.44290  0.23480  Biso   1.000  Rb
  Rb19     1.0000 0.10870  0.05710  0.73480  Biso   1.000  Rb
  Rb20     1.0000 0.89130  0.55710  0.76520  Biso   1.000  Rb
  Rb21     1.0000 0.09010  0.02578  0.20766  Biso   1.000  Rb
  Rb22     1.0000 0.90990  0.52578  0.29234  Biso   1.000  Rb
  Rb23     1.0000 0.90990  0.97422  0.79234  Biso   1.000  Rb
  Rb24     1.0000 0.09010  0.47422  0.70766  Biso   1.000  Rb
  Rb25     1.0000 0.28330  0.09240  0.24020  Biso   1.000  Rb
  Rb26     1.0000 0.71670  0.59240  0.25980  Biso   1.000  Rb
  Rb27     1.0000 0.71670  0.90760  0.75980  Biso   1.000  Rb
  Rb28     1.0000 0.28330  0.40760  0.74020  Biso   1.000  Rb
  W1       1.0000 0.02165  0.15657  0.09572  Biso   1.000  W
  W2       1.0000 0.97835  0.65657  0.40428  Biso   1.000  W
  W3       1.0000 0.97835  0.84343  0.90428  Biso   1.000  W
  W4       1.0000 0.02165  0.34343  0.59572  Biso   1.000  W
  W5       1.0000 0.81694  0.06253  0.13988  Biso   1.000  W
  W6       1.0000 0.18306  0.56253  0.36012  Biso   1.000  W
  W7       1.0000 0.18306  0.93747  0.86012  Biso   1.000  W
  W8       1.0000 0.81694  0.43747  0.63988  Biso   1.000  W
  W9       1.0000 0.78471  0.16397  0.04053  Biso   1.000  W
  W10      1.0000 0.21529  0.66397  0.45947  Biso   1.000  W
  W11      1.0000 0.21529  0.83603  0.95947  Biso   1.000  W
  W12      1.0000 0.78471  0.33603  0.54053  Biso   1.000  W
  W13      1.0000 0.86713  0.14689  0.26206  Biso   1.000  W
  W14      1.0000 0.13287  0.64689  0.23794  Biso   1.000  W
  W15      1.0000 0.13287  0.85311  0.73794  Biso   1.000  W
  W16      1.0000 0.86713  0.35311  0.76206  Biso   1.000  W
  W17      1.0000 0.60092  0.15544  0.20531  Biso   1.000  W
  W18      1.0000 0.39908  0.65544  0.29469  Biso   1.000  W
  W19      1.0000 0.39908  0.84456  0.79469  Biso   1.000  W
  W20      1.0000 0.60092  0.34456  0.70531  Biso   1.000  W
  W21      1.0000 0.56588  0.25618  0.10407  Biso   1.000  W
  W22      1.0000 0.43412  0.75618  0.39593  Biso   1.000  W
  W23      1.0000 0.43412  0.74382  0.89593  Biso   1.000  W
  W24      1.0000 0.56588  0.24382  0.60407  Biso   1.000  W
  W25      1.0000 0.79062  0.35894  0.05294  Biso   1.000  W
  W26      1.0000 0.20938  0.85894  0.44706  Biso   1.000  W
  W27      1.0000 0.20938  0.64106  0.94706  Biso   1.000  W
  W28      1.0000 0.79062  0.14106  0.55294  Biso   1.000  W
  W29      1.0000 0.02634  0.34892  0.10721  Biso   1.000  W
  W30      1.0000 0.97366  0.84892  0.39279  Biso   1.000  W
  W31      1.0000 0.97366  0.65108  0.89279  Biso   1.000  W
  W32      1.0000 0.02634  0.15108  0.60721  Biso   1.000  W
  W33      1.0000 0.86897  0.32168  0.27355  Biso   1.000  W
  W34      1.0000 0.13103  0.82168  0.22645  Biso   1.000  W
  W35      1.0000 0.13103  0.67832  0.72645  Biso   1.000  W
  W36      1.0000 0.86897  0.17832  0.77355  Biso   1.000  W
  W37      1.0000 0.60562  0.33356  0.21477  Biso   1.000  W
  W38      1.0000 0.39438  0.83356  0.28523  Biso   1.000  W
  W39      1.0000 0.39438  0.66644  0.78523  Biso   1.000  W
  W40      1.0000 0.60562  0.16644  0.71477  Biso   1.000  W
  W41      1.0000 0.82841  0.43421  0.16197  Biso   1.000  W
  W42      1.0000 0.17159  0.93421  0.33803  Biso   1.000  W
  W43      1.0000 0.17159  0.56579  0.83803  Biso   1.000  W
  W44      1.0000 0.82841  0.06579  0.66197  Biso   1.000  W
