data_image0
_cell_length_a       12.6937
_cell_length_b       18.935
_cell_length_c       26.934
_cell_angle_alpha    90
_cell_angle_beta     90.194
_cell_angle_gamma    90

_symmetry_space_group_name_H-M    "P 1"
_symmetry_int_tables_number       1

loop_
  _symmetry_equiv_pos_as_xyz
  'x, y, z'

loop_
  _atom_site_label
  _atom_site_occupancy
  _atom_site_fract_x
  _atom_site_fract_y
  _atom_site_fract_z
  _atom_site_thermal_displace_type
  _atom_site_B_iso_or_equiv
  _atom_site_type_symbol
  C1       1.0000 0.30060  0.96760  0.10550  Biso   1.000  C
  C2       1.0000 0.69940  0.46760  0.39450  Biso   1.000  C
  C3       1.0000 0.69940  0.03240  0.89450  Biso   1.000  C
  C4       1.0000 0.30060  0.53240  0.60550  Biso   1.000  C
  H1       1.0000 0.23620  0.94560  0.11100  Biso   1.000  H
  H2       1.0000 0.76380  0.44560  0.38900  Biso   1.000  H
  H3       1.0000 0.76380  0.05440  0.88900  Biso   1.000  H
  H4       1.0000 0.23620  0.55440  0.61100  Biso   1.000  H
  C5       1.0000 0.37870  0.95600  0.13940  Biso   1.000  C
  C6       1.0000 0.62130  0.45600  0.36060  Biso   1.000  C
  C7       1.0000 0.62130  0.04400  0.86060  Biso   1.000  C
  C8       1.0000 0.37870  0.54400  0.63940  Biso   1.000  C
  H5       1.0000 0.36910  0.92680  0.16680  Biso   1.000  H
  H6       1.0000 0.63090  0.42680  0.33320  Biso   1.000  H
  H7       1.0000 0.63090  0.07320  0.83320  Biso   1.000  H
  H8       1.0000 0.36910  0.57320  0.66680  Biso   1.000  H
  C9       1.0000 0.46890  0.98880  0.13100  Biso   1.000  C
  C10      1.0000 0.53110  0.48880  0.36900  Biso   1.000  C
  C11      1.0000 0.53110  0.01120  0.86900  Biso   1.000  C
  C12      1.0000 0.46890  0.51120  0.63100  Biso   1.000  C
  H9       1.0000 0.52380  0.98420  0.15370  Biso   1.000  H
  H10      1.0000 0.47620  0.48420  0.34630  Biso   1.000  H
  H11      1.0000 0.47620  0.01580  0.84630  Biso   1.000  H
  H12      1.0000 0.52380  0.51580  0.65370  Biso   1.000  H
  C13      1.0000 0.48300  0.02950  0.08940  Biso   1.000  C
  C14      1.0000 0.51700  0.52950  0.41060  Biso   1.000  C
  C15      1.0000 0.51700  0.97050  0.91060  Biso   1.000  C
  C16      1.0000 0.48300  0.47050  0.58940  Biso   1.000  C
  H13      1.0000 0.54760  0.05100  0.08350  Biso   1.000  H
  H14      1.0000 0.45240  0.55100  0.41650  Biso   1.000  H
  H15      1.0000 0.45240  0.94900  0.91650  Biso   1.000  H
  H16      1.0000 0.54760  0.44900  0.58350  Biso   1.000  H
  C17      1.0000 0.39990  0.03820  0.05620  Biso   1.000  C
  C18      1.0000 0.60010  0.53820  0.44380  Biso   1.000  C
  C19      1.0000 0.60010  0.96180  0.94380  Biso   1.000  C
  C20      1.0000 0.39990  0.46180  0.55620  Biso   1.000  C
  C21      1.0000 0.40410  0.07940  0.01150  Biso   1.000  C
  C22      1.0000 0.59590  0.57940  0.48850  Biso   1.000  C
  C23      1.0000 0.59590  0.92060  0.98850  Biso   1.000  C
  C24      1.0000 0.40410  0.42060  0.51150  Biso   1.000  C
  C25      1.0000 0.48670  0.11440  0.99280  Biso   1.000  C
  C26      1.0000 0.51330  0.61440  0.50720  Biso   1.000  C
  C27      1.0000 0.51330  0.88560  0.00720  Biso   1.000  C
  C28      1.0000 0.48670  0.38560  0.49280  Biso   1.000  C
  H17      1.0000 0.55140  0.11310  0.00910  Biso   1.000  H
  H18      1.0000 0.44860  0.61310  0.49090  Biso   1.000  H
  H19      1.0000 0.44860  0.88690  0.99090  Biso   1.000  H
  H20      1.0000 0.55140  0.38690  0.50910  Biso   1.000  H
  C29      1.0000 0.47560  0.15220  0.94970  Biso   1.000  C
  C30      1.0000 0.52440  0.65220  0.55030  Biso   1.000  C
  C31      1.0000 0.52440  0.84780  0.05030  Biso   1.000  C
  C32      1.0000 0.47560  0.34780  0.44970  Biso   1.000  C
  H21      1.0000 0.53380  0.17710  0.93830  Biso   1.000  H
  H22      1.0000 0.46620  0.67710  0.56170  Biso   1.000  H
  H23      1.0000 0.46620  0.82290  0.06170  Biso   1.000  H
  H24      1.0000 0.53380  0.32290  0.43830  Biso   1.000  H
  C33      1.0000 0.38680  0.15550  0.92300  Biso   1.000  C
  C34      1.0000 0.61320  0.65550  0.57700  Biso   1.000  C
  C35      1.0000 0.61320  0.84450  0.07700  Biso   1.000  C
  C36      1.0000 0.38680  0.34450  0.42300  Biso   1.000  C
  H25      1.0000 0.38150  0.18120  0.89370  Biso   1.000  H
  H26      1.0000 0.61850  0.68120  0.60630  Biso   1.000  H
  H27      1.0000 0.61850  0.81880  0.10630  Biso   1.000  H
  H28      1.0000 0.38150  0.31880  0.39370  Biso   1.000  H
  C37      1.0000 0.30280  0.11750  0.94280  Biso   1.000  C
  C38      1.0000 0.69720  0.61750  0.55720  Biso   1.000  C
  C39      1.0000 0.69720  0.88250  0.05720  Biso   1.000  C
  C40      1.0000 0.30280  0.38250  0.44280  Biso   1.000  C
  H29      1.0000 0.23860  0.11720  0.92600  Biso   1.000  H
  H30      1.0000 0.76140  0.61720  0.57400  Biso   1.000  H
  H31      1.0000 0.76140  0.88280  0.07400  Biso   1.000  H
  H32      1.0000 0.23860  0.38280  0.42600  Biso   1.000  H
  C41      1.0000 0.00170  0.02390  0.97690  Biso   1.000  C
  C42      1.0000 0.99830  0.52390  0.52310  Biso   1.000  C
  C43      1.0000 0.99830  0.97610  0.02310  Biso   1.000  C
  C44      1.0000 0.00170  0.47610  0.47690  Biso   1.000  C
  C45      1.0000 0.29200  0.52600  0.11530  Biso   1.000  C
  C46      1.0000 0.70800  0.02600  0.38470  Biso   1.000  C
  C47      1.0000 0.70800  0.47400  0.88470  Biso   1.000  C
  C48      1.0000 0.29200  0.97400  0.61530  Biso   1.000  C
  H33      1.0000 0.22820  0.54860  0.12120  Biso   1.000  H
  H34      1.0000 0.77180  0.04860  0.37880  Biso   1.000  H
  H35      1.0000 0.77180  0.45140  0.87880  Biso   1.000  H
  H36      1.0000 0.22820  0.95140  0.62120  Biso   1.000  H
  C49      1.0000 0.37010  0.53070  0.15140  Biso   1.000  C
  C50      1.0000 0.62990  0.03070  0.34860  Biso   1.000  C
  C51      1.0000 0.62990  0.46930  0.84860  Biso   1.000  C
  C52      1.0000 0.37010  0.96930  0.65140  Biso   1.000  C
  H37      1.0000 0.35720  0.55210  0.18190  Biso   1.000  H
  H38      1.0000 0.64280  0.05210  0.31810  Biso   1.000  H
  H39      1.0000 0.64280  0.44790  0.81810  Biso   1.000  H
  H40      1.0000 0.35720  0.94790  0.68190  Biso   1.000  H
  C53      1.0000 0.46510  0.50290  0.14070  Biso   1.000  C
  C54      1.0000 0.53490  0.00290  0.35930  Biso   1.000  C
  C55      1.0000 0.53490  0.49710  0.85930  Biso   1.000  C
  C56      1.0000 0.46510  0.99710  0.64070  Biso   1.000  C
  H41      1.0000 0.52130  0.50890  0.16250  Biso   1.000  H
  H42      1.0000 0.47870  0.00890  0.33750  Biso   1.000  H
  H43      1.0000 0.47870  0.49110  0.83750  Biso   1.000  H
  H44      1.0000 0.52130  0.99110  0.66250  Biso   1.000  H
  C57      1.0000 0.47870  0.46620  0.09790  Biso   1.000  C
  C58      1.0000 0.52130  0.96620  0.40210  Biso   1.000  C
  C59      1.0000 0.52130  0.53380  0.90210  Biso   1.000  C
  C60      1.0000 0.47870  0.03380  0.59790  Biso   1.000  C
  H45      1.0000 0.54290  0.44400  0.09210  Biso   1.000  H
  H46      1.0000 0.45710  0.94400  0.40790  Biso   1.000  H
  H47      1.0000 0.45710  0.55600  0.90790  Biso   1.000  H
  H48      1.0000 0.54290  0.05600  0.59210  Biso   1.000  H
  C61      1.0000 0.39970  0.46090  0.06300  Biso   1.000  C
  C62      1.0000 0.60030  0.96090  0.43700  Biso   1.000  C
  C63      1.0000 0.60030  0.53910  0.93700  Biso   1.000  C
  C64      1.0000 0.39970  0.03910  0.56300  Biso   1.000  C
  C65      1.0000 0.40320  0.42550  0.01470  Biso   1.000  C
  C66      1.0000 0.59680  0.92550  0.48530  Biso   1.000  C
  C67      1.0000 0.59680  0.57450  0.98530  Biso   1.000  C
  C68      1.0000 0.40320  0.07450  0.51470  Biso   1.000  C
  C69      1.0000 0.49410  0.38970  0.99450  Biso   1.000  C
  C70      1.0000 0.50590  0.88970  0.50550  Biso   1.000  C
  C71      1.0000 0.50590  0.61030  0.00550  Biso   1.000  C
  C72      1.0000 0.49410  0.11030  0.49450  Biso   1.000  C
  H49      1.0000 0.55680  0.38700  0.01240  Biso   1.000  H
  H50      1.0000 0.44320  0.88700  0.48760  Biso   1.000  H
  H51      1.0000 0.44320  0.61300  0.98760  Biso   1.000  H
  H52      1.0000 0.55680  0.11300  0.51240  Biso   1.000  H
  C73      1.0000 0.48520  0.36040  0.94920  Biso   1.000  C
  C74      1.0000 0.51480  0.86040  0.55080  Biso   1.000  C
  C75      1.0000 0.51480  0.63960  0.05080  Biso   1.000  C
  C76      1.0000 0.48520  0.13960  0.44920  Biso   1.000  C
  H53      1.0000 0.54230  0.33630  0.93580  Biso   1.000  H
  H54      1.0000 0.45770  0.83630  0.56420  Biso   1.000  H
  H55      1.0000 0.45770  0.66370  0.06420  Biso   1.000  H
  H56      1.0000 0.54230  0.16370  0.43580  Biso   1.000  H
  C77      1.0000 0.39610  0.36530  0.92310  Biso   1.000  C
  C78      1.0000 0.60390  0.86530  0.57690  Biso   1.000  C
  C79      1.0000 0.60390  0.63470  0.07690  Biso   1.000  C
  C80      1.0000 0.39610  0.13470  0.42310  Biso   1.000  C
  H57      1.0000 0.39180  0.34510  0.89170  Biso   1.000  H
  H58      1.0000 0.60820  0.84510  0.60830  Biso   1.000  H
  H59      1.0000 0.60820  0.65490  0.10830  Biso   1.000  H
  H60      1.0000 0.39180  0.15490  0.39170  Biso   1.000  H
  C81      1.0000 0.31230  0.39930  0.94210  Biso   1.000  C
  C82      1.0000 0.68770  0.89930  0.55790  Biso   1.000  C
  C83      1.0000 0.68770  0.60070  0.05790  Biso   1.000  C
  C84      1.0000 0.31230  0.10070  0.44210  Biso   1.000  C
  H61      1.0000 0.25070  0.40240  0.92340  Biso   1.000  H
  H62      1.0000 0.74930  0.90240  0.57660  Biso   1.000  H
  H63      1.0000 0.74930  0.59760  0.07660  Biso   1.000  H
  H64      1.0000 0.25070  0.09760  0.42340  Biso   1.000  H
  C85      1.0000 0.99330  0.52130  0.02240  Biso   1.000  C
  C86      1.0000 0.00670  0.02130  0.47760  Biso   1.000  C
  C87      1.0000 0.00670  0.47870  0.97760  Biso   1.000  C
  C88      1.0000 0.99330  0.97870  0.52240  Biso   1.000  C
  N1       1.0000 0.30830  0.00610  0.06670  Biso   1.000  N
  N2       1.0000 0.69170  0.50610  0.43330  Biso   1.000  N
  N3       1.0000 0.69170  0.99390  0.93330  Biso   1.000  N
  N4       1.0000 0.30830  0.49390  0.56670  Biso   1.000  N
  N5       1.0000 0.31210  0.08190  0.98440  Biso   1.000  N
  N6       1.0000 0.68790  0.58190  0.51560  Biso   1.000  N
  N7       1.0000 0.68790  0.91810  0.01560  Biso   1.000  N
  N8       1.0000 0.31210  0.41810  0.48440  Biso   1.000  N
  N9       1.0000 0.30310  0.49160  0.07310  Biso   1.000  N
  N10      1.0000 0.69690  0.99160  0.42690  Biso   1.000  N
  N11      1.0000 0.69690  0.50840  0.92690  Biso   1.000  N
  N12      1.0000 0.30310  0.00840  0.57310  Biso   1.000  N
  N13      1.0000 0.31580  0.42890  0.98760  Biso   1.000  N
  N14      1.0000 0.68420  0.92890  0.51240  Biso   1.000  N
  N15      1.0000 0.68420  0.57110  0.01240  Biso   1.000  N
  N16      1.0000 0.31580  0.07110  0.48760  Biso   1.000  N
  O1       1.0000 0.14010  0.12550  0.07170  Biso   1.000  O
  O2       1.0000 0.85990  0.62550  0.42830  Biso   1.000  O
  O3       1.0000 0.85990  0.87450  0.92830  Biso   1.000  O
  O4       1.0000 0.14010  0.37450  0.57170  Biso   1.000  O
  O5       1.0000 0.80300  0.97330  0.15090  Biso   1.000  O
  O6       1.0000 0.19700  0.47330  0.34910  Biso   1.000  O
  O7       1.0000 0.19700  0.02670  0.84910  Biso   1.000  O
  O8       1.0000 0.80300  0.52670  0.65090  Biso   1.000  O
  O9       1.0000 0.74790  0.13770  0.98230  Biso   1.000  O
  O10      1.0000 0.25210  0.63770  0.51770  Biso   1.000  O
  O11      1.0000 0.25210  0.86230  0.01770  Biso   1.000  O
  O12      1.0000 0.74790  0.36230  0.48230  Biso   1.000  O
  O13      1.0000 0.20380  0.23890  0.23480  Biso   1.000  O
  O14      1.0000 0.79620  0.73890  0.26520  Biso   1.000  O
  O15      1.0000 0.79620  0.76110  0.76520  Biso   1.000  O
  O16      1.0000 0.20380  0.26110  0.73480  Biso   1.000  O
  O17      1.0000 0.86590  0.08550  0.30990  Biso   1.000  O
  O18      1.0000 0.13410  0.58550  0.19010  Biso   1.000  O
  O19      1.0000 0.13410  0.91450  0.69010  Biso   1.000  O
  O20      1.0000 0.86590  0.41450  0.80990  Biso   1.000  O
  O21      1.0000 0.51560  0.09550  0.23280  Biso   1.000  O
  O22      1.0000 0.48440  0.59550  0.26720  Biso   1.000  O
  O23      1.0000 0.48440  0.90450  0.76720  Biso   1.000  O
  O24      1.0000 0.51560  0.40450  0.73280  Biso   1.000  O
  O25      1.0000 0.45640  0.25960  0.06320  Biso   1.000  O
  O26      1.0000 0.54360  0.75960  0.43680  Biso   1.000  O
  O27      1.0000 0.54360  0.74040  0.93680  Biso   1.000  O
  O28      1.0000 0.45640  0.24040  0.56320  Biso   1.000  O
  O29      1.0000 0.75100  0.39410  0.99580  Biso   1.000  O
  O30      1.0000 0.24900  0.89410  0.50420  Biso   1.000  O
  O31      1.0000 0.24900  0.60590  0.00420  Biso   1.000  O
  O32      1.0000 0.75100  0.10590  0.49580  Biso   1.000  O
  O33      1.0000 0.14670  0.37970  0.08100  Biso   1.000  O
  O34      1.0000 0.85330  0.87970  0.41900  Biso   1.000  O
  O35      1.0000 0.85330  0.62030  0.91900  Biso   1.000  O
  O36      1.0000 0.14670  0.12030  0.58100  Biso   1.000  O
  O37      1.0000 0.86450  0.37720  0.32490  Biso   1.000  O
  O38      1.0000 0.13550  0.87720  0.17510  Biso   1.000  O
  O39      1.0000 0.13550  0.62280  0.67510  Biso   1.000  O
  O40      1.0000 0.86450  0.12280  0.82490  Biso   1.000  O
  O41      1.0000 0.51550  0.38850  0.24550  Biso   1.000  O
  O42      1.0000 0.48450  0.88850  0.25450  Biso   1.000  O
  O43      1.0000 0.48450  0.61150  0.75450  Biso   1.000  O
  O44      1.0000 0.51550  0.11150  0.74550  Biso   1.000  O
  O45      1.0000 0.81430  0.52260  0.17740  Biso   1.000  O
  O46      1.0000 0.18570  0.02260  0.32260  Biso   1.000  O
  O47      1.0000 0.18570  0.47740  0.82260  Biso   1.000  O
  O48      1.0000 0.81430  0.97740  0.67740  Biso   1.000  O
  O49      1.0000 0.95740  0.06660  0.11930  Biso   1.000  O
  O50      1.0000 0.04260  0.56660  0.38070  Biso   1.000  O
  O51      1.0000 0.04260  0.93340  0.88070  Biso   1.000  O
  O52      1.0000 0.95740  0.43340  0.61930  Biso   1.000  O
  O53      1.0000 0.76970  0.07230  0.07440  Biso   1.000  O
  O54      1.0000 0.23030  0.57230  0.42560  Biso   1.000  O
  O55      1.0000 0.23030  0.92770  0.92560  Biso   1.000  O
  O56      1.0000 0.76970  0.42770  0.57440  Biso   1.000  O
  O57      1.0000 0.92840  0.14400  0.03710  Biso   1.000  O
  O58      1.0000 0.07160  0.64400  0.46290  Biso   1.000  O
  O59      1.0000 0.07160  0.85600  0.96290  Biso   1.000  O
  O60      1.0000 0.92840  0.35600  0.53710  Biso   1.000  O
  O61      1.0000 0.06190  0.17560  0.16230  Biso   1.000  O
  O62      1.0000 0.93810  0.67560  0.33770  Biso   1.000  O
  O63      1.0000 0.93810  0.82440  0.83770  Biso   1.000  O
  O64      1.0000 0.06190  0.32440  0.66230  Biso   1.000  O
  O65      1.0000 0.86580  0.09090  0.20560  Biso   1.000  O
  O66      1.0000 0.13420  0.59090  0.29440  Biso   1.000  O
  O67      1.0000 0.13420  0.90910  0.79440  Biso   1.000  O
  O68      1.0000 0.86580  0.40910  0.70560  Biso   1.000  O
  O69      1.0000 0.68300  0.09560  0.16430  Biso   1.000  O
  O70      1.0000 0.31700  0.59560  0.33570  Biso   1.000  O
  O71      1.0000 0.31700  0.90440  0.83570  Biso   1.000  O
  O72      1.0000 0.68300  0.40440  0.66430  Biso   1.000  O
  O73      1.0000 0.65210  0.18840  0.06870  Biso   1.000  O
  O74      1.0000 0.34790  0.68840  0.43130  Biso   1.000  O
  O75      1.0000 0.34790  0.81160  0.93130  Biso   1.000  O
  O76      1.0000 0.65210  0.31160  0.56870  Biso   1.000  O
  O77      1.0000 0.80810  0.26170  0.03190  Biso   1.000  O
  O78      1.0000 0.19190  0.76170  0.46810  Biso   1.000  O
  O79      1.0000 0.19190  0.73830  0.96810  Biso   1.000  O
  O80      1.0000 0.80810  0.23830  0.53190  Biso   1.000  O
  O81      1.0000 0.02920  0.25360  0.08280  Biso   1.000  O
  O82      1.0000 0.97080  0.75360  0.41720  Biso   1.000  O
  O83      1.0000 0.97080  0.74640  0.91720  Biso   1.000  O
  O84      1.0000 0.02920  0.24640  0.58280  Biso   1.000  O
  O85      1.0000 0.01020  0.16440  0.26020  Biso   1.000  O
  O86      1.0000 0.98980  0.66440  0.23980  Biso   1.000  O
  O87      1.0000 0.98980  0.83560  0.73980  Biso   1.000  O
  O88      1.0000 0.01020  0.33560  0.76020  Biso   1.000  O
  O89      1.0000 0.71190  0.15540  0.25060  Biso   1.000  O
  O90      1.0000 0.28810  0.65540  0.24940  Biso   1.000  O
  O91      1.0000 0.28810  0.84460  0.74940  Biso   1.000  O
  O92      1.0000 0.71190  0.34460  0.75060  Biso   1.000  O
  O93      1.0000 0.51830  0.17950  0.14600  Biso   1.000  O
  O94      1.0000 0.48170  0.67950  0.35400  Biso   1.000  O
  O95      1.0000 0.48170  0.82050  0.85400  Biso   1.000  O
  O96      1.0000 0.51830  0.32050  0.64600  Biso   1.000  O
  O97      1.0000 0.65190  0.32510  0.07560  Biso   1.000  O
  O98      1.0000 0.34810  0.82510  0.42440  Biso   1.000  O
  O99      1.0000 0.34810  0.67490  0.92440  Biso   1.000  O
  O100     1.0000 0.65190  0.17490  0.57560  Biso   1.000  O
  O101     1.0000 0.93550  0.37220  0.04890  Biso   1.000  O
  O102     1.0000 0.06450  0.87220  0.45110  Biso   1.000  O
  O103     1.0000 0.06450  0.62780  0.95110  Biso   1.000  O
  O104     1.0000 0.93550  0.12780  0.54890  Biso   1.000  O
  O105     1.0000 0.06570  0.31530  0.16810  Biso   1.000  O
  O106     1.0000 0.93430  0.81530  0.33190  Biso   1.000  O
  O107     1.0000 0.93430  0.68470  0.83190  Biso   1.000  O
  O108     1.0000 0.06570  0.18470  0.66810  Biso   1.000  O
  O109     1.0000 0.01160  0.30800  0.26660  Biso   1.000  O
  O110     1.0000 0.98840  0.80800  0.23340  Biso   1.000  O
  O111     1.0000 0.98840  0.69200  0.73340  Biso   1.000  O
  O112     1.0000 0.01160  0.19200  0.76660  Biso   1.000  O
  O113     1.0000 0.84900  0.23350  0.30360  Biso   1.000  O
  O114     1.0000 0.15100  0.73350  0.19640  Biso   1.000  O
  O115     1.0000 0.15100  0.76650  0.69640  Biso   1.000  O
  O116     1.0000 0.84900  0.26650  0.80360  Biso   1.000  O
  O117     1.0000 0.54740  0.24230  0.23440  Biso   1.000  O
  O118     1.0000 0.45260  0.74230  0.26560  Biso   1.000  O
  O119     1.0000 0.45260  0.75770  0.76560  Biso   1.000  O
  O120     1.0000 0.54740  0.25770  0.73440  Biso   1.000  O
  O121     1.0000 0.51990  0.31960  0.15330  Biso   1.000  O
  O122     1.0000 0.48010  0.81960  0.34670  Biso   1.000  O
  O123     1.0000 0.48010  0.68040  0.84670  Biso   1.000  O
  O124     1.0000 0.51990  0.18040  0.65330  Biso   1.000  O
  O125     1.0000 0.77400  0.43750  0.09240  Biso   1.000  O
  O126     1.0000 0.22600  0.93750  0.40760  Biso   1.000  O
  O127     1.0000 0.22600  0.56250  0.90760  Biso   1.000  O
  O128     1.0000 0.77400  0.06250  0.59240  Biso   1.000  O
  O129     1.0000 0.96630  0.43370  0.13640  Biso   1.000  O
  O130     1.0000 0.03370  0.93370  0.36360  Biso   1.000  O
  O131     1.0000 0.03370  0.56630  0.86360  Biso   1.000  O
  O132     1.0000 0.96630  0.06630  0.63640  Biso   1.000  O
  O133     1.0000 0.71330  0.32260  0.25880  Biso   1.000  O
  O134     1.0000 0.28670  0.82260  0.24120  Biso   1.000  O
  O135     1.0000 0.28670  0.67740  0.74120  Biso   1.000  O
  O136     1.0000 0.71330  0.17740  0.75880  Biso   1.000  O
  O137     1.0000 0.68720  0.39970  0.17940  Biso   1.000  O
  O138     1.0000 0.31280  0.89970  0.32060  Biso   1.000  O
  O139     1.0000 0.31280  0.60030  0.82060  Biso   1.000  O
  O140     1.0000 0.68720  0.10030  0.67940  Biso   1.000  O
  O141     1.0000 0.86940  0.39430  0.22120  Biso   1.000  O
  O142     1.0000 0.13060  0.89430  0.27880  Biso   1.000  O
  O143     1.0000 0.13060  0.60570  0.77880  Biso   1.000  O
  O144     1.0000 0.86940  0.10570  0.72120  Biso   1.000  O
  O145     1.0000 0.84870  0.18110  0.12140  Biso   1.000  O
  O146     1.0000 0.15130  0.68110  0.37860  Biso   1.000  O
  O147     1.0000 0.15130  0.81890  0.87860  Biso   1.000  O
  O148     1.0000 0.84870  0.31890  0.62140  Biso   1.000  O
  O149     1.0000 0.87590  0.24260  0.20950  Biso   1.000  O
  O150     1.0000 0.12410  0.74260  0.29050  Biso   1.000  O
  O151     1.0000 0.12410  0.75740  0.79050  Biso   1.000  O
  O152     1.0000 0.87590  0.25740  0.70950  Biso   1.000  O
  O153     1.0000 0.68720  0.24830  0.16510  Biso   1.000  O
  O154     1.0000 0.31280  0.74830  0.33490  Biso   1.000  O
  O155     1.0000 0.31280  0.75170  0.83490  Biso   1.000  O
  O156     1.0000 0.68720  0.25170  0.66510  Biso   1.000  O
  O157     1.0000 0.84970  0.32190  0.12820  Biso   1.000  O
  O158     1.0000 0.15030  0.82190  0.37180  Biso   1.000  O
  O159     1.0000 0.15030  0.67810  0.87180  Biso   1.000  O
  O160     1.0000 0.84970  0.17810  0.62820  Biso   1.000  O
  O161     1.0000 0.91700  0.03090  0.95350  Biso   1.000  O
  O162     1.0000 0.08300  0.53090  0.54650  Biso   1.000  O
  O163     1.0000 0.08300  0.96910  0.04650  Biso   1.000  O
  O164     1.0000 0.91700  0.46910  0.45350  Biso   1.000  O
  O165     1.0000 0.08670  0.05490  0.96810  Biso   1.000  O
  O166     1.0000 0.91330  0.55490  0.53190  Biso   1.000  O
  O167     1.0000 0.91330  0.94510  0.03190  Biso   1.000  O
  O168     1.0000 0.08670  0.44510  0.46810  Biso   1.000  O
  O169     1.0000 0.07480  0.52670  0.05100  Biso   1.000  O
  O170     1.0000 0.92520  0.02670  0.44900  Biso   1.000  O
  O171     1.0000 0.92520  0.47330  0.94900  Biso   1.000  O
  O172     1.0000 0.07480  0.97330  0.55100  Biso   1.000  O
  O173     1.0000 0.09550  0.45070  0.96940  Biso   1.000  O
  O174     1.0000 0.90450  0.95070  0.53060  Biso   1.000  O
  O175     1.0000 0.90450  0.54930  0.03060  Biso   1.000  O
  O176     1.0000 0.09550  0.04930  0.46940  Biso   1.000  O
  O177     1.0000 0.82550  0.30790  0.90960  Biso   1.000  O
  O178     1.0000 0.17450  0.80790  0.59040  Biso   1.000  O
  O179     1.0000 0.17450  0.69210  0.09040  Biso   1.000  O
  O180     1.0000 0.82550  0.19210  0.40960  Biso   1.000  O
  O181     1.0000 0.06830  0.28180  0.97030  Biso   1.000  O
  O182     1.0000 0.93170  0.78180  0.52970  Biso   1.000  O
  O183     1.0000 0.93170  0.71820  0.02970  Biso   1.000  O
  O184     1.0000 0.06830  0.21820  0.47030  Biso   1.000  O
  O185     1.0000 0.24730  0.25360  0.02560  Biso   1.000  O
  O186     1.0000 0.75270  0.75360  0.47440  Biso   1.000  O
  O187     1.0000 0.75270  0.74640  0.97440  Biso   1.000  O
  O188     1.0000 0.24730  0.24640  0.52560  Biso   1.000  O
  O189     1.0000 0.62290  0.23590  0.35250  Biso   1.000  O
  O190     1.0000 0.37710  0.73590  0.14750  Biso   1.000  O
  O191     1.0000 0.37710  0.76410  0.64750  Biso   1.000  O
  O192     1.0000 0.62290  0.26410  0.85250  Biso   1.000  O
  O193     1.0000 0.11250  0.16680  0.85200  Biso   1.000  O
  O194     1.0000 0.88750  0.66680  0.64800  Biso   1.000  O
  O195     1.0000 0.88750  0.83320  0.14800  Biso   1.000  O
  O196     1.0000 0.11250  0.33320  0.35200  Biso   1.000  O
  O197     1.0000 0.40400  0.25490  0.81390  Biso   1.000  O
  O198     1.0000 0.59600  0.75490  0.68610  Biso   1.000  O
  O199     1.0000 0.59600  0.74510  0.18610  Biso   1.000  O
  O200     1.0000 0.40400  0.24510  0.31390  Biso   1.000  O
  O201     1.0000 0.30050  0.16020  0.14900  Biso   1.000  O
  O202     1.0000 0.69950  0.66020  0.35100  Biso   1.000  O
  O203     1.0000 0.69950  0.83980  0.85100  Biso   1.000  O
  O204     1.0000 0.30050  0.33980  0.64900  Biso   1.000  O
  Si1      1.0000 0.81600  0.24790  0.15587  Biso   1.000  Si
  Si2      1.0000 0.18400  0.74790  0.34413  Biso   1.000  Si
  Si3      1.0000 0.18400  0.75210  0.84413  Biso   1.000  Si
  Si4      1.0000 0.81600  0.25210  0.65587  Biso   1.000  Si
  Cu1      1.0000 0.19488  0.02981  0.01833  Biso   1.000  Cu
  Cu2      1.0000 0.80512  0.52981  0.48167  Biso   1.000  Cu
  Cu3      1.0000 0.80512  0.97019  0.98167  Biso   1.000  Cu
  Cu4      1.0000 0.19488  0.47019  0.51833  Biso   1.000  Cu
  Cu5      1.0000 0.19615  0.47540  0.02165  Biso   1.000  Cu
  Cu6      1.0000 0.80385  0.97540  0.47835  Biso   1.000  Cu
  Cu7      1.0000 0.80385  0.52460  0.97835  Biso   1.000  Cu
  Cu8      1.0000 0.19615  0.02460  0.52165  Biso   1.000  Cu
  Cu9      1.0000 0.05987  0.24086  0.21660  Biso   1.000  Cu
  Cu10     1.0000 0.94013  0.74086  0.28340  Biso   1.000  Cu
  Cu11     1.0000 0.94013  0.75914  0.78340  Biso   1.000  Cu
  Cu12     1.0000 0.05987  0.25914  0.71660  Biso   1.000  Cu
  N17      1.0000 0.95000  0.17880  0.92280  Biso   1.000  N
  N18      1.0000 0.05000  0.67880  0.57720  Biso   1.000  N
  N19      1.0000 0.05000  0.82120  0.07720  Biso   1.000  N
  N20      1.0000 0.95000  0.32120  0.42280  Biso   1.000  N
  N21      1.0000 0.03270  0.12820  0.37600  Biso   1.000  N
  N22      1.0000 0.96730  0.62820  0.12400  Biso   1.000  N
  N23      1.0000 0.96730  0.87180  0.62400  Biso   1.000  N
  N24      1.0000 0.03270  0.37180  0.87600  Biso   1.000  N
  N25      1.0000 0.30100  0.33810  0.16120  Biso   1.000  N
  N26      1.0000 0.69900  0.83810  0.33880  Biso   1.000  N
  N27      1.0000 0.69900  0.66190  0.83880  Biso   1.000  N
  N28      1.0000 0.30100  0.16190  0.66120  Biso   1.000  N
  O205     1.0000 0.70400  0.89770  0.24640  Biso   1.000  O
  O206     1.0000 0.29600  0.39770  0.25360  Biso   1.000  O
  O207     1.0000 0.29600  0.10230  0.75360  Biso   1.000  O
  O208     1.0000 0.70400  0.60230  0.74640  Biso   1.000  O
  N29      1.0000 0.90560  0.94650  0.26710  Biso   1.000  N
  N30      1.0000 0.09440  0.44650  0.23290  Biso   1.000  N
  N31      1.0000 0.09440  0.05350  0.73290  Biso   1.000  N
  N32      1.0000 0.90560  0.55350  0.76710  Biso   1.000  N
  O209     1.0000 0.08580  0.02790  0.20770  Biso   1.000  O
  O210     1.0000 0.91420  0.52790  0.29230  Biso   1.000  O
  O211     1.0000 0.91420  0.97210  0.79230  Biso   1.000  O
  O212     1.0000 0.08580  0.47210  0.70770  Biso   1.000  O
  O213     1.0000 0.28800  0.08590  0.23650  Biso   1.000  O
  O214     1.0000 0.71200  0.58590  0.26350  Biso   1.000  O
  O215     1.0000 0.71200  0.91410  0.76350  Biso   1.000  O
  O216     1.0000 0.28800  0.41410  0.73650  Biso   1.000  O
  W1       1.0000 0.02116  0.15636  0.09702  Biso   1.000  W
  W2       1.0000 0.97884  0.65636  0.40298  Biso   1.000  W
  W3       1.0000 0.97884  0.84364  0.90298  Biso   1.000  W
  W4       1.0000 0.02116  0.34364  0.59702  Biso   1.000  W
  W5       1.0000 0.81659  0.06250  0.14147  Biso   1.000  W
  W6       1.0000 0.18341  0.56250  0.35853  Biso   1.000  W
  W7       1.0000 0.18341  0.93750  0.85853  Biso   1.000  W
  W8       1.0000 0.81659  0.43750  0.64147  Biso   1.000  W
  W9       1.0000 0.78556  0.16162  0.04072  Biso   1.000  W
  W10      1.0000 0.21444  0.66162  0.45928  Biso   1.000  W
  W11      1.0000 0.21444  0.83838  0.95928  Biso   1.000  W
  W12      1.0000 0.78556  0.33838  0.54072  Biso   1.000  W
  W13      1.0000 0.86381  0.14914  0.26346  Biso   1.000  W
  W14      1.0000 0.13619  0.64914  0.23654  Biso   1.000  W
  W15      1.0000 0.13619  0.85086  0.73654  Biso   1.000  W
  W16      1.0000 0.86381  0.35086  0.76346  Biso   1.000  W
  W17      1.0000 0.59908  0.15564  0.20541  Biso   1.000  W
  W18      1.0000 0.40092  0.65564  0.29459  Biso   1.000  W
  W19      1.0000 0.40092  0.84436  0.79459  Biso   1.000  W
  W20      1.0000 0.59908  0.34436  0.70541  Biso   1.000  W
  W21      1.0000 0.56476  0.25427  0.10260  Biso   1.000  W
  W22      1.0000 0.43524  0.75427  0.39740  Biso   1.000  W
  W23      1.0000 0.43524  0.74573  0.89740  Biso   1.000  W
  W24      1.0000 0.56476  0.24573  0.60260  Biso   1.000  W
  W25      1.0000 0.78890  0.35707  0.05116  Biso   1.000  W
  W26      1.0000 0.21110  0.85707  0.44884  Biso   1.000  W
  W27      1.0000 0.21110  0.64293  0.94884  Biso   1.000  W
  W28      1.0000 0.78890  0.14293  0.55116  Biso   1.000  W
  W29      1.0000 0.02397  0.34888  0.10658  Biso   1.000  W
  W30      1.0000 0.97603  0.84888  0.39342  Biso   1.000  W
  W31      1.0000 0.97603  0.65112  0.89342  Biso   1.000  W
  W32      1.0000 0.02397  0.15112  0.60658  Biso   1.000  W
  W33      1.0000 0.86393  0.32464  0.27291  Biso   1.000  W
  W34      1.0000 0.13607  0.82464  0.22709  Biso   1.000  W
  W35      1.0000 0.13607  0.67536  0.72709  Biso   1.000  W
  W36      1.0000 0.86393  0.17536  0.77291  Biso   1.000  W
  W37      1.0000 0.60197  0.33427  0.21309  Biso   1.000  W
  W38      1.0000 0.39803  0.83427  0.28691  Biso   1.000  W
  W39      1.0000 0.39803  0.66573  0.78691  Biso   1.000  W
  W40      1.0000 0.60197  0.16573  0.71309  Biso   1.000  W
  W41      1.0000 0.82432  0.43496  0.15981  Biso   1.000  W
  W42      1.0000 0.17568  0.93496  0.34019  Biso   1.000  W
  W43      1.0000 0.17568  0.56504  0.84019  Biso   1.000  W
  W44      1.0000 0.82432  0.06504  0.65981  Biso   1.000  W
