data_image0
_cell_length_a       5.911
_cell_length_b       8.515
_cell_length_c       9.621
_cell_angle_alpha    86.81
_cell_angle_beta     78.09
_cell_angle_gamma    70.42

_symmetry_space_group_name_H-M    "P 1"
_symmetry_int_tables_number       1

loop_
  _symmetry_equiv_pos_as_xyz
  'x, y, z'

loop_
  _atom_site_label
  _atom_site_occupancy
  _atom_site_fract_x
  _atom_site_fract_y
  _atom_site_fract_z
  _atom_site_thermal_displace_type
  _atom_site_B_iso_or_equiv
  _atom_site_type_symbol
  Cu1      1.0000 0.50000  0.50000  0.00000  Biso   1.000  Cu
  Cl1      1.0000 0.80960  0.52480  0.82636  Biso   1.000  Cl
  Cl2      1.0000 0.19040  0.47520  0.17364  Biso   1.000  Cl
  C1       1.0000 0.09510  0.81880  0.97810  Biso   1.000  C
  C2       1.0000 0.90490  0.18120  0.02190  Biso   1.000  C
  H1       1.0000 0.00140  0.78750  0.06500  Biso   1.000  H
  H2       1.0000 0.99860  0.21250  0.93500  Biso   1.000  H
  C3       1.0000 0.24750  0.91000  0.02080  Biso   1.000  C
  C4       1.0000 0.75250  0.09000  0.97920  Biso   1.000  C
  H3       1.0000 0.34600  0.93930  0.93630  Biso   1.000  H
  H4       1.0000 0.65400  0.06070  0.06370  Biso   1.000  H
  H5       1.0000 0.35780  0.83760  0.07730  Biso   1.000  H
  H6       1.0000 0.64220  0.16240  0.92270  Biso   1.000  H
  C5       1.0000 0.91230  0.93180  0.89360  Biso   1.000  C
  C6       1.0000 0.08770  0.06820  0.10640  Biso   1.000  C
  H7       1.0000 0.00030  0.96140  0.80500  Biso   1.000  H
  H8       1.0000 0.99970  0.03860  0.19500  Biso   1.000  H
  H9       1.0000 0.80950  0.87280  0.87100  Biso   1.000  H
  H10      1.0000 0.19050  0.12720  0.12900  Biso   1.000  H
  N1       1.0000 0.25480  0.66240  0.89820  Biso   1.000  N
  N2       1.0000 0.74520  0.33760  0.10180  Biso   1.000  N
  H11      1.0000 0.16900  0.61100  0.87300  Biso   1.000  H
  H12      1.0000 0.83100  0.38900  0.12700  Biso   1.000  H
  H13      1.0000 0.33600  0.68500  0.81200  Biso   1.000  H
  H14      1.0000 0.66400  0.31500  0.18800  Biso   1.000  H
  S1       1.0000 0.62110  0.69458  0.51107  Biso   1.000  S
  S2       1.0000 0.37890  0.30542  0.48893  Biso   1.000  S
  O1       1.0000 0.41140  0.80550  0.61710  Biso   1.000  O
  O2       1.0000 0.58860  0.19450  0.38290  Biso   1.000  O
  C7       1.0000 0.86740  0.77310  0.49440  Biso   1.000  C
  C8       1.0000 0.13260  0.22690  0.50560  Biso   1.000  C
  H15      1.0000 0.93380  0.75010  0.57930  Biso   1.000  H
  H16      1.0000 0.06620  0.24990  0.42070  Biso   1.000  H
  H17      1.0000 0.80940  0.89130  0.48050  Biso   1.000  H
  H18      1.0000 0.19060  0.10870  0.51950  Biso   1.000  H
  H19      1.0000 0.99250  0.72030  0.41440  Biso   1.000  H
  H20      1.0000 0.00750  0.27970  0.58560  Biso   1.000  H
  C9       1.0000 0.54960  0.75500  0.34090  Biso   1.000  C
  C10      1.0000 0.45040  0.24500  0.65910  Biso   1.000  C
  H21      1.0000 0.41410  0.72190  0.33000  Biso   1.000  H
  H22      1.0000 0.58590  0.27810  0.67000  Biso   1.000  H
  H23      1.0000 0.68940  0.70190  0.26840  Biso   1.000  H
  H24      1.0000 0.31060  0.29810  0.73160  Biso   1.000  H
  H25      1.0000 0.50660  0.87380  0.33260  Biso   1.000  H
  H26      1.0000 0.49340  0.12620  0.66740  Biso   1.000  H
