data_image0
_cell_length_a       13.732
_cell_length_b       13.721
_cell_length_c       20.397
_cell_angle_alpha    90
_cell_angle_beta     90
_cell_angle_gamma    90

_symmetry_space_group_name_H-M    "P 1"
_symmetry_int_tables_number       1

loop_
  _symmetry_equiv_pos_as_xyz
  'x, y, z'

loop_
  _atom_site_label
  _atom_site_occupancy
  _atom_site_fract_x
  _atom_site_fract_y
  _atom_site_fract_z
  _atom_site_thermal_displace_type
  _atom_site_B_iso_or_equiv
  _atom_site_type_symbol
  Cu1      1.0000 0.99407  0.37523  0.73170  Biso   1.000  Cu
  Cu2      1.0000 0.00593  0.62477  0.23170  Biso   1.000  Cu
  Cu3      1.0000 0.50593  0.37523  0.23170  Biso   1.000  Cu
  Cu4      1.0000 0.49407  0.62477  0.73170  Biso   1.000  Cu
  Cu5      1.0000 0.57390  0.86587  0.03767  Biso   1.000  Cu
  Cu6      1.0000 0.42610  0.13413  0.53767  Biso   1.000  Cu
  Cu7      1.0000 0.92610  0.86587  0.53767  Biso   1.000  Cu
  Cu8      1.0000 0.07390  0.13413  0.03767  Biso   1.000  Cu
  O1       1.0000 0.13057  0.33590  0.71838  Biso   1.000  O
  O2       1.0000 0.86943  0.66410  0.21838  Biso   1.000  O
  O3       1.0000 0.36943  0.33590  0.21838  Biso   1.000  O
  O4       1.0000 0.63057  0.66410  0.71838  Biso   1.000  O
  O5       1.0000 0.27501  0.39330  0.69493  Biso   1.000  O
  O6       1.0000 0.72499  0.60670  0.19493  Biso   1.000  O
  O7       1.0000 0.22499  0.39330  0.19493  Biso   1.000  O
  O8       1.0000 0.77501  0.60670  0.69493  Biso   1.000  O
  O9       1.0000 0.36257  0.58510  0.75282  Biso   1.000  O
  O10      1.0000 0.63743  0.41490  0.25282  Biso   1.000  O
  O11      1.0000 0.13743  0.58510  0.25282  Biso   1.000  O
  O12      1.0000 0.86257  0.41490  0.75282  Biso   1.000  O
  O13      1.0000 0.34946  0.62100  0.64711  Biso   1.000  O
  O14      1.0000 0.65054  0.37900  0.14711  Biso   1.000  O
  O15      1.0000 0.15054  0.62100  0.14711  Biso   1.000  O
  O16      1.0000 0.84946  0.37900  0.64711  Biso   1.000  O
  O17      1.0000 0.70766  0.82360  0.05898  Biso   1.000  O
  O18      1.0000 0.29234  0.17640  0.55898  Biso   1.000  O
  O19      1.0000 0.79234  0.82360  0.55898  Biso   1.000  O
  O20      1.0000 0.20766  0.17640  0.05898  Biso   1.000  O
  O21      1.0000 0.85710  0.88231  0.07505  Biso   1.000  O
  O22      1.0000 0.14290  0.11769  0.57505  Biso   1.000  O
  O23      1.0000 0.64290  0.88231  0.57505  Biso   1.000  O
  O24      1.0000 0.35710  0.11769  0.07505  Biso   1.000  O
  O25      1.0000 0.92026  0.10890  0.13548  Biso   1.000  O
  O26      1.0000 0.07974  0.89110  0.63548  Biso   1.000  O
  O27      1.0000 0.57974  0.10890  0.63548  Biso   1.000  O
  O28      1.0000 0.42026  0.89110  0.13548  Biso   1.000  O
  O29      1.0000 0.93522  0.09110  0.02937  Biso   1.000  O
  O30      1.0000 0.06478  0.90890  0.52937  Biso   1.000  O
  O31      1.0000 0.56478  0.09110  0.52937  Biso   1.000  O
  O32      1.0000 0.43522  0.90890  0.02937  Biso   1.000  O
  N1       1.0000 0.04860  0.50590  0.72129  Biso   1.000  N
  N2       1.0000 0.95140  0.49410  0.22129  Biso   1.000  N
  N3       1.0000 0.45140  0.50590  0.22129  Biso   1.000  N
  N4       1.0000 0.54860  0.49410  0.72129  Biso   1.000  N
  N5       1.0000 0.62850  0.99850  0.05451  Biso   1.000  N
  N6       1.0000 0.37150  0.00150  0.55451  Biso   1.000  N
  N7       1.0000 0.87150  0.99850  0.55451  Biso   1.000  N
  N8       1.0000 0.12850  0.00150  0.05451  Biso   1.000  N
  N9       1.0000 0.96060  0.23820  0.74731  Biso   1.000  N
  N10      1.0000 0.03940  0.76180  0.24731  Biso   1.000  N
  N11      1.0000 0.53940  0.23820  0.24731  Biso   1.000  N
  N12      1.0000 0.46060  0.76180  0.74731  Biso   1.000  N
  N13      1.0000 0.61210  0.87440  0.92847  Biso   1.000  N
  N14      1.0000 0.38790  0.12560  0.42847  Biso   1.000  N
  N15      1.0000 0.88790  0.87440  0.42847  Biso   1.000  N
  N16      1.0000 0.11210  0.12560  0.92847  Biso   1.000  N
  N17      1.0000 0.52940  0.72570  0.03446  Biso   1.000  N
  N18      1.0000 0.47060  0.27430  0.53446  Biso   1.000  N
  N19      1.0000 0.97060  0.72570  0.53446  Biso   1.000  N
  N20      1.0000 0.02940  0.27430  0.03446  Biso   1.000  N
  N21      1.0000 0.70990  0.31980  0.89120  Biso   1.000  N
  N22      1.0000 0.29010  0.68020  0.39120  Biso   1.000  N
  N23      1.0000 0.79010  0.31980  0.39120  Biso   1.000  N
  N24      1.0000 0.20990  0.68020  0.89120  Biso   1.000  N
  C1       1.0000 0.00660  0.59570  0.71933  Biso   1.000  C
  C2       1.0000 0.99340  0.40430  0.21933  Biso   1.000  C
  C3       1.0000 0.49340  0.59570  0.21933  Biso   1.000  C
  C4       1.0000 0.50660  0.40430  0.71933  Biso   1.000  C
  H1       1.0000 0.93920  0.59870  0.72360  Biso   1.000  H
  H2       1.0000 0.06080  0.40130  0.22360  Biso   1.000  H
  H3       1.0000 0.56080  0.59870  0.22360  Biso   1.000  H
  H4       1.0000 0.43920  0.40130  0.72360  Biso   1.000  H
  C5       1.0000 0.05270  0.67720  0.71190  Biso   1.000  C
  C6       1.0000 0.94730  0.32280  0.21190  Biso   1.000  C
  C7       1.0000 0.44730  0.67720  0.21190  Biso   1.000  C
  C8       1.0000 0.55270  0.32280  0.71190  Biso   1.000  C
  H5       1.0000 0.01980  0.73640  0.71060  Biso   1.000  H
  H6       1.0000 0.98020  0.26360  0.21060  Biso   1.000  H
  H7       1.0000 0.48020  0.73640  0.21060  Biso   1.000  H
  H8       1.0000 0.51980  0.26360  0.71060  Biso   1.000  H
  C9       1.0000 0.15670  0.67250  0.70585  Biso   1.000  C
  C10      1.0000 0.84330  0.32750  0.20585  Biso   1.000  C
  C11      1.0000 0.34330  0.67250  0.20585  Biso   1.000  C
  C12      1.0000 0.65670  0.32750  0.70585  Biso   1.000  C
  H9       1.0000 0.19230  0.72970  0.70100  Biso   1.000  H
  H10      1.0000 0.80770  0.27030  0.20100  Biso   1.000  H
  H11      1.0000 0.30770  0.72970  0.20100  Biso   1.000  H
  H12      1.0000 0.69230  0.27030  0.70100  Biso   1.000  H
  C13      1.0000 0.19870  0.59480  0.70694  Biso   1.000  C
  C14      1.0000 0.80130  0.40520  0.20694  Biso   1.000  C
  C15      1.0000 0.30130  0.59480  0.20694  Biso   1.000  C
  C16      1.0000 0.69870  0.40520  0.70694  Biso   1.000  C
  C17      1.0000 0.14720  0.50580  0.71240  Biso   1.000  C
  C18      1.0000 0.85280  0.49420  0.21240  Biso   1.000  C
  C19      1.0000 0.35280  0.50580  0.21240  Biso   1.000  C
  C20      1.0000 0.64720  0.49420  0.71240  Biso   1.000  C
  C21      1.0000 0.18780  0.40570  0.70900  Biso   1.000  C
  C22      1.0000 0.81220  0.59430  0.20900  Biso   1.000  C
  C23      1.0000 0.31220  0.40570  0.20900  Biso   1.000  C
  C24      1.0000 0.68780  0.59430  0.70900  Biso   1.000  C
  C25      1.0000 0.31220  0.59490  0.69710  Biso   1.000  C
  C26      1.0000 0.68780  0.40510  0.19710  Biso   1.000  C
  C27      1.0000 0.18780  0.59490  0.19710  Biso   1.000  C
  C28      1.0000 0.81220  0.40510  0.69710  Biso   1.000  C
  C29      1.0000 0.58020  0.08620  0.05510  Biso   1.000  C
  C30      1.0000 0.41980  0.91380  0.55510  Biso   1.000  C
  C31      1.0000 0.91980  0.08620  0.55510  Biso   1.000  C
  C32      1.0000 0.08020  0.91380  0.05510  Biso   1.000  C
  H13      1.0000 0.51310  0.08680  0.04900  Biso   1.000  H
  H14      1.0000 0.48690  0.91320  0.54900  Biso   1.000  H
  H15      1.0000 0.98690  0.08680  0.54900  Biso   1.000  H
  H16      1.0000 0.01310  0.91320  0.04900  Biso   1.000  H
  C33      1.0000 0.62730  0.17130  0.06430  Biso   1.000  C
  C34      1.0000 0.37270  0.82870  0.56430  Biso   1.000  C
  C35      1.0000 0.87270  0.17130  0.56430  Biso   1.000  C
  C36      1.0000 0.12730  0.82870  0.06430  Biso   1.000  C
  H17      1.0000 0.59400  0.23030  0.06370  Biso   1.000  H
  H18      1.0000 0.40600  0.76970  0.56370  Biso   1.000  H
  H19      1.0000 0.90600  0.23030  0.56370  Biso   1.000  H
  H20      1.0000 0.09400  0.76970  0.06370  Biso   1.000  H
  C37      1.0000 0.72820  0.16800  0.07470  Biso   1.000  C
  C38      1.0000 0.27180  0.83200  0.57470  Biso   1.000  C
  C39      1.0000 0.77180  0.16800  0.57470  Biso   1.000  C
  C40      1.0000 0.22820  0.83200  0.07470  Biso   1.000  C
  H21      1.0000 0.76090  0.22550  0.08450  Biso   1.000  H
  H22      1.0000 0.23910  0.77450  0.58450  Biso   1.000  H
  H23      1.0000 0.73910  0.22550  0.58450  Biso   1.000  H
  H24      1.0000 0.26090  0.77450  0.08450  Biso   1.000  H
  C41      1.0000 0.78260  0.07960  0.07090  Biso   1.000  C
  C42      1.0000 0.21740  0.92040  0.57090  Biso   1.000  C
  C43      1.0000 0.71740  0.07960  0.57090  Biso   1.000  C
  C44      1.0000 0.28260  0.92040  0.07090  Biso   1.000  C
  C45      1.0000 0.72820  0.99420  0.06352  Biso   1.000  C
  C46      1.0000 0.27180  0.00580  0.56352  Biso   1.000  C
  C47      1.0000 0.77180  0.99420  0.56352  Biso   1.000  C
  C48      1.0000 0.22820  0.00580  0.06352  Biso   1.000  C
  C49      1.0000 0.88780  0.09250  0.07910  Biso   1.000  C
  C50      1.0000 0.11220  0.90750  0.57910  Biso   1.000  C
  C51      1.0000 0.61220  0.09250  0.57910  Biso   1.000  C
  C52      1.0000 0.38780  0.90750  0.07910  Biso   1.000  C
  C53      1.0000 0.76930  0.89560  0.06732  Biso   1.000  C
  C54      1.0000 0.23070  0.10440  0.56732  Biso   1.000  C
  C55      1.0000 0.73070  0.89560  0.56732  Biso   1.000  C
  C56      1.0000 0.26930  0.10440  0.06732  Biso   1.000  C
  C57      1.0000 0.99570  0.16780  0.71270  Biso   1.000  C
  C58      1.0000 0.00430  0.83220  0.21270  Biso   1.000  C
  C59      1.0000 0.50430  0.16780  0.21270  Biso   1.000  C
  C60      1.0000 0.49570  0.83220  0.71270  Biso   1.000  C
  H25      1.0000 0.03820  0.18490  0.67910  Biso   1.000  H
  H26      1.0000 0.96180  0.81510  0.17910  Biso   1.000  H
  H27      1.0000 0.46180  0.18490  0.17910  Biso   1.000  H
  H28      1.0000 0.53820  0.81510  0.67910  Biso   1.000  H
  C61      1.0000 0.97720  0.07260  0.72020  Biso   1.000  C
  C62      1.0000 0.02280  0.92740  0.22020  Biso   1.000  C
  C63      1.0000 0.52280  0.07260  0.22020  Biso   1.000  C
  C64      1.0000 0.47720  0.92740  0.72020  Biso   1.000  C
  H29      1.0000 0.99660  0.02860  0.68800  Biso   1.000  H
  H30      1.0000 0.00340  0.97140  0.18800  Biso   1.000  H
  H31      1.0000 0.50340  0.02860  0.18800  Biso   1.000  H
  H32      1.0000 0.49660  0.97140  0.68800  Biso   1.000  H
  C65      1.0000 0.92800  0.03840  0.77720  Biso   1.000  C
  C66      1.0000 0.07200  0.96160  0.27720  Biso   1.000  C
  C67      1.0000 0.57200  0.03840  0.27720  Biso   1.000  C
  C68      1.0000 0.42800  0.96160  0.77720  Biso   1.000  C
  C69      1.0000 0.89300  0.11000  0.81270  Biso   1.000  C
  C70      1.0000 0.10700  0.89000  0.31270  Biso   1.000  C
  C71      1.0000 0.60700  0.11000  0.31270  Biso   1.000  C
  C72      1.0000 0.39300  0.89000  0.81270  Biso   1.000  C
  H33      1.0000 0.85730  0.09350  0.84980  Biso   1.000  H
  H34      1.0000 0.14270  0.90650  0.34980  Biso   1.000  H
  H35      1.0000 0.64270  0.09350  0.34980  Biso   1.000  H
  H36      1.0000 0.35730  0.90650  0.84980  Biso   1.000  H
  C73      1.0000 0.90480  0.20740  0.79930  Biso   1.000  C
  C74      1.0000 0.09520  0.79260  0.29930  Biso   1.000  C
  C75      1.0000 0.59520  0.20740  0.29930  Biso   1.000  C
  C76      1.0000 0.40480  0.79260  0.79930  Biso   1.000  C
  H37      1.0000 0.87460  0.25330  0.82600  Biso   1.000  H
  H38      1.0000 0.12540  0.74670  0.32600  Biso   1.000  H
  H39      1.0000 0.62540  0.25330  0.32600  Biso   1.000  H
  H40      1.0000 0.37460  0.74670  0.82600  Biso   1.000  H
  C77      1.0000 0.91840  0.92980  0.79070  Biso   1.000  C
  C78      1.0000 0.08160  0.07020  0.29070  Biso   1.000  C
  C79      1.0000 0.58160  0.92980  0.29070  Biso   1.000  C
  C80      1.0000 0.41840  0.07020  0.79070  Biso   1.000  C
  H41      1.0000 0.89010  0.92100  0.83390  Biso   1.000  H
  H42      1.0000 0.10990  0.07900  0.33390  Biso   1.000  H
  H43      1.0000 0.60990  0.92100  0.33390  Biso   1.000  H
  H44      1.0000 0.39010  0.07900  0.83390  Biso   1.000  H
  H45      1.0000 0.98290  0.90110  0.79140  Biso   1.000  H
  H46      1.0000 0.01710  0.09890  0.29140  Biso   1.000  H
  H47      1.0000 0.51710  0.90110  0.29140  Biso   1.000  H
  H48      1.0000 0.48290  0.09890  0.79140  Biso   1.000  H
  C81      1.0000 0.85550  0.87460  0.74020  Biso   1.000  C
  C82      1.0000 0.14450  0.12540  0.24020  Biso   1.000  C
  C83      1.0000 0.64450  0.87460  0.24020  Biso   1.000  C
  C84      1.0000 0.35550  0.12540  0.74020  Biso   1.000  C
  H49      1.0000 0.88390  0.88410  0.69710  Biso   1.000  H
  H50      1.0000 0.11610  0.11590  0.19710  Biso   1.000  H
  H51      1.0000 0.61610  0.88410  0.19710  Biso   1.000  H
  H52      1.0000 0.38390  0.11590  0.69710  Biso   1.000  H
  H53      1.0000 0.85880  0.80550  0.75000  Biso   1.000  H
  H54      1.0000 0.14120  0.19450  0.25000  Biso   1.000  H
  H55      1.0000 0.64120  0.80550  0.25000  Biso   1.000  H
  H56      1.0000 0.35880  0.19450  0.75000  Biso   1.000  H
  C85      1.0000 0.74890  0.90440  0.73730  Biso   1.000  C
  C86      1.0000 0.25110  0.09560  0.23730  Biso   1.000  C
  C87      1.0000 0.75110  0.90440  0.23730  Biso   1.000  C
  C88      1.0000 0.24890  0.09560  0.73730  Biso   1.000  C
  H57      1.0000 0.74420  0.97200  0.72360  Biso   1.000  H
  H58      1.0000 0.25580  0.02800  0.22360  Biso   1.000  H
  H59      1.0000 0.75580  0.97200  0.22360  Biso   1.000  H
  H60      1.0000 0.24420  0.02800  0.72360  Biso   1.000  H
  H61      1.0000 0.71540  0.86480  0.70500  Biso   1.000  H
  H62      1.0000 0.28460  0.13520  0.20500  Biso   1.000  H
  H63      1.0000 0.78460  0.86480  0.20500  Biso   1.000  H
  H64      1.0000 0.21540  0.13520  0.70500  Biso   1.000  H
  C89      1.0000 0.70000  0.89220  0.80350  Biso   1.000  C
  C90      1.0000 0.30000  0.10780  0.30350  Biso   1.000  C
  C91      1.0000 0.80000  0.89220  0.30350  Biso   1.000  C
  C92      1.0000 0.20000  0.10780  0.80350  Biso   1.000  C
  C93      1.0000 0.65880  0.97150  0.83820  Biso   1.000  C
  C94      1.0000 0.34120  0.02850  0.33820  Biso   1.000  C
  C95      1.0000 0.84120  0.97150  0.33820  Biso   1.000  C
  C96      1.0000 0.15880  0.02850  0.83820  Biso   1.000  C
  H65      1.0000 0.66100  0.03380  0.82030  Biso   1.000  H
  H66      1.0000 0.33900  0.96620  0.32030  Biso   1.000  H
  H67      1.0000 0.83900  0.03380  0.32030  Biso   1.000  H
  H68      1.0000 0.16100  0.96620  0.82030  Biso   1.000  H
  C97      1.0000 0.61440  0.95650  0.89950  Biso   1.000  C
  C98      1.0000 0.38560  0.04350  0.39950  Biso   1.000  C
  C99      1.0000 0.88560  0.95650  0.39950  Biso   1.000  C
  C100     1.0000 0.11440  0.04350  0.89950  Biso   1.000  C
  H69      1.0000 0.58510  0.00950  0.92000  Biso   1.000  H
  H70      1.0000 0.41490  0.99050  0.42000  Biso   1.000  H
  H71      1.0000 0.91490  0.00950  0.42000  Biso   1.000  H
  H72      1.0000 0.08510  0.99050  0.92000  Biso   1.000  H
  C101     1.0000 0.64970  0.79490  0.90120  Biso   1.000  C
  C102     1.0000 0.35030  0.20510  0.40120  Biso   1.000  C
  C103     1.0000 0.85030  0.79490  0.40120  Biso   1.000  C
  C104     1.0000 0.14970  0.20510  0.90120  Biso   1.000  C
  H73      1.0000 0.64630  0.73480  0.92220  Biso   1.000  H
  H74      1.0000 0.35370  0.26520  0.42220  Biso   1.000  H
  H75      1.0000 0.85370  0.73480  0.42220  Biso   1.000  H
  H76      1.0000 0.14630  0.26520  0.92220  Biso   1.000  H
  C105     1.0000 0.69780  0.80510  0.83590  Biso   1.000  C
  C106     1.0000 0.30220  0.19490  0.33590  Biso   1.000  C
  C107     1.0000 0.80220  0.80510  0.33590  Biso   1.000  C
  C108     1.0000 0.19780  0.19490  0.83590  Biso   1.000  C
  H77      1.0000 0.72690  0.75090  0.81680  Biso   1.000  H
  H78      1.0000 0.27310  0.24910  0.31680  Biso   1.000  H
  H79      1.0000 0.77310  0.75090  0.31680  Biso   1.000  H
  H80      1.0000 0.22690  0.24910  0.81680  Biso   1.000  H
  C109     1.0000 0.58060  0.65580  0.05746  Biso   1.000  C
  C110     1.0000 0.41940  0.34420  0.55746  Biso   1.000  C
  C111     1.0000 0.91940  0.65580  0.55746  Biso   1.000  C
  C112     1.0000 0.08060  0.34420  0.05746  Biso   1.000  C
  H81      1.0000 0.63930  0.67340  0.07690  Biso   1.000  H
  H82      1.0000 0.36070  0.32660  0.57690  Biso   1.000  H
  H83      1.0000 0.86070  0.67340  0.57690  Biso   1.000  H
  H84      1.0000 0.13930  0.32660  0.07690  Biso   1.000  H
  C113     1.0000 0.55780  0.55010  0.05690  Biso   1.000  C
  C114     1.0000 0.44220  0.44990  0.55690  Biso   1.000  C
  C115     1.0000 0.94220  0.55010  0.55690  Biso   1.000  C
  C116     1.0000 0.05780  0.44990  0.05690  Biso   1.000  C
  H85      1.0000 0.60040  0.50280  0.07240  Biso   1.000  H
  H86      1.0000 0.39960  0.49720  0.57240  Biso   1.000  H
  H87      1.0000 0.89960  0.50280  0.57240  Biso   1.000  H
  H88      1.0000 0.10040  0.49720  0.07240  Biso   1.000  H
  C117     1.0000 0.46430  0.52810  0.03030  Biso   1.000  C
  C118     1.0000 0.53570  0.47190  0.53030  Biso   1.000  C
  C119     1.0000 0.03570  0.52810  0.53030  Biso   1.000  C
  C120     1.0000 0.96430  0.47190  0.03030  Biso   1.000  C
  C121     1.0000 0.40830  0.60730  0.00740  Biso   1.000  C
  C122     1.0000 0.59170  0.39270  0.50740  Biso   1.000  C
  C123     1.0000 0.09170  0.60730  0.50740  Biso   1.000  C
  C124     1.0000 0.90830  0.39270  0.00740  Biso   1.000  C
  H89      1.0000 0.34590  0.59560  0.99150  Biso   1.000  H
  H90      1.0000 0.65410  0.40440  0.49150  Biso   1.000  H
  H91      1.0000 0.15410  0.59560  0.49150  Biso   1.000  H
  H92      1.0000 0.84590  0.40440  0.99150  Biso   1.000  H
  C125     1.0000 0.44400  0.70330  0.00780  Biso   1.000  C
  C126     1.0000 0.55600  0.29670  0.50780  Biso   1.000  C
  C127     1.0000 0.05600  0.70330  0.50780  Biso   1.000  C
  C128     1.0000 0.94400  0.29670  0.00780  Biso   1.000  C
  H93      1.0000 0.40680  0.75250  0.98890  Biso   1.000  H
  H94      1.0000 0.59320  0.24750  0.48890  Biso   1.000  H
  H95      1.0000 0.09320  0.75250  0.48890  Biso   1.000  H
  H96      1.0000 0.90680  0.24750  0.98890  Biso   1.000  H
  C129     1.0000 0.42840  0.42880  0.02840  Biso   1.000  C
  C130     1.0000 0.57160  0.57120  0.52840  Biso   1.000  C
  C131     1.0000 0.07160  0.42880  0.52840  Biso   1.000  C
  C132     1.0000 0.92840  0.57120  0.02840  Biso   1.000  C
  H97      1.0000 0.39100  0.41930  0.06820  Biso   1.000  H
  H98      1.0000 0.60900  0.58070  0.56820  Biso   1.000  H
  H99      1.0000 0.10900  0.41930  0.56820  Biso   1.000  H
  H100     1.0000 0.89100  0.58070  0.06820  Biso   1.000  H
  H101     1.0000 0.48500  0.38680  0.03170  Biso   1.000  H
  H102     1.0000 0.51500  0.61320  0.53170  Biso   1.000  H
  H103     1.0000 0.01500  0.38680  0.53170  Biso   1.000  H
  H104     1.0000 0.98500  0.61320  0.03170  Biso   1.000  H
  C133     1.0000 0.36880  0.39040  0.97430  Biso   1.000  C
  C134     1.0000 0.63120  0.60960  0.47430  Biso   1.000  C
  C135     1.0000 0.13120  0.39040  0.47430  Biso   1.000  C
  C136     1.0000 0.86880  0.60960  0.97430  Biso   1.000  C
  H105     1.0000 0.30850  0.42720  0.97250  Biso   1.000  H
  H106     1.0000 0.69150  0.57280  0.47250  Biso   1.000  H
  H107     1.0000 0.19150  0.42720  0.47250  Biso   1.000  H
  H108     1.0000 0.80850  0.57280  0.97250  Biso   1.000  H
  H109     1.0000 0.35220  0.32320  0.98410  Biso   1.000  H
  H110     1.0000 0.64780  0.67680  0.48410  Biso   1.000  H
  H111     1.0000 0.14780  0.32320  0.48410  Biso   1.000  H
  H112     1.0000 0.85220  0.67680  0.98410  Biso   1.000  H
  C137     1.0000 0.41600  0.39410  0.90830  Biso   1.000  C
  C138     1.0000 0.58400  0.60590  0.40830  Biso   1.000  C
  C139     1.0000 0.08400  0.39410  0.40830  Biso   1.000  C
  C140     1.0000 0.91600  0.60590  0.90830  Biso   1.000  C
  H113     1.0000 0.40680  0.45930  0.89100  Biso   1.000  H
  H114     1.0000 0.59320  0.54070  0.39100  Biso   1.000  H
  H115     1.0000 0.09320  0.45930  0.39100  Biso   1.000  H
  H116     1.0000 0.90680  0.54070  0.89100  Biso   1.000  H
  H117     1.0000 0.38060  0.34990  0.87980  Biso   1.000  H
  H118     1.0000 0.61940  0.65010  0.37980  Biso   1.000  H
  H119     1.0000 0.11940  0.34990  0.37980  Biso   1.000  H
  H120     1.0000 0.88060  0.65010  0.87980  Biso   1.000  H
  C141     1.0000 0.52500  0.36920  0.90250  Biso   1.000  C
  C142     1.0000 0.47500  0.63080  0.40250  Biso   1.000  C
  C143     1.0000 0.97500  0.36920  0.40250  Biso   1.000  C
  C144     1.0000 0.02500  0.63080  0.90250  Biso   1.000  C
  C145     1.0000 0.59070  0.43580  0.88660  Biso   1.000  C
  C146     1.0000 0.40930  0.56420  0.38660  Biso   1.000  C
  C147     1.0000 0.90930  0.43580  0.38660  Biso   1.000  C
  C148     1.0000 0.09070  0.56420  0.88660  Biso   1.000  C
  H121     1.0000 0.57280  0.50020  0.87920  Biso   1.000  H
  H122     1.0000 0.42720  0.49980  0.37920  Biso   1.000  H
  H123     1.0000 0.92720  0.50020  0.37920  Biso   1.000  H
  H124     1.0000 0.07280  0.49980  0.87920  Biso   1.000  H
  C149     1.0000 0.69010  0.40570  0.88130  Biso   1.000  C
  C150     1.0000 0.30990  0.59430  0.38130  Biso   1.000  C
  C151     1.0000 0.80990  0.40570  0.38130  Biso   1.000  C
  C152     1.0000 0.19010  0.59430  0.88130  Biso   1.000  C
  H125     1.0000 0.73850  0.45020  0.87050  Biso   1.000  H
  H126     1.0000 0.26150  0.54980  0.37050  Biso   1.000  H
  H127     1.0000 0.76150  0.45020  0.37050  Biso   1.000  H
  H128     1.0000 0.23850  0.54980  0.87050  Biso   1.000  H
  C153     1.0000 0.65160  0.25240  0.90210  Biso   1.000  C
  C154     1.0000 0.34840  0.74760  0.40210  Biso   1.000  C
  C155     1.0000 0.84840  0.25240  0.40210  Biso   1.000  C
  C156     1.0000 0.15160  0.74760  0.90210  Biso   1.000  C
  H129     1.0000 0.67250  0.18820  0.90560  Biso   1.000  H
  H130     1.0000 0.32750  0.81180  0.40560  Biso   1.000  H
  H131     1.0000 0.82750  0.18820  0.40560  Biso   1.000  H
  H132     1.0000 0.17250  0.81180  0.90560  Biso   1.000  H
  C157     1.0000 0.54630  0.27880  0.90930  Biso   1.000  C
  C158     1.0000 0.45370  0.72120  0.40930  Biso   1.000  C
  C159     1.0000 0.95370  0.27880  0.40930  Biso   1.000  C
  C160     1.0000 0.04630  0.72120  0.90930  Biso   1.000  C
  H133     1.0000 0.49890  0.23220  0.91830  Biso   1.000  H
  H134     1.0000 0.50110  0.76780  0.41830  Biso   1.000  H
  H135     1.0000 0.00110  0.23220  0.41830  Biso   1.000  H
  H136     1.0000 0.99890  0.76780  0.91830  Biso   1.000  H
