data_image0
_cell_length_a       13.8882
_cell_length_b       14.6592
_cell_length_c       21.181
_cell_angle_alpha    90
_cell_angle_beta     90
_cell_angle_gamma    90

_symmetry_space_group_name_H-M    "P 1"
_symmetry_int_tables_number       1

loop_
  _symmetry_equiv_pos_as_xyz
  'x, y, z'

loop_
  _atom_site_label
  _atom_site_occupancy
  _atom_site_fract_x
  _atom_site_fract_y
  _atom_site_fract_z
  _atom_site_thermal_displace_type
  _atom_site_B_iso_or_equiv
  _atom_site_type_symbol
  Cu1      1.0000 0.35696  0.87653  0.38849  Biso   1.000  Cu
  Cu2      1.0000 0.14304  0.62347  0.88849  Biso   1.000  Cu
  Cu3      1.0000 0.85696  0.62347  0.61151  Biso   1.000  Cu
  Cu4      1.0000 0.64304  0.87653  0.11151  Biso   1.000  Cu
  Cu5      1.0000 0.64304  0.12347  0.61151  Biso   1.000  Cu
  Cu6      1.0000 0.85696  0.37653  0.11151  Biso   1.000  Cu
  Cu7      1.0000 0.14304  0.37653  0.38849  Biso   1.000  Cu
  Cu8      1.0000 0.35696  0.12347  0.88849  Biso   1.000  Cu
  N1       1.0000 0.24123  0.94037  0.41207  Biso   1.000  N
  N2       1.0000 0.25877  0.55963  0.91207  Biso   1.000  N
  N3       1.0000 0.74123  0.55963  0.58793  Biso   1.000  N
  N4       1.0000 0.75877  0.94037  0.08793  Biso   1.000  N
  N5       1.0000 0.75877  0.05963  0.58793  Biso   1.000  N
  N6       1.0000 0.74123  0.44037  0.08793  Biso   1.000  N
  N7       1.0000 0.25877  0.44037  0.41207  Biso   1.000  N
  N8       1.0000 0.24123  0.05963  0.91207  Biso   1.000  N
  N9       1.0000 0.47855  0.81523  0.38462  Biso   1.000  N
  N10      1.0000 0.02145  0.68477  0.88462  Biso   1.000  N
  N11      1.0000 0.97855  0.68477  0.61538  Biso   1.000  N
  N12      1.0000 0.52145  0.81523  0.11538  Biso   1.000  N
  N13      1.0000 0.52145  0.18477  0.61538  Biso   1.000  N
  N14      1.0000 0.97855  0.31523  0.11538  Biso   1.000  N
  N15      1.0000 0.02145  0.31523  0.38462  Biso   1.000  N
  N16      1.0000 0.47855  0.18477  0.88462  Biso   1.000  N
  N17      1.0000 0.83155  0.39747  0.21520  Biso   1.000  N
  N18      1.0000 0.66845  0.10253  0.71520  Biso   1.000  N
  N19      1.0000 0.33155  0.10253  0.78480  Biso   1.000  N
  N20      1.0000 0.16845  0.39747  0.28480  Biso   1.000  N
  N21      1.0000 0.16845  0.60253  0.78480  Biso   1.000  N
  N22      1.0000 0.33155  0.89747  0.28480  Biso   1.000  N
  N23      1.0000 0.66845  0.89747  0.21520  Biso   1.000  N
  N24      1.0000 0.83155  0.60253  0.71520  Biso   1.000  N
  O1       1.0000 0.40907  0.00285  0.40518  Biso   1.000  O
  O2       1.0000 0.09093  0.49715  0.90518  Biso   1.000  O
  O3       1.0000 0.90907  0.49715  0.59482  Biso   1.000  O
  O4       1.0000 0.59093  0.00285  0.09482  Biso   1.000  O
  O5       1.0000 0.59093  0.99715  0.59482  Biso   1.000  O
  O6       1.0000 0.90907  0.50285  0.09482  Biso   1.000  O
  O7       1.0000 0.09093  0.50285  0.40518  Biso   1.000  O
  O8       1.0000 0.40907  0.99715  0.90518  Biso   1.000  O
  O9       1.0000 0.36958  0.15238  0.42789  Biso   1.000  O
  O10      1.0000 0.13042  0.34762  0.92789  Biso   1.000  O
  O11      1.0000 0.86958  0.34762  0.57211  Biso   1.000  O
  O12      1.0000 0.63042  0.15238  0.07211  Biso   1.000  O
  O13      1.0000 0.63042  0.84762  0.57211  Biso   1.000  O
  O14      1.0000 0.86958  0.65238  0.07211  Biso   1.000  O
  O15      1.0000 0.13042  0.65238  0.42789  Biso   1.000  O
  O16      1.0000 0.36958  0.84762  0.92789  Biso   1.000  O
  O17      1.0000 0.19450  0.24660  0.38429  Biso   1.000  O
  O18      1.0000 0.30550  0.25340  0.88429  Biso   1.000  O
  O19      1.0000 0.69450  0.25340  0.61571  Biso   1.000  O
  O20      1.0000 0.80550  0.24660  0.11571  Biso   1.000  O
  O21      1.0000 0.80550  0.75340  0.61571  Biso   1.000  O
  O22      1.0000 0.69450  0.74660  0.11571  Biso   1.000  O
  O23      1.0000 0.30550  0.74660  0.38429  Biso   1.000  O
  O24      1.0000 0.19450  0.75340  0.88429  Biso   1.000  O
  O25      1.0000 0.17248  0.24046  0.48729  Biso   1.000  O
  O26      1.0000 0.32752  0.25954  0.98729  Biso   1.000  O
  O27      1.0000 0.67248  0.25954  0.51271  Biso   1.000  O
  O28      1.0000 0.82752  0.24046  0.01271  Biso   1.000  O
  O29      1.0000 0.82752  0.75954  0.51271  Biso   1.000  O
  O30      1.0000 0.67248  0.74046  0.01271  Biso   1.000  O
  O31      1.0000 0.32752  0.74046  0.48729  Biso   1.000  O
  O32      1.0000 0.17248  0.75954  0.98729  Biso   1.000  O
  C1       1.0000 0.15820  0.90160  0.41294  Biso   1.000  C
  C2       1.0000 0.34180  0.59840  0.91294  Biso   1.000  C
  C3       1.0000 0.65820  0.59840  0.58706  Biso   1.000  C
  C4       1.0000 0.84180  0.90160  0.08706  Biso   1.000  C
  C5       1.0000 0.84180  0.09840  0.58706  Biso   1.000  C
  C6       1.0000 0.65820  0.40160  0.08706  Biso   1.000  C
  C7       1.0000 0.34180  0.40160  0.41294  Biso   1.000  C
  C8       1.0000 0.15820  0.09840  0.91294  Biso   1.000  C
  H1       1.0000 0.15110  0.83930  0.40580  Biso   1.000  H
  H2       1.0000 0.34890  0.66070  0.90580  Biso   1.000  H
  H3       1.0000 0.65110  0.66070  0.59420  Biso   1.000  H
  H4       1.0000 0.84890  0.83930  0.09420  Biso   1.000  H
  H5       1.0000 0.84890  0.16070  0.59420  Biso   1.000  H
  H6       1.0000 0.65110  0.33930  0.09420  Biso   1.000  H
  H7       1.0000 0.34890  0.33930  0.40580  Biso   1.000  H
  H8       1.0000 0.15110  0.16070  0.90580  Biso   1.000  H
  C9       1.0000 0.08180  0.95610  0.42473  Biso   1.000  C
  C10      1.0000 0.41820  0.54390  0.92473  Biso   1.000  C
  C11      1.0000 0.58180  0.54390  0.57527  Biso   1.000  C
  C12      1.0000 0.91820  0.95610  0.07527  Biso   1.000  C
  C13      1.0000 0.91820  0.04390  0.57527  Biso   1.000  C
  C14      1.0000 0.58180  0.45610  0.07527  Biso   1.000  C
  C15      1.0000 0.41820  0.45610  0.42473  Biso   1.000  C
  C16      1.0000 0.08180  0.04390  0.92473  Biso   1.000  C
  H9       1.0000 0.02080  0.93050  0.42790  Biso   1.000  H
  H10      1.0000 0.47920  0.56950  0.92790  Biso   1.000  H
  H11      1.0000 0.52080  0.56950  0.57210  Biso   1.000  H
  H12      1.0000 0.97920  0.93050  0.07210  Biso   1.000  H
  H13      1.0000 0.97920  0.06950  0.57210  Biso   1.000  H
  H14      1.0000 0.52080  0.43050  0.07210  Biso   1.000  H
  H15      1.0000 0.47920  0.43050  0.42790  Biso   1.000  H
  H16      1.0000 0.02080  0.06950  0.92790  Biso   1.000  H
  C17      1.0000 0.09330  0.05400  0.43256  Biso   1.000  C
  C18      1.0000 0.40670  0.44600  0.93256  Biso   1.000  C
  C19      1.0000 0.59330  0.44600  0.56744  Biso   1.000  C
  C20      1.0000 0.90670  0.05400  0.06744  Biso   1.000  C
  C21      1.0000 0.90670  0.94600  0.56744  Biso   1.000  C
  C22      1.0000 0.59330  0.55400  0.06744  Biso   1.000  C
  C23      1.0000 0.40670  0.55400  0.43256  Biso   1.000  C
  C24      1.0000 0.09330  0.94600  0.93256  Biso   1.000  C
  H17      1.0000 0.03850  0.08890  0.43990  Biso   1.000  H
  H18      1.0000 0.46150  0.41110  0.93990  Biso   1.000  H
  H19      1.0000 0.53850  0.41110  0.56010  Biso   1.000  H
  H20      1.0000 0.96150  0.08890  0.06010  Biso   1.000  H
  H21      1.0000 0.96150  0.91110  0.56010  Biso   1.000  H
  H22      1.0000 0.53850  0.58890  0.06010  Biso   1.000  H
  H23      1.0000 0.46150  0.58890  0.43990  Biso   1.000  H
  H24      1.0000 0.03850  0.91110  0.93990  Biso   1.000  H
  C25      1.0000 0.18011  0.09746  0.42976  Biso   1.000  C
  C26      1.0000 0.31989  0.40254  0.92976  Biso   1.000  C
  C27      1.0000 0.68011  0.40254  0.57024  Biso   1.000  C
  C28      1.0000 0.81989  0.09746  0.07024  Biso   1.000  C
  C29      1.0000 0.81989  0.90254  0.57024  Biso   1.000  C
  C30      1.0000 0.68011  0.59746  0.07024  Biso   1.000  C
  C31      1.0000 0.31989  0.59746  0.42976  Biso   1.000  C
  C32      1.0000 0.18011  0.90254  0.92976  Biso   1.000  C
  C33      1.0000 0.25227  0.03641  0.42003  Biso   1.000  C
  C34      1.0000 0.24773  0.46359  0.92003  Biso   1.000  C
  C35      1.0000 0.75227  0.46359  0.57997  Biso   1.000  C
  C36      1.0000 0.74773  0.03641  0.07997  Biso   1.000  C
  C37      1.0000 0.74773  0.96359  0.57997  Biso   1.000  C
  C38      1.0000 0.75227  0.53641  0.07997  Biso   1.000  C
  C39      1.0000 0.24773  0.53641  0.42003  Biso   1.000  C
  C40      1.0000 0.25227  0.96359  0.92003  Biso   1.000  C
  C41      1.0000 0.35154  0.06870  0.41845  Biso   1.000  C
  C42      1.0000 0.14846  0.43130  0.91845  Biso   1.000  C
  C43      1.0000 0.85154  0.43130  0.58155  Biso   1.000  C
  C44      1.0000 0.64846  0.06870  0.08155  Biso   1.000  C
  C45      1.0000 0.64846  0.93130  0.58155  Biso   1.000  C
  C46      1.0000 0.85154  0.56870  0.08155  Biso   1.000  C
  C47      1.0000 0.14846  0.56870  0.41845  Biso   1.000  C
  C48      1.0000 0.35154  0.93130  0.91845  Biso   1.000  C
  C49      1.0000 0.18462  0.20065  0.43578  Biso   1.000  C
  C50      1.0000 0.31538  0.29935  0.93578  Biso   1.000  C
  C51      1.0000 0.68462  0.29935  0.56422  Biso   1.000  C
  C52      1.0000 0.81538  0.20065  0.06422  Biso   1.000  C
  C53      1.0000 0.81538  0.79935  0.56422  Biso   1.000  C
  C54      1.0000 0.68462  0.70065  0.06422  Biso   1.000  C
  C55      1.0000 0.31538  0.70065  0.43578  Biso   1.000  C
  C56      1.0000 0.18462  0.79935  0.93578  Biso   1.000  C
  C57      1.0000 0.53755  0.81498  0.43236  Biso   1.000  C
  C58      1.0000 0.96245  0.68502  0.93236  Biso   1.000  C
  C59      1.0000 0.03755  0.68502  0.56764  Biso   1.000  C
  C60      1.0000 0.46245  0.81498  0.06764  Biso   1.000  C
  C61      1.0000 0.46245  0.18502  0.56764  Biso   1.000  C
  C62      1.0000 0.03755  0.31498  0.06764  Biso   1.000  C
  C63      1.0000 0.96245  0.31498  0.43236  Biso   1.000  C
  C64      1.0000 0.53755  0.18502  0.93236  Biso   1.000  C
  H25      1.0000 0.52790  0.85570  0.46540  Biso   1.000  H
  H26      1.0000 0.97210  0.64430  0.96540  Biso   1.000  H
  H27      1.0000 0.02790  0.64430  0.53460  Biso   1.000  H
  H28      1.0000 0.47210  0.85570  0.03460  Biso   1.000  H
  H29      1.0000 0.47210  0.14430  0.53460  Biso   1.000  H
  H30      1.0000 0.02790  0.35570  0.03460  Biso   1.000  H
  H31      1.0000 0.97210  0.35570  0.46540  Biso   1.000  H
  H32      1.0000 0.52790  0.14430  0.96540  Biso   1.000  H
  C65      1.0000 0.61240  0.75658  0.43454  Biso   1.000  C
  C66      1.0000 0.88760  0.74342  0.93454  Biso   1.000  C
  C67      1.0000 0.11240  0.74342  0.56546  Biso   1.000  C
  C68      1.0000 0.38760  0.75658  0.06546  Biso   1.000  C
  C69      1.0000 0.38760  0.24342  0.56546  Biso   1.000  C
  C70      1.0000 0.11240  0.25658  0.06546  Biso   1.000  C
  C71      1.0000 0.88760  0.25658  0.43454  Biso   1.000  C
  C72      1.0000 0.61240  0.24342  0.93454  Biso   1.000  C
  H33      1.0000 0.65070  0.75470  0.47060  Biso   1.000  H
  H34      1.0000 0.84930  0.74530  0.97060  Biso   1.000  H
  H35      1.0000 0.15070  0.74530  0.52940  Biso   1.000  H
  H36      1.0000 0.34930  0.75470  0.02940  Biso   1.000  H
  H37      1.0000 0.34930  0.24530  0.52940  Biso   1.000  H
  H38      1.0000 0.15070  0.25470  0.02940  Biso   1.000  H
  H39      1.0000 0.84930  0.25470  0.47060  Biso   1.000  H
  H40      1.0000 0.65070  0.24530  0.97060  Biso   1.000  H
  C73      1.0000 0.63386  0.69940  0.38462  Biso   1.000  C
  C74      1.0000 0.86614  0.80060  0.88462  Biso   1.000  C
  C75      1.0000 0.13386  0.80060  0.61538  Biso   1.000  C
  C76      1.0000 0.36614  0.69940  0.11538  Biso   1.000  C
  C77      1.0000 0.36614  0.30060  0.61538  Biso   1.000  C
  C78      1.0000 0.13386  0.19940  0.11538  Biso   1.000  C
  C79      1.0000 0.86614  0.19940  0.38462  Biso   1.000  C
  C80      1.0000 0.63386  0.30060  0.88462  Biso   1.000  C
  C81      1.0000 0.57310  0.70010  0.33363  Biso   1.000  C
  C82      1.0000 0.92690  0.79990  0.83363  Biso   1.000  C
  C83      1.0000 0.07310  0.79990  0.66637  Biso   1.000  C
  C84      1.0000 0.42690  0.70010  0.16637  Biso   1.000  C
  C85      1.0000 0.42690  0.29990  0.66637  Biso   1.000  C
  C86      1.0000 0.07310  0.20010  0.16637  Biso   1.000  C
  C87      1.0000 0.92690  0.20010  0.33363  Biso   1.000  C
  C88      1.0000 0.57310  0.29990  0.83363  Biso   1.000  C
  H41      1.0000 0.58250  0.66180  0.29920  Biso   1.000  H
  H42      1.0000 0.91750  0.83820  0.79920  Biso   1.000  H
  H43      1.0000 0.08250  0.83820  0.70080  Biso   1.000  H
  H44      1.0000 0.41750  0.66180  0.20080  Biso   1.000  H
  H45      1.0000 0.41750  0.33820  0.70080  Biso   1.000  H
  H46      1.0000 0.08250  0.16180  0.20080  Biso   1.000  H
  H47      1.0000 0.91750  0.16180  0.29920  Biso   1.000  H
  H48      1.0000 0.58250  0.33820  0.79920  Biso   1.000  H
  C89      1.0000 0.49980  0.75850  0.33603  Biso   1.000  C
  C90      1.0000 0.00020  0.74150  0.83603  Biso   1.000  C
  C91      1.0000 0.99980  0.74150  0.66397  Biso   1.000  C
  C92      1.0000 0.50020  0.75850  0.16397  Biso   1.000  C
  C93      1.0000 0.50020  0.24150  0.66397  Biso   1.000  C
  C94      1.0000 0.99980  0.25850  0.16397  Biso   1.000  C
  C95      1.0000 0.00020  0.25850  0.33603  Biso   1.000  C
  C96      1.0000 0.49980  0.24150  0.83603  Biso   1.000  C
  H49      1.0000 0.45940  0.76060  0.30110  Biso   1.000  H
  H50      1.0000 0.04060  0.73940  0.80110  Biso   1.000  H
  H51      1.0000 0.95940  0.73940  0.69890  Biso   1.000  H
  H52      1.0000 0.54060  0.76060  0.19890  Biso   1.000  H
  H53      1.0000 0.54060  0.23940  0.69890  Biso   1.000  H
  H54      1.0000 0.95940  0.26060  0.19890  Biso   1.000  H
  H55      1.0000 0.04060  0.26060  0.30110  Biso   1.000  H
  H56      1.0000 0.45940  0.23940  0.80110  Biso   1.000  H
  C97      1.0000 0.71390  0.63170  0.38594  Biso   1.000  C
  C98      1.0000 0.78610  0.86830  0.88594  Biso   1.000  C
  C99      1.0000 0.21390  0.86830  0.61406  Biso   1.000  C
  C100     1.0000 0.28610  0.63170  0.11406  Biso   1.000  C
  C101     1.0000 0.28610  0.36830  0.61406  Biso   1.000  C
  C102     1.0000 0.21390  0.13170  0.11406  Biso   1.000  C
  C103     1.0000 0.78610  0.13170  0.38594  Biso   1.000  C
  C104     1.0000 0.71390  0.36830  0.88594  Biso   1.000  C
  H57      1.0000 0.76520  0.65630  0.41200  Biso   1.000  H
  H58      1.0000 0.73480  0.84370  0.91200  Biso   1.000  H
  H59      1.0000 0.26520  0.84370  0.58800  Biso   1.000  H
  H60      1.0000 0.23480  0.65630  0.08800  Biso   1.000  H
  H61      1.0000 0.23480  0.34370  0.58800  Biso   1.000  H
  H62      1.0000 0.26520  0.15630  0.08800  Biso   1.000  H
  H63      1.0000 0.73480  0.15630  0.41200  Biso   1.000  H
  H64      1.0000 0.76520  0.34370  0.91200  Biso   1.000  H
  H65      1.0000 0.73910  0.62580  0.34340  Biso   1.000  H
  H66      1.0000 0.76090  0.87420  0.84340  Biso   1.000  H
  H67      1.0000 0.23910  0.87420  0.65660  Biso   1.000  H
  H68      1.0000 0.26090  0.62580  0.15660  Biso   1.000  H
  H69      1.0000 0.26090  0.37420  0.65660  Biso   1.000  H
  H70      1.0000 0.23910  0.12580  0.15660  Biso   1.000  H
  H71      1.0000 0.76090  0.12580  0.34340  Biso   1.000  H
  H72      1.0000 0.73910  0.37420  0.84340  Biso   1.000  H
  C105     1.0000 0.68940  0.53580  0.41041  Biso   1.000  C
  C106     1.0000 0.81060  0.96420  0.91041  Biso   1.000  C
  C107     1.0000 0.18940  0.96420  0.58959  Biso   1.000  C
  C108     1.0000 0.31060  0.53580  0.08959  Biso   1.000  C
  C109     1.0000 0.31060  0.46420  0.58959  Biso   1.000  C
  C110     1.0000 0.18940  0.03580  0.08959  Biso   1.000  C
  C111     1.0000 0.81060  0.03580  0.41041  Biso   1.000  C
  C112     1.0000 0.68940  0.46420  0.91041  Biso   1.000  C
  H73      1.0000 0.66810  0.54160  0.45390  Biso   1.000  H
  H74      1.0000 0.83190  0.95840  0.95390  Biso   1.000  H
  H75      1.0000 0.16810  0.95840  0.54610  Biso   1.000  H
  H76      1.0000 0.33190  0.54160  0.04610  Biso   1.000  H
  H77      1.0000 0.33190  0.45840  0.54610  Biso   1.000  H
  H78      1.0000 0.16810  0.04160  0.04610  Biso   1.000  H
  H79      1.0000 0.83190  0.04160  0.45390  Biso   1.000  H
  H80      1.0000 0.66810  0.45840  0.95390  Biso   1.000  H
  H81      1.0000 0.63500  0.51320  0.38620  Biso   1.000  H
  H82      1.0000 0.86500  0.98680  0.88620  Biso   1.000  H
  H83      1.0000 0.13500  0.98680  0.61380  Biso   1.000  H
  H84      1.0000 0.36500  0.51320  0.11380  Biso   1.000  H
  H85      1.0000 0.36500  0.48680  0.61380  Biso   1.000  H
  H86      1.0000 0.13500  0.01320  0.11380  Biso   1.000  H
  H87      1.0000 0.86500  0.01320  0.38620  Biso   1.000  H
  H88      1.0000 0.63500  0.48680  0.88620  Biso   1.000  H
  C113     1.0000 0.76750  0.46390  0.40842  Biso   1.000  C
  C114     1.0000 0.73250  0.03610  0.90842  Biso   1.000  C
  C115     1.0000 0.26750  0.03610  0.59158  Biso   1.000  C
  C116     1.0000 0.23250  0.46390  0.09158  Biso   1.000  C
  C117     1.0000 0.23250  0.53610  0.59158  Biso   1.000  C
  C118     1.0000 0.26750  0.96390  0.09158  Biso   1.000  C
  C119     1.0000 0.73250  0.96390  0.40842  Biso   1.000  C
  C120     1.0000 0.76750  0.53610  0.90842  Biso   1.000  C
  H89      1.0000 0.82490  0.48710  0.42900  Biso   1.000  H
  H90      1.0000 0.67510  0.01290  0.92900  Biso   1.000  H
  H91      1.0000 0.32490  0.01290  0.57100  Biso   1.000  H
  H92      1.0000 0.17510  0.48710  0.07100  Biso   1.000  H
  H93      1.0000 0.17510  0.51290  0.57100  Biso   1.000  H
  H94      1.0000 0.32490  0.98710  0.07100  Biso   1.000  H
  H95      1.0000 0.67510  0.98710  0.42900  Biso   1.000  H
  H96      1.0000 0.82490  0.51290  0.92900  Biso   1.000  H
  H97      1.0000 0.74630  0.41030  0.43140  Biso   1.000  H
  H98      1.0000 0.75370  0.08970  0.93140  Biso   1.000  H
  H99      1.0000 0.24630  0.08970  0.56860  Biso   1.000  H
  H100     1.0000 0.25370  0.41030  0.06860  Biso   1.000  H
  H101     1.0000 0.25370  0.58970  0.56860  Biso   1.000  H
  H102     1.0000 0.24630  0.91030  0.06860  Biso   1.000  H
  H103     1.0000 0.75370  0.91030  0.43140  Biso   1.000  H
  H104     1.0000 0.74630  0.58970  0.93140  Biso   1.000  H
  C121     1.0000 0.79140  0.43760  0.34153  Biso   1.000  C
  C122     1.0000 0.70860  0.06240  0.84153  Biso   1.000  C
  C123     1.0000 0.29140  0.06240  0.65847  Biso   1.000  C
  C124     1.0000 0.20860  0.43760  0.15847  Biso   1.000  C
  C125     1.0000 0.20860  0.56240  0.65847  Biso   1.000  C
  C126     1.0000 0.29140  0.93760  0.15847  Biso   1.000  C
  C127     1.0000 0.70860  0.93760  0.34153  Biso   1.000  C
  C128     1.0000 0.79140  0.56240  0.84153  Biso   1.000  C
  C129     1.0000 0.86260  0.48380  0.31063  Biso   1.000  C
  C130     1.0000 0.63740  0.01620  0.81063  Biso   1.000  C
  C131     1.0000 0.36260  0.01620  0.68937  Biso   1.000  C
  C132     1.0000 0.13740  0.48380  0.18937  Biso   1.000  C
  C133     1.0000 0.13740  0.51620  0.68937  Biso   1.000  C
  C134     1.0000 0.36260  0.98380  0.18937  Biso   1.000  C
  C135     1.0000 0.63740  0.98380  0.31063  Biso   1.000  C
  C136     1.0000 0.86260  0.51620  0.81063  Biso   1.000  C
  H105     1.0000 0.89820  0.52870  0.33100  Biso   1.000  H
  H106     1.0000 0.60180  0.97130  0.83100  Biso   1.000  H
  H107     1.0000 0.39820  0.97130  0.66900  Biso   1.000  H
  H108     1.0000 0.10180  0.52870  0.16900  Biso   1.000  H
  H109     1.0000 0.10180  0.47130  0.66900  Biso   1.000  H
  H110     1.0000 0.39820  0.02870  0.16900  Biso   1.000  H
  H111     1.0000 0.60180  0.02870  0.33100  Biso   1.000  H
  H112     1.0000 0.89820  0.47130  0.83100  Biso   1.000  H
  C137     1.0000 0.88040  0.46160  0.24748  Biso   1.000  C
  C138     1.0000 0.61960  0.03840  0.74748  Biso   1.000  C
  C139     1.0000 0.38040  0.03840  0.75252  Biso   1.000  C
  C140     1.0000 0.11960  0.46160  0.25252  Biso   1.000  C
  C141     1.0000 0.11960  0.53840  0.75252  Biso   1.000  C
  C142     1.0000 0.38040  0.96160  0.25252  Biso   1.000  C
  C143     1.0000 0.61960  0.96160  0.24748  Biso   1.000  C
  C144     1.0000 0.88040  0.53840  0.74748  Biso   1.000  C
  H113     1.0000 0.92890  0.49310  0.22650  Biso   1.000  H
  H114     1.0000 0.57110  0.00690  0.72650  Biso   1.000  H
  H115     1.0000 0.42890  0.00690  0.77350  Biso   1.000  H
  H116     1.0000 0.07110  0.49310  0.27350  Biso   1.000  H
  H117     1.0000 0.07110  0.50690  0.77350  Biso   1.000  H
  H118     1.0000 0.42890  0.99310  0.27350  Biso   1.000  H
  H119     1.0000 0.57110  0.99310  0.22650  Biso   1.000  H
  H120     1.0000 0.92890  0.50690  0.72650  Biso   1.000  H
  C145     1.0000 0.76120  0.35370  0.24560  Biso   1.000  C
  C146     1.0000 0.73880  0.14630  0.74560  Biso   1.000  C
  C147     1.0000 0.26120  0.14630  0.75440  Biso   1.000  C
  C148     1.0000 0.23880  0.35370  0.25440  Biso   1.000  C
  C149     1.0000 0.23880  0.64630  0.75440  Biso   1.000  C
  C150     1.0000 0.26120  0.85370  0.25440  Biso   1.000  C
  C151     1.0000 0.73880  0.85370  0.24560  Biso   1.000  C
  C152     1.0000 0.76120  0.64630  0.74560  Biso   1.000  C
  H121     1.0000 0.72540  0.30970  0.22440  Biso   1.000  H
  H122     1.0000 0.77460  0.19030  0.72440  Biso   1.000  H
  H123     1.0000 0.22540  0.19030  0.77560  Biso   1.000  H
  H124     1.0000 0.27460  0.30970  0.27560  Biso   1.000  H
  H125     1.0000 0.27460  0.69030  0.77560  Biso   1.000  H
  H126     1.0000 0.22540  0.80970  0.27560  Biso   1.000  H
  H127     1.0000 0.77460  0.80970  0.22440  Biso   1.000  H
  H128     1.0000 0.72540  0.69030  0.72440  Biso   1.000  H
  C153     1.0000 0.74080  0.37240  0.30727  Biso   1.000  C
  C154     1.0000 0.75920  0.12760  0.80727  Biso   1.000  C
  C155     1.0000 0.24080  0.12760  0.69273  Biso   1.000  C
  C156     1.0000 0.25920  0.37240  0.19273  Biso   1.000  C
  C157     1.0000 0.25920  0.62760  0.69273  Biso   1.000  C
  C158     1.0000 0.24080  0.87240  0.19273  Biso   1.000  C
  C159     1.0000 0.75920  0.87240  0.30727  Biso   1.000  C
  C160     1.0000 0.74080  0.62760  0.80727  Biso   1.000  C
  H129     1.0000 0.69150  0.34050  0.32710  Biso   1.000  H
  H130     1.0000 0.80850  0.15950  0.82710  Biso   1.000  H
  H131     1.0000 0.19150  0.15950  0.67290  Biso   1.000  H
  H132     1.0000 0.30850  0.34050  0.17290  Biso   1.000  H
  H133     1.0000 0.30850  0.65950  0.67290  Biso   1.000  H
  H134     1.0000 0.19150  0.84050  0.17290  Biso   1.000  H
  H135     1.0000 0.80850  0.84050  0.32710  Biso   1.000  H
  H136     1.0000 0.69150  0.65950  0.82710  Biso   1.000  H
  O33      1.0000 0.54480  0.25470  0.40682  Biso   1.000  O
  O34      1.0000 0.95520  0.24530  0.90682  Biso   1.000  O
  O35      1.0000 0.04480  0.24530  0.59318  Biso   1.000  O
  O36      1.0000 0.45520  0.25470  0.09318  Biso   1.000  O
  O37      1.0000 0.45520  0.74530  0.59318  Biso   1.000  O
  O38      1.0000 0.04480  0.75470  0.09318  Biso   1.000  O
  O39      1.0000 0.95520  0.75470  0.40682  Biso   1.000  O
  O40      1.0000 0.54480  0.74530  0.90682  Biso   1.000  O
  O41      1.0000 0.53950  0.43790  0.30780  Biso   1.000  O
  O42      1.0000 0.96050  0.06210  0.80780  Biso   1.000  O
  O43      1.0000 0.03950  0.06210  0.69220  Biso   1.000  O
  O44      1.0000 0.46050  0.43790  0.19220  Biso   1.000  O
  O45      1.0000 0.46050  0.56210  0.69220  Biso   1.000  O
  O46      1.0000 0.03950  0.93790  0.19220  Biso   1.000  O
  O47      1.0000 0.96050  0.93790  0.30780  Biso   1.000  O
  O48      1.0000 0.53950  0.56210  0.80780  Biso   1.000  O
  O49      1.0000 0.66530  0.55170  0.24990  Biso   1.000  O
  O50      1.0000 0.83470  0.94830  0.74990  Biso   1.000  O
  O51      1.0000 0.16530  0.94830  0.75010  Biso   1.000  O
  O52      1.0000 0.33470  0.55170  0.25010  Biso   1.000  O
  O53      1.0000 0.33470  0.44830  0.75010  Biso   1.000  O
  O54      1.0000 0.16530  0.05170  0.25010  Biso   1.000  O
  O55      1.0000 0.83470  0.05170  0.24990  Biso   1.000  O
  O56      1.0000 0.66530  0.44830  0.74990  Biso   1.000  O
