data_image0
_cell_length_a       13.9126
_cell_length_b       15.0856
_cell_length_c       21.6595
_cell_angle_alpha    90
_cell_angle_beta     90
_cell_angle_gamma    90

_symmetry_space_group_name_H-M    "P 1"
_symmetry_int_tables_number       1

loop_
  _symmetry_equiv_pos_as_xyz
  'x, y, z'

loop_
  _atom_site_label
  _atom_site_occupancy
  _atom_site_fract_x
  _atom_site_fract_y
  _atom_site_fract_z
  _atom_site_thermal_displace_type
  _atom_site_B_iso_or_equiv
  _atom_site_type_symbol
  Cu1      1.0000 0.13646  0.35509  0.10827  Biso   1.000  Cu
  Cu2      1.0000 0.36354  0.14491  0.60827  Biso   1.000  Cu
  Cu3      1.0000 0.13646  0.64491  0.39173  Biso   1.000  Cu
  Cu4      1.0000 0.36354  0.85509  0.89173  Biso   1.000  Cu
  Cu5      1.0000 0.86354  0.64491  0.89173  Biso   1.000  Cu
  Cu6      1.0000 0.63646  0.85509  0.39173  Biso   1.000  Cu
  Cu7      1.0000 0.86354  0.35509  0.60827  Biso   1.000  Cu
  Cu8      1.0000 0.63646  0.14491  0.10827  Biso   1.000  Cu
  O1       1.0000 0.00874  0.40114  0.09707  Biso   1.000  O
  O2       1.0000 0.49126  0.09886  0.59707  Biso   1.000  O
  O3       1.0000 0.00874  0.59886  0.40293  Biso   1.000  O
  O4       1.0000 0.49126  0.90114  0.90293  Biso   1.000  O
  O5       1.0000 0.99126  0.59886  0.90293  Biso   1.000  O
  O6       1.0000 0.50874  0.90114  0.40293  Biso   1.000  O
  O7       1.0000 0.99126  0.40114  0.59707  Biso   1.000  O
  O8       1.0000 0.50874  0.09886  0.09707  Biso   1.000  O
  O9       1.0000 0.86799  0.36478  0.05997  Biso   1.000  O
  O10      1.0000 0.63201  0.13522  0.55997  Biso   1.000  O
  O11      1.0000 0.86799  0.63522  0.44003  Biso   1.000  O
  O12      1.0000 0.63201  0.86478  0.94003  Biso   1.000  O
  O13      1.0000 0.13201  0.63522  0.94003  Biso   1.000  O
  O14      1.0000 0.36799  0.86478  0.44003  Biso   1.000  O
  O15      1.0000 0.13201  0.36478  0.55997  Biso   1.000  O
  O16      1.0000 0.36799  0.13522  0.05997  Biso   1.000  O
  O17      1.0000 0.77134  0.16257  0.00575  Biso   1.000  O
  O18      1.0000 0.72866  0.33743  0.50575  Biso   1.000  O
  O19      1.0000 0.77134  0.83743  0.49425  Biso   1.000  O
  O20      1.0000 0.72866  0.66257  0.99425  Biso   1.000  O
  O21      1.0000 0.22866  0.83743  0.99425  Biso   1.000  O
  O22      1.0000 0.27134  0.66257  0.49425  Biso   1.000  O
  O23      1.0000 0.22866  0.16257  0.50575  Biso   1.000  O
  O24      1.0000 0.27134  0.33743  0.00575  Biso   1.000  O
  O25      1.0000 0.76423  0.19123  0.10880  Biso   1.000  O
  O26      1.0000 0.73577  0.30877  0.60880  Biso   1.000  O
  O27      1.0000 0.76423  0.80877  0.39120  Biso   1.000  O
  O28      1.0000 0.73577  0.69123  0.89120  Biso   1.000  O
  O29      1.0000 0.23577  0.80877  0.89120  Biso   1.000  O
  O30      1.0000 0.26423  0.69123  0.39120  Biso   1.000  O
  O31      1.0000 0.23577  0.19123  0.60880  Biso   1.000  O
  O32      1.0000 0.26423  0.30877  0.10880  Biso   1.000  O
  N1       1.0000 0.07348  0.24172  0.08179  Biso   1.000  N
  N2       1.0000 0.42652  0.25828  0.58179  Biso   1.000  N
  N3       1.0000 0.07348  0.75828  0.41821  Biso   1.000  N
  N4       1.0000 0.42652  0.74172  0.91821  Biso   1.000  N
  N5       1.0000 0.92652  0.75828  0.91821  Biso   1.000  N
  N6       1.0000 0.57348  0.74172  0.41821  Biso   1.000  N
  N7       1.0000 0.92652  0.24172  0.58179  Biso   1.000  N
  N8       1.0000 0.57348  0.25828  0.08179  Biso   1.000  N
  C1       1.0000 0.11586  0.15830  0.08056  Biso   1.000  C
  C2       1.0000 0.38414  0.34170  0.58056  Biso   1.000  C
  C3       1.0000 0.11586  0.84170  0.41944  Biso   1.000  C
  C4       1.0000 0.38414  0.65830  0.91944  Biso   1.000  C
  C5       1.0000 0.88414  0.84170  0.91944  Biso   1.000  C
  C6       1.0000 0.61586  0.65830  0.41944  Biso   1.000  C
  C7       1.0000 0.88414  0.15830  0.58056  Biso   1.000  C
  C8       1.0000 0.61586  0.34170  0.08056  Biso   1.000  C
  H1       1.0000 0.18170  0.15250  0.08700  Biso   1.000  H
  H2       1.0000 0.31830  0.34750  0.58700  Biso   1.000  H
  H3       1.0000 0.18170  0.84750  0.41300  Biso   1.000  H
  H4       1.0000 0.31830  0.65250  0.91300  Biso   1.000  H
  H5       1.0000 0.81830  0.84750  0.91300  Biso   1.000  H
  H6       1.0000 0.68170  0.65250  0.41300  Biso   1.000  H
  H7       1.0000 0.81830  0.15250  0.58700  Biso   1.000  H
  H8       1.0000 0.68170  0.34750  0.08700  Biso   1.000  H
  C9       1.0000 0.05989  0.08356  0.06977  Biso   1.000  C
  C10      1.0000 0.44011  0.41644  0.56977  Biso   1.000  C
  C11      1.0000 0.05989  0.91644  0.43023  Biso   1.000  C
  C12      1.0000 0.44011  0.58356  0.93023  Biso   1.000  C
  C13      1.0000 0.94011  0.91644  0.93023  Biso   1.000  C
  C14      1.0000 0.55989  0.58356  0.43023  Biso   1.000  C
  C15      1.0000 0.94011  0.08356  0.56977  Biso   1.000  C
  C16      1.0000 0.55989  0.41644  0.06977  Biso   1.000  C
  H9       1.0000 0.08820  0.02770  0.06890  Biso   1.000  H
  H10      1.0000 0.41180  0.47230  0.56890  Biso   1.000  H
  H11      1.0000 0.08820  0.97230  0.43110  Biso   1.000  H
  H12      1.0000 0.41180  0.52770  0.93110  Biso   1.000  H
  H13      1.0000 0.91180  0.97230  0.93110  Biso   1.000  H
  H14      1.0000 0.58820  0.52770  0.43110  Biso   1.000  H
  H15      1.0000 0.91180  0.02770  0.56890  Biso   1.000  H
  H16      1.0000 0.58820  0.47230  0.06890  Biso   1.000  H
  C17      1.0000 0.96155  0.09224  0.06021  Biso   1.000  C
  C18      1.0000 0.53845  0.40776  0.56021  Biso   1.000  C
  C19      1.0000 0.96155  0.90776  0.43979  Biso   1.000  C
  C20      1.0000 0.53845  0.59224  0.93979  Biso   1.000  C
  C21      1.0000 0.03845  0.90776  0.93979  Biso   1.000  C
  C22      1.0000 0.46155  0.59224  0.43979  Biso   1.000  C
  C23      1.0000 0.03845  0.09224  0.56021  Biso   1.000  C
  C24      1.0000 0.46155  0.40776  0.06021  Biso   1.000  C
  H17      1.0000 0.92410  0.04220  0.05300  Biso   1.000  H
  H18      1.0000 0.57590  0.45780  0.55300  Biso   1.000  H
  H19      1.0000 0.92410  0.95780  0.44700  Biso   1.000  H
  H20      1.0000 0.57590  0.54220  0.94700  Biso   1.000  H
  H21      1.0000 0.07590  0.95780  0.94700  Biso   1.000  H
  H22      1.0000 0.42410  0.54220  0.44700  Biso   1.000  H
  H23      1.0000 0.07590  0.04220  0.55300  Biso   1.000  H
  H24      1.0000 0.42410  0.45780  0.05300  Biso   1.000  H
  C25      1.0000 0.91917  0.17567  0.06144  Biso   1.000  C
  C26      1.0000 0.58083  0.32433  0.56144  Biso   1.000  C
  C27      1.0000 0.91917  0.82433  0.43856  Biso   1.000  C
  C28      1.0000 0.58083  0.67567  0.93856  Biso   1.000  C
  C29      1.0000 0.08083  0.82433  0.93856  Biso   1.000  C
  C30      1.0000 0.41917  0.67567  0.43856  Biso   1.000  C
  C31      1.0000 0.08083  0.17567  0.56144  Biso   1.000  C
  C32      1.0000 0.41917  0.32433  0.06144  Biso   1.000  C
  C33      1.0000 0.97514  0.25040  0.07223  Biso   1.000  C
  C34      1.0000 0.52486  0.24960  0.57223  Biso   1.000  C
  C35      1.0000 0.97514  0.74960  0.42777  Biso   1.000  C
  C36      1.0000 0.52486  0.75040  0.92777  Biso   1.000  C
  C37      1.0000 0.02486  0.74960  0.92777  Biso   1.000  C
  C38      1.0000 0.47514  0.75040  0.42777  Biso   1.000  C
  C39      1.0000 0.02486  0.25040  0.57223  Biso   1.000  C
  C40      1.0000 0.47514  0.24960  0.07223  Biso   1.000  C
  C41      1.0000 0.94255  0.34361  0.07337  Biso   1.000  C
  C42      1.0000 0.55745  0.15639  0.57337  Biso   1.000  C
  C43      1.0000 0.94255  0.65639  0.42663  Biso   1.000  C
  C44      1.0000 0.55745  0.84361  0.92663  Biso   1.000  C
  C45      1.0000 0.05745  0.65639  0.92663  Biso   1.000  C
  C46      1.0000 0.44255  0.84361  0.42663  Biso   1.000  C
  C47      1.0000 0.05745  0.34361  0.57337  Biso   1.000  C
  C48      1.0000 0.44255  0.15639  0.07337  Biso   1.000  C
  C49      1.0000 0.81485  0.18827  0.05696  Biso   1.000  C
  C50      1.0000 0.68515  0.31173  0.55696  Biso   1.000  C
  C51      1.0000 0.81485  0.81173  0.44304  Biso   1.000  C
  C52      1.0000 0.68515  0.68827  0.94304  Biso   1.000  C
  C53      1.0000 0.18515  0.81173  0.94304  Biso   1.000  C
  C54      1.0000 0.31485  0.68827  0.44304  Biso   1.000  C
  C55      1.0000 0.18515  0.18827  0.55696  Biso   1.000  C
  C56      1.0000 0.31485  0.31173  0.05696  Biso   1.000  C
  N9       1.0000 0.19474  0.47785  0.11418  Biso   1.000  N
  N10      1.0000 0.30526  0.02215  0.61418  Biso   1.000  N
  N11      1.0000 0.19474  0.52215  0.38582  Biso   1.000  N
  N12      1.0000 0.30526  0.97785  0.88582  Biso   1.000  N
  N13      1.0000 0.80526  0.52215  0.88582  Biso   1.000  N
  N14      1.0000 0.69474  0.97785  0.38582  Biso   1.000  N
  N15      1.0000 0.80526  0.47785  0.61418  Biso   1.000  N
  N16      1.0000 0.69474  0.02215  0.11418  Biso   1.000  N
  C57      1.0000 0.18437  0.54266  0.06905  Biso   1.000  C
  C58      1.0000 0.31563  0.95734  0.56905  Biso   1.000  C
  C59      1.0000 0.18437  0.45734  0.43095  Biso   1.000  C
  C60      1.0000 0.31563  0.04266  0.93095  Biso   1.000  C
  C61      1.0000 0.81563  0.45734  0.93095  Biso   1.000  C
  C62      1.0000 0.68437  0.04266  0.43095  Biso   1.000  C
  C63      1.0000 0.81563  0.54266  0.56905  Biso   1.000  C
  C64      1.0000 0.68437  0.95734  0.06905  Biso   1.000  C
  H25      1.0000 0.13980  0.53510  0.03750  Biso   1.000  H
  H26      1.0000 0.36020  0.96490  0.53750  Biso   1.000  H
  H27      1.0000 0.13980  0.46490  0.46250  Biso   1.000  H
  H28      1.0000 0.36020  0.03510  0.96250  Biso   1.000  H
  H29      1.0000 0.86020  0.46490  0.96250  Biso   1.000  H
  H30      1.0000 0.63980  0.03510  0.46250  Biso   1.000  H
  H31      1.0000 0.86020  0.53510  0.53750  Biso   1.000  H
  H32      1.0000 0.63980  0.96490  0.03750  Biso   1.000  H
  C65      1.0000 0.24056  0.61879  0.07113  Biso   1.000  C
  C66      1.0000 0.25944  0.88121  0.57113  Biso   1.000  C
  C67      1.0000 0.24056  0.38121  0.42887  Biso   1.000  C
  C68      1.0000 0.25944  0.11879  0.92887  Biso   1.000  C
  C69      1.0000 0.75944  0.38121  0.92887  Biso   1.000  C
  C70      1.0000 0.74056  0.11879  0.42887  Biso   1.000  C
  C71      1.0000 0.75944  0.61879  0.57113  Biso   1.000  C
  C72      1.0000 0.74056  0.88121  0.07113  Biso   1.000  C
  H33      1.0000 0.23360  0.66210  0.04090  Biso   1.000  H
  H34      1.0000 0.26640  0.83790  0.54090  Biso   1.000  H
  H35      1.0000 0.23360  0.33790  0.45910  Biso   1.000  H
  H36      1.0000 0.26640  0.16210  0.95910  Biso   1.000  H
  H37      1.0000 0.76640  0.33790  0.95910  Biso   1.000  H
  H38      1.0000 0.73360  0.16210  0.45910  Biso   1.000  H
  H39      1.0000 0.76640  0.66210  0.54090  Biso   1.000  H
  H40      1.0000 0.73360  0.83790  0.04090  Biso   1.000  H
  C73      1.0000 0.30713  0.63010  0.11833  Biso   1.000  C
  C74      1.0000 0.19287  0.86990  0.61833  Biso   1.000  C
  C75      1.0000 0.30713  0.36990  0.38167  Biso   1.000  C
  C76      1.0000 0.19287  0.13010  0.88167  Biso   1.000  C
  C77      1.0000 0.69287  0.36990  0.88167  Biso   1.000  C
  C78      1.0000 0.80713  0.13010  0.38167  Biso   1.000  C
  C79      1.0000 0.69287  0.63010  0.61833  Biso   1.000  C
  C80      1.0000 0.80713  0.86990  0.11833  Biso   1.000  C
  C81      1.0000 0.31750  0.56529  0.16346  Biso   1.000  C
  C82      1.0000 0.18250  0.93471  0.66346  Biso   1.000  C
  C83      1.0000 0.31750  0.43471  0.33654  Biso   1.000  C
  C84      1.0000 0.18250  0.06529  0.83654  Biso   1.000  C
  C85      1.0000 0.68250  0.43471  0.83654  Biso   1.000  C
  C86      1.0000 0.81750  0.06529  0.33654  Biso   1.000  C
  C87      1.0000 0.68250  0.56529  0.66346  Biso   1.000  C
  C88      1.0000 0.81750  0.93471  0.16346  Biso   1.000  C
  H41      1.0000 0.36200  0.57290  0.19500  Biso   1.000  H
  H42      1.0000 0.13800  0.92710  0.69500  Biso   1.000  H
  H43      1.0000 0.36200  0.42710  0.30500  Biso   1.000  H
  H44      1.0000 0.13800  0.07290  0.80500  Biso   1.000  H
  H45      1.0000 0.63800  0.42710  0.80500  Biso   1.000  H
  H46      1.0000 0.86200  0.07290  0.30500  Biso   1.000  H
  H47      1.0000 0.63800  0.57290  0.69500  Biso   1.000  H
  H48      1.0000 0.86200  0.92710  0.19500  Biso   1.000  H
  C89      1.0000 0.26131  0.48917  0.16138  Biso   1.000  C
  C90      1.0000 0.23869  0.01083  0.66138  Biso   1.000  C
  C91      1.0000 0.26131  0.51083  0.33862  Biso   1.000  C
  C92      1.0000 0.23869  0.98917  0.83862  Biso   1.000  C
  C93      1.0000 0.73869  0.51083  0.83862  Biso   1.000  C
  C94      1.0000 0.76131  0.98917  0.33862  Biso   1.000  C
  C95      1.0000 0.73869  0.48917  0.66138  Biso   1.000  C
  C96      1.0000 0.76131  0.01083  0.16138  Biso   1.000  C
  H49      1.0000 0.26830  0.44580  0.19160  Biso   1.000  H
  H50      1.0000 0.23170  0.05420  0.69160  Biso   1.000  H
  H51      1.0000 0.26830  0.55420  0.30840  Biso   1.000  H
  H52      1.0000 0.23170  0.94580  0.80840  Biso   1.000  H
  H53      1.0000 0.73170  0.55420  0.80840  Biso   1.000  H
  H54      1.0000 0.76830  0.94580  0.30840  Biso   1.000  H
  H55      1.0000 0.73170  0.44580  0.69160  Biso   1.000  H
  H56      1.0000 0.76830  0.05420  0.19160  Biso   1.000  H
  C97      1.0000 0.37758  0.70990  0.10945  Biso   1.000  C
  C98      1.0000 0.12242  0.79010  0.60945  Biso   1.000  C
  C99      1.0000 0.37758  0.29010  0.39055  Biso   1.000  C
  C100     1.0000 0.12242  0.20990  0.89055  Biso   1.000  C
  C101     1.0000 0.62242  0.29010  0.89055  Biso   1.000  C
  C102     1.0000 0.87758  0.20990  0.39055  Biso   1.000  C
  C103     1.0000 0.62242  0.70990  0.60945  Biso   1.000  C
  C104     1.0000 0.87758  0.79010  0.10945  Biso   1.000  C
  H57      1.0000 0.37760  0.74620  0.14640  Biso   1.000  H
  H58      1.0000 0.12240  0.75380  0.64640  Biso   1.000  H
  H59      1.0000 0.37760  0.25380  0.35360  Biso   1.000  H
  H60      1.0000 0.12240  0.24620  0.85360  Biso   1.000  H
  H61      1.0000 0.62240  0.25380  0.85360  Biso   1.000  H
  H62      1.0000 0.87760  0.24620  0.35360  Biso   1.000  H
  H63      1.0000 0.62240  0.74620  0.64640  Biso   1.000  H
  H64      1.0000 0.87760  0.75380  0.14640  Biso   1.000  H
  H65      1.0000 0.35580  0.74630  0.07530  Biso   1.000  H
  H66      1.0000 0.14420  0.75370  0.57530  Biso   1.000  H
  H67      1.0000 0.35580  0.25370  0.42470  Biso   1.000  H
  H68      1.0000 0.14420  0.24630  0.92470  Biso   1.000  H
  H69      1.0000 0.64420  0.25370  0.92470  Biso   1.000  H
  H70      1.0000 0.85580  0.24630  0.42470  Biso   1.000  H
  H71      1.0000 0.64420  0.74630  0.57530  Biso   1.000  H
  H72      1.0000 0.85580  0.75370  0.07530  Biso   1.000  H
  C105     1.0000 0.48260  0.67620  0.09615  Biso   1.000  C
  C106     1.0000 0.01740  0.82380  0.59615  Biso   1.000  C
  C107     1.0000 0.48260  0.32380  0.40385  Biso   1.000  C
  C108     1.0000 0.01740  0.17620  0.90385  Biso   1.000  C
  C109     1.0000 0.51740  0.32380  0.90385  Biso   1.000  C
  C110     1.0000 0.98260  0.17620  0.40385  Biso   1.000  C
  C111     1.0000 0.51740  0.67620  0.59615  Biso   1.000  C
  C112     1.0000 0.98260  0.82380  0.09615  Biso   1.000  C
  H73      1.0000 0.49840  0.62920  0.12490  Biso   1.000  H
  H74      1.0000 0.00160  0.87080  0.62490  Biso   1.000  H
  H75      1.0000 0.49840  0.37080  0.37510  Biso   1.000  H
  H76      1.0000 0.00160  0.12920  0.87510  Biso   1.000  H
  H77      1.0000 0.50160  0.37080  0.87510  Biso   1.000  H
  H78      1.0000 0.99840  0.12920  0.37510  Biso   1.000  H
  H79      1.0000 0.50160  0.62920  0.62490  Biso   1.000  H
  H80      1.0000 0.99840  0.87080  0.12490  Biso   1.000  H
  H81      1.0000 0.48540  0.65190  0.05470  Biso   1.000  H
  H82      1.0000 0.01460  0.84810  0.55470  Biso   1.000  H
  H83      1.0000 0.48540  0.34810  0.44530  Biso   1.000  H
  H84      1.0000 0.01460  0.15190  0.94530  Biso   1.000  H
  H85      1.0000 0.51460  0.34810  0.94530  Biso   1.000  H
  H86      1.0000 0.98540  0.15190  0.44530  Biso   1.000  H
  H87      1.0000 0.51460  0.65190  0.55470  Biso   1.000  H
  H88      1.0000 0.98540  0.84810  0.05470  Biso   1.000  H
  C113     1.0000 0.55240  0.74600  0.10176  Biso   1.000  C
  C114     1.0000 0.94760  0.75400  0.60176  Biso   1.000  C
  C115     1.0000 0.55240  0.25400  0.39824  Biso   1.000  C
  C116     1.0000 0.94760  0.24600  0.89824  Biso   1.000  C
  C117     1.0000 0.44760  0.25400  0.89824  Biso   1.000  C
  C118     1.0000 0.05240  0.24600  0.39824  Biso   1.000  C
  C119     1.0000 0.44760  0.74600  0.60176  Biso   1.000  C
  C120     1.0000 0.05240  0.75400  0.10176  Biso   1.000  C
  H89      1.0000 0.52780  0.79680  0.07930  Biso   1.000  H
  H90      1.0000 0.97220  0.70320  0.57930  Biso   1.000  H
  H91      1.0000 0.52780  0.20320  0.42070  Biso   1.000  H
  H92      1.0000 0.97220  0.29680  0.92070  Biso   1.000  H
  H93      1.0000 0.47220  0.20320  0.92070  Biso   1.000  H
  H94      1.0000 0.02780  0.29680  0.42070  Biso   1.000  H
  H95      1.0000 0.47220  0.79680  0.57930  Biso   1.000  H
  H96      1.0000 0.02780  0.70320  0.07930  Biso   1.000  H
  H97      1.0000 0.61010  0.72660  0.08050  Biso   1.000  H
  H98      1.0000 0.88990  0.77340  0.58050  Biso   1.000  H
  H99      1.0000 0.61010  0.27340  0.41950  Biso   1.000  H
  H100     1.0000 0.88990  0.22660  0.91950  Biso   1.000  H
  H101     1.0000 0.38990  0.27340  0.91950  Biso   1.000  H
  H102     1.0000 0.11010  0.22660  0.41950  Biso   1.000  H
  H103     1.0000 0.38990  0.72660  0.58050  Biso   1.000  H
  H104     1.0000 0.11010  0.77340  0.08050  Biso   1.000  H
  C121     1.0000 0.58313  0.77904  0.16692  Biso   1.000  C
  C122     1.0000 0.91687  0.72096  0.66692  Biso   1.000  C
  C123     1.0000 0.58313  0.22096  0.33308  Biso   1.000  C
  C124     1.0000 0.91687  0.27904  0.83308  Biso   1.000  C
  C125     1.0000 0.41687  0.22096  0.83308  Biso   1.000  C
  C126     1.0000 0.08313  0.27904  0.33308  Biso   1.000  C
  C127     1.0000 0.41687  0.77904  0.66692  Biso   1.000  C
  C128     1.0000 0.08313  0.72096  0.16692  Biso   1.000  C
  C129     1.0000 0.54693  0.85821  0.19009  Biso   1.000  C
  C130     1.0000 0.95307  0.64179  0.69009  Biso   1.000  C
  C131     1.0000 0.54693  0.14179  0.30991  Biso   1.000  C
  C132     1.0000 0.95307  0.35821  0.80991  Biso   1.000  C
  C133     1.0000 0.45307  0.14179  0.80991  Biso   1.000  C
  C134     1.0000 0.04693  0.35821  0.30991  Biso   1.000  C
  C135     1.0000 0.45307  0.85821  0.69009  Biso   1.000  C
  C136     1.0000 0.04693  0.64179  0.19009  Biso   1.000  C
  H105     1.0000 0.51170  0.89580  0.16460  Biso   1.000  H
  H106     1.0000 0.98830  0.60420  0.66460  Biso   1.000  H
  H107     1.0000 0.51170  0.10420  0.33540  Biso   1.000  H
  H108     1.0000 0.98830  0.39580  0.83540  Biso   1.000  H
  H109     1.0000 0.48830  0.10420  0.83540  Biso   1.000  H
  H110     1.0000 0.01170  0.39580  0.33540  Biso   1.000  H
  H111     1.0000 0.48830  0.89580  0.66460  Biso   1.000  H
  H112     1.0000 0.01170  0.60420  0.16460  Biso   1.000  H
  C137     1.0000 0.56332  0.88126  0.25133  Biso   1.000  C
  C138     1.0000 0.93668  0.61874  0.75133  Biso   1.000  C
  C139     1.0000 0.56332  0.11874  0.24867  Biso   1.000  C
  C140     1.0000 0.93668  0.38126  0.74867  Biso   1.000  C
  C141     1.0000 0.43668  0.11874  0.74867  Biso   1.000  C
  C142     1.0000 0.06332  0.38126  0.24867  Biso   1.000  C
  C143     1.0000 0.43668  0.88126  0.75133  Biso   1.000  C
  C144     1.0000 0.06332  0.61874  0.25133  Biso   1.000  C
  H113     1.0000 0.53910  0.93420  0.26680  Biso   1.000  H
  H114     1.0000 0.96090  0.56580  0.76680  Biso   1.000  H
  H115     1.0000 0.53910  0.06580  0.23320  Biso   1.000  H
  H116     1.0000 0.96090  0.43420  0.73320  Biso   1.000  H
  H117     1.0000 0.46090  0.06580  0.73320  Biso   1.000  H
  H118     1.0000 0.03910  0.43420  0.23320  Biso   1.000  H
  H119     1.0000 0.46090  0.93420  0.76680  Biso   1.000  H
  H120     1.0000 0.03910  0.56580  0.26680  Biso   1.000  H
  N17      1.0000 0.61591  0.82513  0.28940  Biso   1.000  N
  N18      1.0000 0.88409  0.67487  0.78940  Biso   1.000  N
  N19      1.0000 0.61591  0.17487  0.21060  Biso   1.000  N
  N20      1.0000 0.88409  0.32513  0.71060  Biso   1.000  N
  N21      1.0000 0.38409  0.17487  0.71060  Biso   1.000  N
  N22      1.0000 0.11591  0.32513  0.21060  Biso   1.000  N
  N23      1.0000 0.38409  0.82513  0.78940  Biso   1.000  N
  N24      1.0000 0.11591  0.67487  0.28940  Biso   1.000  N
  C145     1.0000 0.65211  0.74596  0.26623  Biso   1.000  C
  C146     1.0000 0.84789  0.75404  0.76623  Biso   1.000  C
  C147     1.0000 0.65211  0.25404  0.23377  Biso   1.000  C
  C148     1.0000 0.84789  0.24596  0.73377  Biso   1.000  C
  C149     1.0000 0.34789  0.25404  0.73377  Biso   1.000  C
  C150     1.0000 0.15211  0.24596  0.23377  Biso   1.000  C
  C151     1.0000 0.34789  0.74596  0.76623  Biso   1.000  C
  C152     1.0000 0.15211  0.75404  0.26623  Biso   1.000  C
  H121     1.0000 0.68730  0.70840  0.29170  Biso   1.000  H
  H122     1.0000 0.81270  0.79160  0.79170  Biso   1.000  H
  H123     1.0000 0.68730  0.29160  0.20830  Biso   1.000  H
  H124     1.0000 0.81270  0.20840  0.70830  Biso   1.000  H
  H125     1.0000 0.31270  0.29160  0.70830  Biso   1.000  H
  H126     1.0000 0.18730  0.20840  0.20830  Biso   1.000  H
  H127     1.0000 0.31270  0.70840  0.79170  Biso   1.000  H
  H128     1.0000 0.18730  0.79160  0.29170  Biso   1.000  H
  C153     1.0000 0.63572  0.72291  0.20499  Biso   1.000  C
  C154     1.0000 0.86428  0.77709  0.70499  Biso   1.000  C
  C155     1.0000 0.63572  0.27709  0.29501  Biso   1.000  C
  C156     1.0000 0.86428  0.22291  0.79501  Biso   1.000  C
  C157     1.0000 0.36428  0.27709  0.79501  Biso   1.000  C
  C158     1.0000 0.13572  0.22291  0.29501  Biso   1.000  C
  C159     1.0000 0.36428  0.72291  0.70499  Biso   1.000  C
  C160     1.0000 0.13572  0.77709  0.20499  Biso   1.000  C
  H129     1.0000 0.65990  0.66990  0.18950  Biso   1.000  H
  H130     1.0000 0.84010  0.83010  0.68950  Biso   1.000  H
  H131     1.0000 0.65990  0.33010  0.31050  Biso   1.000  H
  H132     1.0000 0.84010  0.16990  0.81050  Biso   1.000  H
  H133     1.0000 0.34010  0.33010  0.81050  Biso   1.000  H
  H134     1.0000 0.15990  0.16990  0.31050  Biso   1.000  H
  H135     1.0000 0.34010  0.66990  0.68950  Biso   1.000  H
  H136     1.0000 0.15990  0.83010  0.18950  Biso   1.000  H
  C161     1.0000 0.16520  0.43950  0.91470  Biso   1.000  C
  C162     1.0000 0.33480  0.06050  0.41470  Biso   1.000  C
  C163     1.0000 0.16520  0.56050  0.58530  Biso   1.000  C
  C164     1.0000 0.33480  0.93950  0.08530  Biso   1.000  C
  C165     1.0000 0.83480  0.56050  0.08530  Biso   1.000  C
  C166     1.0000 0.66520  0.93950  0.58530  Biso   1.000  C
  C167     1.0000 0.83480  0.43950  0.41470  Biso   1.000  C
  C168     1.0000 0.66520  0.06050  0.91470  Biso   1.000  C
  O33      1.0000 0.09760  0.43056  0.94710  Biso   1.000  O
  O34      1.0000 0.40240  0.06944  0.44710  Biso   1.000  O
  O35      1.0000 0.09760  0.56944  0.55290  Biso   1.000  O
  O36      1.0000 0.40240  0.93056  0.05290  Biso   1.000  O
  O37      1.0000 0.90240  0.56944  0.05290  Biso   1.000  O
  O38      1.0000 0.59760  0.93056  0.55290  Biso   1.000  O
  O39      1.0000 0.90240  0.43056  0.44710  Biso   1.000  O
  O40      1.0000 0.59760  0.06944  0.94710  Biso   1.000  O
  O41      1.0000 0.24050  0.45540  0.88999  Biso   1.000  O
  O42      1.0000 0.25950  0.04460  0.38999  Biso   1.000  O
  O43      1.0000 0.24050  0.54460  0.61001  Biso   1.000  O
  O44      1.0000 0.25950  0.95540  0.11001  Biso   1.000  O
  O45      1.0000 0.75950  0.54460  0.11001  Biso   1.000  O
  O46      1.0000 0.74050  0.95540  0.61001  Biso   1.000  O
  O47      1.0000 0.75950  0.45540  0.38999  Biso   1.000  O
  O48      1.0000 0.74050  0.04460  0.88999  Biso   1.000  O
  C169     1.0000 0.40420  0.26400  0.21260  Biso   1.000  C
  C170     1.0000 0.09580  0.23600  0.71260  Biso   1.000  C
  C171     1.0000 0.40420  0.73600  0.28740  Biso   1.000  C
  C172     1.0000 0.09580  0.76400  0.78740  Biso   1.000  C
  C173     1.0000 0.59580  0.73600  0.78740  Biso   1.000  C
  C174     1.0000 0.90420  0.76400  0.28740  Biso   1.000  C
  C175     1.0000 0.59580  0.26400  0.71260  Biso   1.000  C
  C176     1.0000 0.90420  0.23600  0.21260  Biso   1.000  C
  O49      1.0000 0.42450  0.34190  0.20920  Biso   1.000  O
  O50      1.0000 0.07550  0.15810  0.70920  Biso   1.000  O
  O51      1.0000 0.42450  0.65810  0.29080  Biso   1.000  O
  O52      1.0000 0.07550  0.84190  0.79080  Biso   1.000  O
  O53      1.0000 0.57550  0.65810  0.79080  Biso   1.000  O
  O54      1.0000 0.92450  0.84190  0.29080  Biso   1.000  O
  O55      1.0000 0.57550  0.34190  0.70920  Biso   1.000  O
  O56      1.0000 0.92450  0.15810  0.20920  Biso   1.000  O
  O57      1.0000 0.36320  0.19470  0.21090  Biso   1.000  O
  O58      1.0000 0.13680  0.30530  0.71090  Biso   1.000  O
  O59      1.0000 0.36320  0.80530  0.28910  Biso   1.000  O
  O60      1.0000 0.13680  0.69470  0.78910  Biso   1.000  O
  O61      1.0000 0.63680  0.80530  0.78910  Biso   1.000  O
  O62      1.0000 0.86320  0.69470  0.28910  Biso   1.000  O
  O63      1.0000 0.63680  0.19470  0.71090  Biso   1.000  O
  O64      1.0000 0.86320  0.30530  0.21090  Biso   1.000  O
