data_image0
_cell_length_a       13.61
_cell_length_b       10.895
_cell_length_c       13.23
_cell_angle_alpha    90
_cell_angle_beta     117.39
_cell_angle_gamma    90

_symmetry_space_group_name_H-M    "P 1"
_symmetry_int_tables_number       1

loop_
  _symmetry_equiv_pos_as_xyz
  'x, y, z'

loop_
  _atom_site_label
  _atom_site_occupancy
  _atom_site_fract_x
  _atom_site_fract_y
  _atom_site_fract_z
  _atom_site_thermal_displace_type
  _atom_site_B_iso_or_equiv
  _atom_site_type_symbol
  Cu1      1.0000 0.50000  0.33109  0.25000  Biso   1.000  Cu
  Cu2      1.0000 0.00000  0.83109  0.25000  Biso   1.000  Cu
  Cu3      1.0000 0.50000  0.66891  0.75000  Biso   1.000  Cu
  Cu4      1.0000 0.00000  0.16891  0.75000  Biso   1.000  Cu
  O1       1.0000 0.40838  0.45550  0.26939  Biso   1.000  O
  O2       1.0000 0.90838  0.95550  0.26939  Biso   1.000  O
  O3       1.0000 0.59162  0.45550  0.23061  Biso   1.000  O
  O4       1.0000 0.09162  0.95550  0.23061  Biso   1.000  O
  O5       1.0000 0.59162  0.54450  0.73061  Biso   1.000  O
  O6       1.0000 0.09162  0.04450  0.73061  Biso   1.000  O
  O7       1.0000 0.40838  0.54450  0.76939  Biso   1.000  O
  O8       1.0000 0.90838  0.04450  0.76939  Biso   1.000  O
  O9       1.0000 0.30060  0.41050  0.08803  Biso   1.000  O
  O10      1.0000 0.80060  0.91050  0.08803  Biso   1.000  O
  O11      1.0000 0.69940  0.41050  0.41197  Biso   1.000  O
  O12      1.0000 0.19940  0.91050  0.41197  Biso   1.000  O
  O13      1.0000 0.69940  0.58950  0.91197  Biso   1.000  O
  O14      1.0000 0.19940  0.08950  0.91197  Biso   1.000  O
  O15      1.0000 0.30060  0.58950  0.58803  Biso   1.000  O
  O16      1.0000 0.80060  0.08950  0.58803  Biso   1.000  O
  N1       1.0000 0.08445  0.70330  0.21366  Biso   1.000  N
  N2       1.0000 0.58445  0.20330  0.21366  Biso   1.000  N
  N3       1.0000 0.91555  0.70330  0.28634  Biso   1.000  N
  N4       1.0000 0.41555  0.20330  0.28634  Biso   1.000  N
  N5       1.0000 0.91555  0.29670  0.78634  Biso   1.000  N
  N6       1.0000 0.41555  0.79670  0.78634  Biso   1.000  N
  N7       1.0000 0.08445  0.29670  0.71366  Biso   1.000  N
  N8       1.0000 0.58445  0.79670  0.71366  Biso   1.000  N
  C1       1.0000 0.31940  0.46540  0.17620  Biso   1.000  C
  C2       1.0000 0.81940  0.96540  0.17620  Biso   1.000  C
  C3       1.0000 0.68060  0.46540  0.32380  Biso   1.000  C
  C4       1.0000 0.18060  0.96540  0.32380  Biso   1.000  C
  C5       1.0000 0.68060  0.53460  0.82380  Biso   1.000  C
  C6       1.0000 0.18060  0.03460  0.82380  Biso   1.000  C
  C7       1.0000 0.31940  0.53460  0.67620  Biso   1.000  C
  C8       1.0000 0.81940  0.03460  0.67620  Biso   1.000  C
  C9       1.0000 0.23450  0.54950  0.18450  Biso   1.000  C
  C10      1.0000 0.73450  0.04950  0.18450  Biso   1.000  C
  C11      1.0000 0.76550  0.54950  0.31550  Biso   1.000  C
  C12      1.0000 0.26550  0.04950  0.31550  Biso   1.000  C
  C13      1.0000 0.76550  0.45050  0.81550  Biso   1.000  C
  C14      1.0000 0.26550  0.95050  0.81550  Biso   1.000  C
  C15      1.0000 0.23450  0.45050  0.68450  Biso   1.000  C
  C16      1.0000 0.73450  0.95050  0.68450  Biso   1.000  C
  C17      1.0000 0.23250  0.55810  0.28650  Biso   1.000  C
  C18      1.0000 0.73250  0.05810  0.28650  Biso   1.000  C
  C19      1.0000 0.76750  0.55810  0.21350  Biso   1.000  C
  C20      1.0000 0.26750  0.05810  0.21350  Biso   1.000  C
  C21      1.0000 0.76750  0.44190  0.71350  Biso   1.000  C
  C22      1.0000 0.26750  0.94190  0.71350  Biso   1.000  C
  C23      1.0000 0.23250  0.44190  0.78650  Biso   1.000  C
  C24      1.0000 0.73250  0.94190  0.78650  Biso   1.000  C
  H1       1.0000 0.28200  0.51270  0.34860  Biso   1.000  H
  H2       1.0000 0.78200  0.01270  0.34860  Biso   1.000  H
  H3       1.0000 0.71800  0.51270  0.15140  Biso   1.000  H
  H4       1.0000 0.21800  0.01270  0.15140  Biso   1.000  H
  H5       1.0000 0.71800  0.48730  0.65140  Biso   1.000  H
  H6       1.0000 0.21800  0.98730  0.65140  Biso   1.000  H
  H7       1.0000 0.28200  0.48730  0.84860  Biso   1.000  H
  H8       1.0000 0.78200  0.98730  0.84860  Biso   1.000  H
  C25      1.0000 0.15550  0.63560  0.29760  Biso   1.000  C
  C26      1.0000 0.65550  0.13560  0.29760  Biso   1.000  C
  C27      1.0000 0.84450  0.63560  0.20240  Biso   1.000  C
  C28      1.0000 0.34450  0.13560  0.20240  Biso   1.000  C
  C29      1.0000 0.84450  0.36440  0.70240  Biso   1.000  C
  C30      1.0000 0.34450  0.86440  0.70240  Biso   1.000  C
  C31      1.0000 0.15550  0.36440  0.79760  Biso   1.000  C
  C32      1.0000 0.65550  0.86440  0.79760  Biso   1.000  C
  H9       1.0000 0.15480  0.63910  0.36750  Biso   1.000  H
  H10      1.0000 0.65480  0.13910  0.36750  Biso   1.000  H
  H11      1.0000 0.84520  0.63910  0.13250  Biso   1.000  H
  H12      1.0000 0.34520  0.13910  0.13250  Biso   1.000  H
  H13      1.0000 0.84520  0.36090  0.63250  Biso   1.000  H
  H14      1.0000 0.34520  0.86090  0.63250  Biso   1.000  H
  H15      1.0000 0.15480  0.36090  0.86750  Biso   1.000  H
  H16      1.0000 0.65480  0.86090  0.86750  Biso   1.000  H
  C33      1.0000 0.08390  0.69860  0.10970  Biso   1.000  C
  C34      1.0000 0.58390  0.19860  0.10970  Biso   1.000  C
  C35      1.0000 0.91610  0.69860  0.39030  Biso   1.000  C
  C36      1.0000 0.41610  0.19860  0.39030  Biso   1.000  C
  C37      1.0000 0.91610  0.30140  0.89030  Biso   1.000  C
  C38      1.0000 0.41610  0.80140  0.89030  Biso   1.000  C
  C39      1.0000 0.08390  0.30140  0.60970  Biso   1.000  C
  C40      1.0000 0.58390  0.80140  0.60970  Biso   1.000  C
  C41      1.0000 0.01070  0.77480  0.02110  Biso   1.000  C
  C42      1.0000 0.51070  0.27480  0.02110  Biso   1.000  C
  C43      1.0000 0.98930  0.77480  0.47890  Biso   1.000  C
  C44      1.0000 0.48930  0.27480  0.47890  Biso   1.000  C
  C45      1.0000 0.98930  0.22520  0.97890  Biso   1.000  C
  C46      1.0000 0.48930  0.72520  0.97890  Biso   1.000  C
  C47      1.0000 0.01070  0.22520  0.52110  Biso   1.000  C
  C48      1.0000 0.51070  0.72520  0.52110  Biso   1.000  C
  H17      1.0000 0.95990  0.82300  0.03190  Biso   1.000  H
  H18      1.0000 0.45990  0.32300  0.03190  Biso   1.000  H
  H19      1.0000 0.04010  0.82300  0.46810  Biso   1.000  H
  H20      1.0000 0.54010  0.32300  0.46810  Biso   1.000  H
  H21      1.0000 0.04010  0.17700  0.96810  Biso   1.000  H
  H22      1.0000 0.54010  0.67700  0.96810  Biso   1.000  H
  H23      1.0000 0.95990  0.17700  0.53190  Biso   1.000  H
  H24      1.0000 0.45990  0.67700  0.53190  Biso   1.000  H
  C49      1.0000 0.01380  0.77840  0.91910  Biso   1.000  C
  C50      1.0000 0.51380  0.27840  0.91910  Biso   1.000  C
  C51      1.0000 0.98620  0.77840  0.58090  Biso   1.000  C
  C52      1.0000 0.48620  0.27840  0.58090  Biso   1.000  C
  C53      1.0000 0.98620  0.22160  0.08090  Biso   1.000  C
  C54      1.0000 0.48620  0.72160  0.08090  Biso   1.000  C
  C55      1.0000 0.01380  0.22160  0.41910  Biso   1.000  C
  C56      1.0000 0.51380  0.72160  0.41910  Biso   1.000  C
  H25      1.0000 0.96620  0.83010  0.86140  Biso   1.000  H
  H26      1.0000 0.46620  0.33010  0.86140  Biso   1.000  H
  H27      1.0000 0.03380  0.83010  0.63860  Biso   1.000  H
  H28      1.0000 0.53380  0.33010  0.63860  Biso   1.000  H
  H29      1.0000 0.03380  0.16990  0.13860  Biso   1.000  H
  H30      1.0000 0.53380  0.66990  0.13860  Biso   1.000  H
  H31      1.0000 0.96620  0.16990  0.36140  Biso   1.000  H
  H32      1.0000 0.46620  0.66990  0.36140  Biso   1.000  H
  C57      1.0000 0.08910  0.70400  0.90190  Biso   1.000  C
  C58      1.0000 0.58910  0.20400  0.90190  Biso   1.000  C
  C59      1.0000 0.91090  0.70400  0.59810  Biso   1.000  C
  C60      1.0000 0.41090  0.20400  0.59810  Biso   1.000  C
  C61      1.0000 0.91090  0.29600  0.09810  Biso   1.000  C
  C62      1.0000 0.41090  0.79600  0.09810  Biso   1.000  C
  C63      1.0000 0.08910  0.29600  0.40190  Biso   1.000  C
  C64      1.0000 0.58910  0.79600  0.40190  Biso   1.000  C
  H33      1.0000 0.09150  0.70790  0.83290  Biso   1.000  H
  H34      1.0000 0.59150  0.20790  0.83290  Biso   1.000  H
  H35      1.0000 0.90850  0.70790  0.66710  Biso   1.000  H
  H36      1.0000 0.40850  0.20790  0.66710  Biso   1.000  H
  H37      1.0000 0.90850  0.29210  0.16710  Biso   1.000  H
  H38      1.0000 0.40850  0.79210  0.16710  Biso   1.000  H
  H39      1.0000 0.09150  0.29210  0.33290  Biso   1.000  H
  H40      1.0000 0.59150  0.79210  0.33290  Biso   1.000  H
  C65      1.0000 0.15830  0.62640  0.98420  Biso   1.000  C
  C66      1.0000 0.65830  0.12640  0.98420  Biso   1.000  C
  C67      1.0000 0.84170  0.62640  0.51580  Biso   1.000  C
  C68      1.0000 0.34170  0.12640  0.51580  Biso   1.000  C
  C69      1.0000 0.84170  0.37360  0.01580  Biso   1.000  C
  C70      1.0000 0.34170  0.87360  0.01580  Biso   1.000  C
  C71      1.0000 0.15830  0.37360  0.48420  Biso   1.000  C
  C72      1.0000 0.65830  0.87360  0.48420  Biso   1.000  C
  H41      1.0000 0.20580  0.57610  0.97010  Biso   1.000  H
  H42      1.0000 0.70580  0.07610  0.97010  Biso   1.000  H
  H43      1.0000 0.79420  0.57610  0.52990  Biso   1.000  H
  H44      1.0000 0.29420  0.07610  0.52990  Biso   1.000  H
  H45      1.0000 0.79420  0.42390  0.02990  Biso   1.000  H
  H46      1.0000 0.29420  0.92390  0.02990  Biso   1.000  H
  H47      1.0000 0.20580  0.42390  0.47010  Biso   1.000  H
  H48      1.0000 0.70580  0.92390  0.47010  Biso   1.000  H
  C73      1.0000 0.15870  0.62150  0.09150  Biso   1.000  C
  C74      1.0000 0.65870  0.12150  0.09150  Biso   1.000  C
  C75      1.0000 0.84130  0.62150  0.40850  Biso   1.000  C
  C76      1.0000 0.34130  0.12150  0.40850  Biso   1.000  C
  C77      1.0000 0.84130  0.37850  0.90850  Biso   1.000  C
  C78      1.0000 0.34130  0.87850  0.90850  Biso   1.000  C
  C79      1.0000 0.15870  0.37850  0.59150  Biso   1.000  C
  C80      1.0000 0.65870  0.87850  0.59150  Biso   1.000  C
