data_image0
_cell_length_a       9.262
_cell_length_b       11.2106
_cell_length_c       14.5082
_cell_angle_alpha    90
_cell_angle_beta     90.298
_cell_angle_gamma    90

_symmetry_space_group_name_H-M    "P 1"
_symmetry_int_tables_number       1

loop_
  _symmetry_equiv_pos_as_xyz
  'x, y, z'

loop_
  _atom_site_label
  _atom_site_occupancy
  _atom_site_fract_x
  _atom_site_fract_y
  _atom_site_fract_z
  _atom_site_thermal_displace_type
  _atom_site_B_iso_or_equiv
  _atom_site_type_symbol
  Cu1      1.0000 0.09237  0.40855  0.50700  Biso   1.000  Cu
  Cu2      1.0000 0.40763  0.90855  0.99300  Biso   1.000  Cu
  Cu3      1.0000 0.90763  0.59145  0.49300  Biso   1.000  Cu
  Cu4      1.0000 0.59237  0.09145  0.00700  Biso   1.000  Cu
  O1       1.0000 0.59950  0.07937  0.87118  Biso   1.000  O
  O2       1.0000 0.90050  0.57937  0.62882  Biso   1.000  O
  O3       1.0000 0.40050  0.92063  0.12882  Biso   1.000  O
  O4       1.0000 0.09950  0.42063  0.37118  Biso   1.000  O
  O5       1.0000 0.44870  0.92505  0.86112  Biso   1.000  O
  O6       1.0000 0.05130  0.42505  0.63888  Biso   1.000  O
  O7       1.0000 0.55130  0.07495  0.13888  Biso   1.000  O
  O8       1.0000 0.94870  0.57495  0.36112  Biso   1.000  O
  O9       1.0000 0.23399  0.53747  0.51889  Biso   1.000  O
  O10      1.0000 0.26601  0.03747  0.98111  Biso   1.000  O
  O11      1.0000 0.76601  0.46253  0.48111  Biso   1.000  O
  O12      1.0000 0.73399  0.96253  0.01889  Biso   1.000  O
  O13      1.0000 0.08107  0.69051  0.50732  Biso   1.000  O
  O14      1.0000 0.41893  0.19051  0.99268  Biso   1.000  O
  O15      1.0000 0.91893  0.30949  0.49268  Biso   1.000  O
  O16      1.0000 0.58107  0.80949  0.00732  Biso   1.000  O
  N1       1.0000 0.43472  0.79486  0.70461  Biso   1.000  N
  N2       1.0000 0.06528  0.29486  0.79539  Biso   1.000  N
  N3       1.0000 0.56528  0.20514  0.29539  Biso   1.000  N
  N4       1.0000 0.93472  0.70514  0.20461  Biso   1.000  N
  H1       1.0000 0.40980  0.80000  0.77010  Biso   1.000  H
  H2       1.0000 0.09020  0.30000  0.72990  Biso   1.000  H
  H3       1.0000 0.59020  0.20000  0.22990  Biso   1.000  H
  H4       1.0000 0.90980  0.70000  0.27010  Biso   1.000  H
  O17      1.0000 0.25290  0.27116  0.50116  Biso   1.000  O
  O18      1.0000 0.24710  0.77116  0.99884  Biso   1.000  O
  O19      1.0000 0.74710  0.72884  0.49884  Biso   1.000  O
  O20      1.0000 0.75290  0.22884  0.00116  Biso   1.000  O
  N5       1.0000 0.29998  0.20558  0.56313  Biso   1.000  N
  N6       1.0000 0.20002  0.70558  0.93687  Biso   1.000  N
  N7       1.0000 0.70002  0.79442  0.43687  Biso   1.000  N
  N8       1.0000 0.79998  0.29442  0.06313  Biso   1.000  N
  O21      1.0000 0.24920  0.20800  0.64034  Biso   1.000  O
  O22      1.0000 0.25080  0.70800  0.85966  Biso   1.000  O
  O23      1.0000 0.75080  0.79200  0.35966  Biso   1.000  O
  O24      1.0000 0.74920  0.29200  0.14034  Biso   1.000  O
  C1       1.0000 0.53191  0.00209  0.82706  Biso   1.000  C
  C2       1.0000 0.96809  0.50209  0.67294  Biso   1.000  C
  C3       1.0000 0.46809  0.99791  0.17294  Biso   1.000  C
  C4       1.0000 0.03191  0.49791  0.32706  Biso   1.000  C
  O25      1.0000 0.40250  0.14000  0.54527  Biso   1.000  O
  O26      1.0000 0.09750  0.64000  0.95473  Biso   1.000  O
  O27      1.0000 0.59750  0.86000  0.45473  Biso   1.000  O
  O28      1.0000 0.90250  0.36000  0.04527  Biso   1.000  O
  C5       1.0000 0.55300  0.99838  0.72399  Biso   1.000  C
  C6       1.0000 0.94700  0.49838  0.77601  Biso   1.000  C
  C7       1.0000 0.44700  0.00162  0.27601  Biso   1.000  C
  C8       1.0000 0.05300  0.50162  0.22399  Biso   1.000  C
  H5       1.0000 0.64980  0.96960  0.71180  Biso   1.000  H
  H6       1.0000 0.85020  0.46960  0.78820  Biso   1.000  H
  H7       1.0000 0.35020  0.03040  0.28820  Biso   1.000  H
  H8       1.0000 0.14980  0.53040  0.21180  Biso   1.000  H
  H9       1.0000 0.54680  0.07920  0.70050  Biso   1.000  H
  H10      1.0000 0.95320  0.57920  0.79950  Biso   1.000  H
  H11      1.0000 0.45320  0.92080  0.29950  Biso   1.000  H
  H12      1.0000 0.04680  0.42080  0.20050  Biso   1.000  H
  C9       1.0000 0.31180  0.73170  0.65804  Biso   1.000  C
  C10      1.0000 0.18820  0.23170  0.84196  Biso   1.000  C
  C11      1.0000 0.68820  0.26830  0.34196  Biso   1.000  C
  C12      1.0000 0.81180  0.76830  0.15804  Biso   1.000  C
  H13      1.0000 0.22230  0.77050  0.67520  Biso   1.000  H
  H14      1.0000 0.27770  0.27050  0.82480  Biso   1.000  H
  H15      1.0000 0.77770  0.22950  0.32480  Biso   1.000  H
  H16      1.0000 0.72230  0.72950  0.17520  Biso   1.000  H
  H17      1.0000 0.30810  0.65030  0.68060  Biso   1.000  H
  H18      1.0000 0.19190  0.15030  0.81940  Biso   1.000  H
  H19      1.0000 0.69190  0.34970  0.31940  Biso   1.000  H
  H20      1.0000 0.80810  0.84970  0.18060  Biso   1.000  H
  C13      1.0000 0.44700  0.92154  0.67041  Biso   1.000  C
  C14      1.0000 0.05300  0.42154  0.82959  Biso   1.000  C
  C15      1.0000 0.55300  0.07846  0.32959  Biso   1.000  C
  C16      1.0000 0.94700  0.57846  0.17041  Biso   1.000  C
  H21      1.0000 0.35250  0.95850  0.67300  Biso   1.000  H
  H22      1.0000 0.14750  0.45850  0.82700  Biso   1.000  H
  H23      1.0000 0.64750  0.04150  0.32700  Biso   1.000  H
  H24      1.0000 0.85250  0.54150  0.17300  Biso   1.000  H
  H25      1.0000 0.47620  0.91990  0.60630  Biso   1.000  H
  H26      1.0000 0.02380  0.41990  0.89370  Biso   1.000  H
  H27      1.0000 0.52380  0.08010  0.39370  Biso   1.000  H
  H28      1.0000 0.97620  0.58010  0.10630  Biso   1.000  H
  C17      1.0000 0.56710  0.60372  0.73821  Biso   1.000  C
  C18      1.0000 0.93290  0.10372  0.76179  Biso   1.000  C
  C19      1.0000 0.43290  0.39628  0.26179  Biso   1.000  C
  C20      1.0000 0.06710  0.89628  0.23821  Biso   1.000  C
  C21      1.0000 0.20280  0.64500  0.52229  Biso   1.000  C
  C22      1.0000 0.29720  0.14500  0.97771  Biso   1.000  C
  C23      1.0000 0.79720  0.35500  0.47771  Biso   1.000  C
  C24      1.0000 0.70280  0.85500  0.02229  Biso   1.000  C
  C25      1.0000 0.57660  0.72832  0.69985  Biso   1.000  C
  C26      1.0000 0.92340  0.22832  0.80015  Biso   1.000  C
  C27      1.0000 0.42340  0.27168  0.30015  Biso   1.000  C
  C28      1.0000 0.07660  0.77168  0.19985  Biso   1.000  C
  H29      1.0000 0.60730  0.72420  0.63610  Biso   1.000  H
  H30      1.0000 0.89270  0.22420  0.86390  Biso   1.000  H
  H31      1.0000 0.39270  0.27580  0.36390  Biso   1.000  H
  H32      1.0000 0.10730  0.77580  0.13610  Biso   1.000  H
  H33      1.0000 0.64930  0.77250  0.73400  Biso   1.000  H
  H34      1.0000 0.85070  0.27250  0.76600  Biso   1.000  H
  H35      1.0000 0.35070  0.22750  0.26600  Biso   1.000  H
  H36      1.0000 0.14930  0.72750  0.23400  Biso   1.000  H
  C29      1.0000 0.32160  0.72900  0.55321  Biso   1.000  C
  C30      1.0000 0.17840  0.22900  0.94679  Biso   1.000  C
  C31      1.0000 0.67840  0.27100  0.44679  Biso   1.000  C
  C32      1.0000 0.82160  0.77100  0.05321  Biso   1.000  C
  H37      1.0000 0.30680  0.80800  0.52770  Biso   1.000  H
  H38      1.0000 0.19320  0.30800  0.97230  Biso   1.000  H
  H39      1.0000 0.69320  0.19200  0.47230  Biso   1.000  H
  H40      1.0000 0.80680  0.69200  0.02770  Biso   1.000  H
  H41      1.0000 0.41530  0.69980  0.53380  Biso   1.000  H
  H42      1.0000 0.08470  0.19980  0.96620  Biso   1.000  H
  H43      1.0000 0.58470  0.30020  0.46620  Biso   1.000  H
  H44      1.0000 0.91530  0.80020  0.03380  Biso   1.000  H
  C33      1.0000 0.56720  0.58430  0.83205  Biso   1.000  C
  C34      1.0000 0.93280  0.08430  0.66795  Biso   1.000  C
  C35      1.0000 0.43280  0.41570  0.16795  Biso   1.000  C
  C36      1.0000 0.06720  0.91570  0.33205  Biso   1.000  C
  H45      1.0000 0.57050  0.64840  0.87270  Biso   1.000  H
  H46      1.0000 0.92950  0.14840  0.62730  Biso   1.000  H
  H47      1.0000 0.42950  0.35160  0.12730  Biso   1.000  H
  H48      1.0000 0.07050  0.85160  0.37270  Biso   1.000  H
  C37      1.0000 0.56160  0.50710  0.67900  Biso   1.000  C
  C38      1.0000 0.93840  0.00710  0.82100  Biso   1.000  C
  C39      1.0000 0.43840  0.49290  0.32100  Biso   1.000  C
  C40      1.0000 0.06160  0.99290  0.17900  Biso   1.000  C
  H49      1.0000 0.56120  0.51960  0.61560  Biso   1.000  H
  H50      1.0000 0.93880  0.01960  0.88440  Biso   1.000  H
  H51      1.0000 0.43880  0.48040  0.38440  Biso   1.000  H
  H52      1.0000 0.06120  0.98040  0.11560  Biso   1.000  H
  C41      1.0000 0.55660  0.39230  0.71320  Biso   1.000  C
  C42      1.0000 0.94340  0.89230  0.78680  Biso   1.000  C
  C43      1.0000 0.44340  0.60770  0.28680  Biso   1.000  C
  C44      1.0000 0.05660  0.10770  0.21320  Biso   1.000  C
  H53      1.0000 0.55260  0.32790  0.67280  Biso   1.000  H
  H54      1.0000 0.94740  0.82790  0.82720  Biso   1.000  H
  H55      1.0000 0.44740  0.67210  0.32720  Biso   1.000  H
  H56      1.0000 0.05260  0.17210  0.17280  Biso   1.000  H
  C45      1.0000 0.55740  0.37290  0.80630  Biso   1.000  C
  C46      1.0000 0.94260  0.87290  0.69370  Biso   1.000  C
  C47      1.0000 0.44260  0.62710  0.19370  Biso   1.000  C
  C48      1.0000 0.05740  0.12710  0.30630  Biso   1.000  C
  H57      1.0000 0.55460  0.29550  0.82910  Biso   1.000  H
  H58      1.0000 0.94540  0.79550  0.67090  Biso   1.000  H
  H59      1.0000 0.44540  0.70450  0.17090  Biso   1.000  H
  H60      1.0000 0.05460  0.20450  0.32910  Biso   1.000  H
  C49      1.0000 0.56220  0.46740  0.86570  Biso   1.000  C
  C50      1.0000 0.93780  0.96740  0.63430  Biso   1.000  C
  C51      1.0000 0.43780  0.53260  0.13430  Biso   1.000  C
  C52      1.0000 0.06220  0.03260  0.36570  Biso   1.000  C
  H61      1.0000 0.56220  0.45400  0.92890  Biso   1.000  H
  H62      1.0000 0.93780  0.95400  0.57110  Biso   1.000  H
  H63      1.0000 0.43780  0.54600  0.07110  Biso   1.000  H
  H64      1.0000 0.06220  0.04600  0.42890  Biso   1.000  H
