data_image0
_cell_length_a       8.767
_cell_length_b       12.426
_cell_length_c       13.159
_cell_angle_alpha    90
_cell_angle_beta     108.26
_cell_angle_gamma    90

_symmetry_space_group_name_H-M    "P 1"
_symmetry_int_tables_number       1

loop_
  _symmetry_equiv_pos_as_xyz
  'x, y, z'

loop_
  _atom_site_label
  _atom_site_occupancy
  _atom_site_fract_x
  _atom_site_fract_y
  _atom_site_fract_z
  _atom_site_thermal_displace_type
  _atom_site_B_iso_or_equiv
  _atom_site_type_symbol
  Cu1      1.0000 0.53009  0.52931  0.13693  Biso   1.000  Cu
  Cu2      1.0000 0.46991  0.02931  0.36307  Biso   1.000  Cu
  Cu3      1.0000 0.46991  0.47069  0.86307  Biso   1.000  Cu
  Cu4      1.0000 0.53009  0.97069  0.63693  Biso   1.000  Cu
  K1       1.0000 0.10262  0.38634  0.93596  Biso   1.000  K
  K2       1.0000 0.89738  0.88634  0.56404  Biso   1.000  K
  K3       1.0000 0.89738  0.61366  0.06404  Biso   1.000  K
  K4       1.0000 0.10262  0.11366  0.43596  Biso   1.000  K
  K5       1.0000 0.86027  0.61378  0.38164  Biso   1.000  K
  K6       1.0000 0.13973  0.11378  0.11836  Biso   1.000  K
  K7       1.0000 0.13973  0.38622  0.61836  Biso   1.000  K
  K8       1.0000 0.86027  0.88622  0.88164  Biso   1.000  K
  O1       1.0000 0.86577  0.45133  0.22512  Biso   1.000  O
  O2       1.0000 0.13423  0.95133  0.27488  Biso   1.000  O
  O3       1.0000 0.13423  0.54867  0.77488  Biso   1.000  O
  O4       1.0000 0.86577  0.04867  0.72512  Biso   1.000  O
  O5       1.0000 0.20044  0.60207  0.03346  Biso   1.000  O
  O6       1.0000 0.79956  0.10207  0.46654  Biso   1.000  O
  O7       1.0000 0.79956  0.39793  0.96654  Biso   1.000  O
  O8       1.0000 0.20044  0.89793  0.53346  Biso   1.000  O
  O9       1.0000 0.41091  0.39928  0.08061  Biso   1.000  O
  O10      1.0000 0.58909  0.89928  0.41939  Biso   1.000  O
  O11      1.0000 0.58909  0.60072  0.91939  Biso   1.000  O
  O12      1.0000 0.41091  0.10072  0.58061  Biso   1.000  O
  O13      1.0000 0.65548  0.66325  0.16771  Biso   1.000  O
  O14      1.0000 0.34452  0.16325  0.33229  Biso   1.000  O
  O15      1.0000 0.34452  0.33675  0.83229  Biso   1.000  O
  O16      1.0000 0.65548  0.83675  0.66771  Biso   1.000  O
  O17      1.0000 0.43256  0.22059  0.09720  Biso   1.000  O
  O18      1.0000 0.56744  0.72059  0.40280  Biso   1.000  O
  O19      1.0000 0.56744  0.77941  0.90280  Biso   1.000  O
  O20      1.0000 0.43256  0.27941  0.59720  Biso   1.000  O
  O21      1.0000 0.61938  0.84124  0.16679  Biso   1.000  O
  O22      1.0000 0.38062  0.34124  0.33321  Biso   1.000  O
  O23      1.0000 0.38062  0.15876  0.83321  Biso   1.000  O
  O24      1.0000 0.61938  0.65876  0.66679  Biso   1.000  O
  O25      1.0000 0.52488  0.52800  0.30436  Biso   1.000  O
  O26      1.0000 0.47512  0.02800  0.19564  Biso   1.000  O
  O27      1.0000 0.47512  0.47200  0.69564  Biso   1.000  O
  O28      1.0000 0.52488  0.97200  0.80436  Biso   1.000  O
  H1       1.0000 0.47810  0.46990  0.32010  Biso   1.000  H
  H2       1.0000 0.52190  0.96990  0.17990  Biso   1.000  H
  H3       1.0000 0.52190  0.53010  0.67990  Biso   1.000  H
  H4       1.0000 0.47810  0.03010  0.82010  Biso   1.000  H
  H5       1.0000 0.50290  0.58350  0.32780  Biso   1.000  H
  H6       1.0000 0.49710  0.08350  0.17220  Biso   1.000  H
  H7       1.0000 0.49710  0.41650  0.67220  Biso   1.000  H
  H8       1.0000 0.50290  0.91650  0.82780  Biso   1.000  H
  O29      1.0000 0.10231  0.33982  0.13939  Biso   1.000  O
  O30      1.0000 0.89769  0.83982  0.36061  Biso   1.000  O
  O31      1.0000 0.89769  0.66018  0.86061  Biso   1.000  O
  O32      1.0000 0.10231  0.16018  0.63939  Biso   1.000  O
  H9       1.0000 0.03330  0.36480  0.16120  Biso   1.000  H
  H10      1.0000 0.96670  0.86480  0.33880  Biso   1.000  H
  H11      1.0000 0.96670  0.63520  0.83880  Biso   1.000  H
  H12      1.0000 0.03330  0.13520  0.66120  Biso   1.000  H
  H13      1.0000 0.19000  0.35410  0.19870  Biso   1.000  H
  H14      1.0000 0.81000  0.85410  0.30130  Biso   1.000  H
  H15      1.0000 0.81000  0.64590  0.80130  Biso   1.000  H
  H16      1.0000 0.19000  0.14590  0.69870  Biso   1.000  H
  O33      1.0000 0.10864  0.15821  0.90999  Biso   1.000  O
  O34      1.0000 0.89136  0.65821  0.59001  Biso   1.000  O
  O35      1.0000 0.89136  0.84179  0.09001  Biso   1.000  O
  O36      1.0000 0.10864  0.34179  0.40999  Biso   1.000  O
  H17      1.0000 0.18680  0.14710  0.88970  Biso   1.000  H
  H18      1.0000 0.81320  0.64710  0.61030  Biso   1.000  H
  H19      1.0000 0.81320  0.85290  0.11030  Biso   1.000  H
  H20      1.0000 0.18680  0.35290  0.38970  Biso   1.000  H
  H21      1.0000 0.02460  0.13490  0.85720  Biso   1.000  H
  H22      1.0000 0.97540  0.63490  0.64280  Biso   1.000  H
  H23      1.0000 0.97540  0.86510  0.14280  Biso   1.000  H
  H24      1.0000 0.02460  0.36510  0.35720  Biso   1.000  H
  N1       1.0000 0.71631  0.42739  0.18069  Biso   1.000  N
  N2       1.0000 0.28369  0.92739  0.31931  Biso   1.000  N
  N3       1.0000 0.28369  0.57261  0.81931  Biso   1.000  N
  N4       1.0000 0.71631  0.07261  0.68069  Biso   1.000  N
  N5       1.0000 0.34617  0.62774  0.07855  Biso   1.000  N
  N6       1.0000 0.65383  0.12774  0.42145  Biso   1.000  N
  N7       1.0000 0.65383  0.37226  0.92145  Biso   1.000  N
  N8       1.0000 0.34617  0.87226  0.57855  Biso   1.000  N
  N9       1.0000 0.86325  0.16875  0.23004  Biso   1.000  N
  N10      1.0000 0.13675  0.66875  0.26996  Biso   1.000  N
  N11      1.0000 0.13675  0.83125  0.76996  Biso   1.000  N
  N12      1.0000 0.86325  0.33125  0.73004  Biso   1.000  N
  N13      1.0000 0.19141  0.88673  0.03683  Biso   1.000  N
  N14      1.0000 0.80859  0.38673  0.46317  Biso   1.000  N
  N15      1.0000 0.80859  0.11327  0.96317  Biso   1.000  N
  N16      1.0000 0.19141  0.61327  0.53683  Biso   1.000  N
  C1       1.0000 0.77410  0.23825  0.20181  Biso   1.000  C
  C2       1.0000 0.22590  0.73825  0.29819  Biso   1.000  C
  C3       1.0000 0.22590  0.76175  0.79819  Biso   1.000  C
  C4       1.0000 0.77410  0.26175  0.70181  Biso   1.000  C
  C5       1.0000 0.28110  0.81670  0.06281  Biso   1.000  C
  C6       1.0000 0.71890  0.31670  0.43719  Biso   1.000  C
  C7       1.0000 0.71890  0.18330  0.93719  Biso   1.000  C
  C8       1.0000 0.28110  0.68330  0.56281  Biso   1.000  C
  C9       1.0000 0.66627  0.32726  0.16742  Biso   1.000  C
  C10      1.0000 0.33373  0.82726  0.33258  Biso   1.000  C
  C11      1.0000 0.33373  0.67274  0.83258  Biso   1.000  C
  C12      1.0000 0.66627  0.17274  0.66742  Biso   1.000  C
  C13      1.0000 0.39260  0.72992  0.09515  Biso   1.000  C
  C14      1.0000 0.60740  0.22992  0.40485  Biso   1.000  C
  C15      1.0000 0.60740  0.27008  0.90485  Biso   1.000  C
  C16      1.0000 0.39260  0.77008  0.59515  Biso   1.000  C
  C17      1.0000 0.49040  0.31178  0.11168  Biso   1.000  C
  C18      1.0000 0.50960  0.81178  0.38832  Biso   1.000  C
  C19      1.0000 0.50960  0.68822  0.88832  Biso   1.000  C
  C20      1.0000 0.49040  0.18822  0.61168  Biso   1.000  C
  C21      1.0000 0.56710  0.74813  0.14657  Biso   1.000  C
  C22      1.0000 0.43290  0.24813  0.35343  Biso   1.000  C
  C23      1.0000 0.43290  0.25187  0.85343  Biso   1.000  C
  C24      1.0000 0.56710  0.75187  0.64657  Biso   1.000  C
