data_image0
_cell_length_a       5.9348
_cell_length_b       12.5125
_cell_length_c       12.6846
_cell_angle_alpha    90
_cell_angle_beta     95.4407
_cell_angle_gamma    90

_symmetry_space_group_name_H-M    "P 1"
_symmetry_int_tables_number       1

loop_
  _symmetry_equiv_pos_as_xyz
  'x, y, z'

loop_
  _atom_site_label
  _atom_site_occupancy
  _atom_site_fract_x
  _atom_site_fract_y
  _atom_site_fract_z
  _atom_site_thermal_displace_type
  _atom_site_B_iso_or_equiv
  _atom_site_type_symbol
  C1       1.0000 0.84910  0.63250  0.69930  Biso   1.000  C
  C2       1.0000 0.15090  0.13250  0.30070  Biso   1.000  C
  H1       1.0000 0.90410  0.69190  0.74070  Biso   1.000  H
  H2       1.0000 0.09590  0.19190  0.25930  Biso   1.000  H
  C3       1.0000 0.96230  0.60290  0.61260  Biso   1.000  C
  C4       1.0000 0.03770  0.10290  0.38740  Biso   1.000  C
  H3       1.0000 0.09250  0.64140  0.59620  Biso   1.000  H
  H4       1.0000 0.90750  0.14140  0.40380  Biso   1.000  H
  C5       1.0000 0.88520  0.51780  0.55070  Biso   1.000  C
  C6       1.0000 0.11480  0.01780  0.44930  Biso   1.000  C
  H5       1.0000 0.95850  0.49840  0.49010  Biso   1.000  H
  H6       1.0000 0.04150  0.99840  0.50990  Biso   1.000  H
  C7       1.0000 0.69660  0.45990  0.57830  Biso   1.000  C
  C8       1.0000 0.30340  0.95990  0.42170  Biso   1.000  C
  C9       1.0000 0.59280  0.36820  0.52390  Biso   1.000  C
  C10      1.0000 0.40720  0.86820  0.47610  Biso   1.000  C
  C11      1.0000 0.41180  0.31550  0.55680  Biso   1.000  C
  C12      1.0000 0.58820  0.81550  0.44320  Biso   1.000  C
  H7       1.0000 0.35020  0.25570  0.51790  Biso   1.000  H
  H8       1.0000 0.64980  0.75570  0.48210  Biso   1.000  H
  C13      1.0000 0.31380  0.34960  0.64960  Biso   1.000  C
  C14      1.0000 0.68620  0.84960  0.35040  Biso   1.000  C
  C15      1.0000 0.13300  0.29650  0.69180  Biso   1.000  C
  C16      1.0000 0.86700  0.79650  0.30820  Biso   1.000  C
  H9       1.0000 0.07010  0.23340  0.65930  Biso   1.000  H
  H10      1.0000 0.92990  0.73340  0.34070  Biso   1.000  H
  C17      1.0000 0.04990  0.33740  0.77990  Biso   1.000  C
  C18      1.0000 0.95010  0.83740  0.22010  Biso   1.000  C
  H11      1.0000 0.92810  0.30280  0.80950  Biso   1.000  H
  H12      1.0000 0.07190  0.80280  0.19050  Biso   1.000  H
  C19      1.0000 0.14430  0.43060  0.82710  Biso   1.000  C
  C20      1.0000 0.85570  0.93060  0.17290  Biso   1.000  C
  H13      1.0000 0.08320  0.45830  0.88810  Biso   1.000  H
  H14      1.0000 0.91680  0.95830  0.11190  Biso   1.000  H
  C21      1.0000 0.40250  0.44010  0.70260  Biso   1.000  C
  C22      1.0000 0.59750  0.94010  0.29740  Biso   1.000  C
  C23      1.0000 0.59350  0.49480  0.66780  Biso   1.000  C
  C24      1.0000 0.40650  0.99480  0.33220  Biso   1.000  C
  C25      1.0000 0.20940  0.75620  0.94340  Biso   1.000  C
  C26      1.0000 0.79060  0.25620  0.05660  Biso   1.000  C
  C27      1.0000 0.41960  0.82390  0.93200  Biso   1.000  C
  C28      1.0000 0.58040  0.32390  0.06800  Biso   1.000  C
  H15      1.0000 0.49390  0.83870  0.00460  Biso   1.000  H
  H16      1.0000 0.50610  0.33870  0.99540  Biso   1.000  H
  C29      1.0000 0.35350  0.93140  0.87970  Biso   1.000  C
  C30      1.0000 0.64650  0.43140  0.12030  Biso   1.000  C
  H17      1.0000 0.49160  0.96730  0.85950  Biso   1.000  H
  H18      1.0000 0.50840  0.46730  0.14050  Biso   1.000  H
  H19      1.0000 0.25300  0.91820  0.81420  Biso   1.000  H
  H20      1.0000 0.74700  0.41820  0.18580  Biso   1.000  H
  C31      1.0000 0.23440  0.00460  0.95120  Biso   1.000  C
  C32      1.0000 0.76560  0.50460  0.04880  Biso   1.000  C
  Cu1      1.0000 0.47516  0.61482  0.84365  Biso   1.000  Cu
  Cu2      1.0000 0.52484  0.11482  0.15635  Biso   1.000  Cu
  H21      1.0000 0.58600  0.79300  0.81000  Biso   1.000  H
  H22      1.0000 0.41400  0.29300  0.19000  Biso   1.000  H
  H23      1.0000 0.72200  0.76900  0.90900  Biso   1.000  H
  H24      1.0000 0.27800  0.26900  0.09100  Biso   1.000  H
  H25      1.0000 0.00500  0.04400  0.84700  Biso   1.000  H
  H26      1.0000 0.99500  0.54400  0.15300  Biso   1.000  H
  H27      1.0000 0.98500  0.09900  0.94900  Biso   1.000  H
  H28      1.0000 0.01500  0.59900  0.05100  Biso   1.000  H
  N1       1.0000 0.66900  0.58164  0.72631  Biso   1.000  N
  N2       1.0000 0.33100  0.08164  0.27369  Biso   1.000  N
  N3       1.0000 0.31550  0.48140  0.78970  Biso   1.000  N
  N4       1.0000 0.68450  0.98140  0.21030  Biso   1.000  N
  N5       1.0000 0.58270  0.76450  0.87260  Biso   1.000  N
  N6       1.0000 0.41730  0.26450  0.12740  Biso   1.000  N
  N7       1.0000 0.68820  0.32470  0.43110  Biso   1.000  N
  N8       1.0000 0.31180  0.82470  0.56890  Biso   1.000  N
  N9       1.0000 0.05300  0.05520  0.90960  Biso   1.000  N
  N10      1.0000 0.94700  0.55520  0.09040  Biso   1.000  N
  O1       1.0000 0.22390  0.65575  0.92071  Biso   1.000  O
  O2       1.0000 0.77610  0.15575  0.07929  Biso   1.000  O
  O3       1.0000 0.04180  0.79751  0.97559  Biso   1.000  O
  O4       1.0000 0.95820  0.29751  0.02441  Biso   1.000  O
  O5       1.0000 0.56220  0.27429  0.36658  Biso   1.000  O
  O6       1.0000 0.43780  0.77429  0.63342  Biso   1.000  O
  O7       1.0000 0.89250  0.33668  0.42354  Biso   1.000  O
  O8       1.0000 0.10750  0.83668  0.57646  Biso   1.000  O
  O9       1.0000 0.31200  0.01780  0.04399  Biso   1.000  O
  O10      1.0000 0.68800  0.51780  0.95601  Biso   1.000  O
  Cl1      1.0000 0.35815  0.57231  0.33146  Biso   1.000  Cl
  Cl2      1.0000 0.64185  0.07231  0.66854  Biso   1.000  Cl
  O11      1.0000 0.23050  0.47850  0.29650  Biso   1.000  O
  O12      1.0000 0.76950  0.97850  0.70350  Biso   1.000  O
  O13      1.0000 0.28240  0.60900  0.42928  Biso   1.000  O
  O14      1.0000 0.71760  0.10900  0.57072  Biso   1.000  O
  O15      1.0000 0.59450  0.54640  0.34737  Biso   1.000  O
  O16      1.0000 0.40550  0.04640  0.65263  Biso   1.000  O
  O17      1.0000 0.32280  0.65380  0.25220  Biso   1.000  O
  O18      1.0000 0.67720  0.15380  0.74780  Biso   1.000  O
