data_image0
_cell_length_a       11.3346
_cell_length_b       15.7647
_cell_length_c       22.9
_cell_angle_alpha    90
_cell_angle_beta     81.976
_cell_angle_gamma    90

_symmetry_space_group_name_H-M    "P 1"
_symmetry_int_tables_number       1

loop_
  _symmetry_equiv_pos_as_xyz
  'x, y, z'

loop_
  _atom_site_label
  _atom_site_occupancy
  _atom_site_fract_x
  _atom_site_fract_y
  _atom_site_fract_z
  _atom_site_thermal_displace_type
  _atom_site_B_iso_or_equiv
  _atom_site_type_symbol
  Cu1      1.0000 0.61285  0.74331  0.77138  Biso   1.000  Cu
  Cu2      1.0000 0.88715  0.24331  0.72862  Biso   1.000  Cu
  Cu3      1.0000 0.38715  0.25669  0.22862  Biso   1.000  Cu
  Cu4      1.0000 0.11285  0.75669  0.27138  Biso   1.000  Cu
  C1       1.0000 0.74190  0.13650  0.79630  Biso   1.000  C
  C2       1.0000 0.75810  0.63650  0.70370  Biso   1.000  C
  C3       1.0000 0.25810  0.86350  0.20370  Biso   1.000  C
  C4       1.0000 0.24190  0.36350  0.29630  Biso   1.000  C
  H1       1.0000 0.78220  0.08830  0.78110  Biso   1.000  H
  H2       1.0000 0.71780  0.58830  0.71890  Biso   1.000  H
  H3       1.0000 0.21780  0.91170  0.21890  Biso   1.000  H
  H4       1.0000 0.28220  0.41170  0.28110  Biso   1.000  H
  C5       1.0000 0.70970  0.26540  0.81120  Biso   1.000  C
  C6       1.0000 0.79030  0.76540  0.68880  Biso   1.000  C
  C7       1.0000 0.29030  0.73460  0.18880  Biso   1.000  C
  C8       1.0000 0.20970  0.23460  0.31120  Biso   1.000  C
  H5       1.0000 0.71370  0.32430  0.81170  Biso   1.000  H
  H6       1.0000 0.78630  0.82430  0.68830  Biso   1.000  H
  H7       1.0000 0.28630  0.67570  0.18830  Biso   1.000  H
  H8       1.0000 0.21370  0.17570  0.31170  Biso   1.000  H
  C9       1.0000 0.54140  0.24550  0.87300  Biso   1.000  C
  C10      1.0000 0.95860  0.74550  0.62700  Biso   1.000  C
  C11      1.0000 0.45860  0.75450  0.12700  Biso   1.000  C
  C12      1.0000 0.04140  0.25450  0.37300  Biso   1.000  C
  H9       1.0000 0.56400  0.27320  0.90760  Biso   1.000  H
  H10      1.0000 0.93600  0.77320  0.59240  Biso   1.000  H
  H11      1.0000 0.43600  0.72680  0.09240  Biso   1.000  H
  H12      1.0000 0.06400  0.22680  0.40760  Biso   1.000  H
  H13      1.0000 0.49130  0.19730  0.88590  Biso   1.000  H
  H14      1.0000 0.00870  0.69730  0.61410  Biso   1.000  H
  H15      1.0000 0.50870  0.80270  0.11410  Biso   1.000  H
  H16      1.0000 0.99130  0.30270  0.38590  Biso   1.000  H
  C13      1.0000 0.46700  0.31330  0.83550  Biso   1.000  C
  C14      1.0000 0.03300  0.81330  0.66450  Biso   1.000  C
  C15      1.0000 0.53300  0.68670  0.16450  Biso   1.000  C
  C16      1.0000 0.96700  0.18670  0.33550  Biso   1.000  C
  C17      1.0000 0.43250  0.30240  0.77610  Biso   1.000  C
  C18      1.0000 0.06750  0.80240  0.72390  Biso   1.000  C
  C19      1.0000 0.56750  0.69760  0.22390  Biso   1.000  C
  C20      1.0000 0.93250  0.19760  0.27610  Biso   1.000  C
  H17      1.0000 0.45400  0.25250  0.75580  Biso   1.000  H
  H18      1.0000 0.04600  0.75250  0.74420  Biso   1.000  H
  H19      1.0000 0.54600  0.74750  0.24420  Biso   1.000  H
  H20      1.0000 0.95400  0.24750  0.25580  Biso   1.000  H
  C21      1.0000 0.36460  0.36760  0.74710  Biso   1.000  C
  C22      1.0000 0.13540  0.86760  0.75290  Biso   1.000  C
  C23      1.0000 0.63540  0.63240  0.25290  Biso   1.000  C
  C24      1.0000 0.86460  0.13240  0.24710  Biso   1.000  C
  H21      1.0000 0.34840  0.35720  0.70900  Biso   1.000  H
  H22      1.0000 0.15160  0.85720  0.79100  Biso   1.000  H
  H23      1.0000 0.65160  0.64280  0.29100  Biso   1.000  H
  H24      1.0000 0.84840  0.14280  0.20900  Biso   1.000  H
  C25      1.0000 0.32790  0.43640  0.77180  Biso   1.000  C
  C26      1.0000 0.17210  0.93640  0.72820  Biso   1.000  C
  C27      1.0000 0.67210  0.56360  0.22820  Biso   1.000  C
  C28      1.0000 0.82790  0.06360  0.27180  Biso   1.000  C
  C29      1.0000 0.35930  0.44320  0.83260  Biso   1.000  C
  C30      1.0000 0.14070  0.94320  0.66740  Biso   1.000  C
  C31      1.0000 0.64070  0.55680  0.16740  Biso   1.000  C
  C32      1.0000 0.85930  0.05680  0.33260  Biso   1.000  C
  H25      1.0000 0.33200  0.49170  0.85330  Biso   1.000  H
  H26      1.0000 0.16800  0.99170  0.64670  Biso   1.000  H
  H27      1.0000 0.66800  0.50830  0.14670  Biso   1.000  H
  H28      1.0000 0.83200  0.00830  0.35330  Biso   1.000  H
  C33      1.0000 0.42930  0.38230  0.86510  Biso   1.000  C
  C34      1.0000 0.07070  0.88230  0.63490  Biso   1.000  C
  C35      1.0000 0.57070  0.61770  0.13490  Biso   1.000  C
  C36      1.0000 0.92930  0.11770  0.36510  Biso   1.000  C
  H29      1.0000 0.44480  0.39260  0.90330  Biso   1.000  H
  H30      1.0000 0.05520  0.89260  0.59670  Biso   1.000  H
  H31      1.0000 0.55520  0.60740  0.09670  Biso   1.000  H
  H32      1.0000 0.94480  0.10740  0.40330  Biso   1.000  H
  C37      1.0000 0.25960  0.50900  0.73880  Biso   1.000  C
  C38      1.0000 0.24040  0.00900  0.76120  Biso   1.000  C
  C39      1.0000 0.74040  0.49100  0.26120  Biso   1.000  C
  C40      1.0000 0.75960  0.99100  0.23880  Biso   1.000  C
  H33      1.0000 0.23490  0.48670  0.70290  Biso   1.000  H
  H34      1.0000 0.26510  0.98670  0.79710  Biso   1.000  H
  H35      1.0000 0.76510  0.51330  0.29710  Biso   1.000  H
  H36      1.0000 0.73490  0.01330  0.20290  Biso   1.000  H
  H37      1.0000 0.18960  0.52900  0.76430  Biso   1.000  H
  H38      1.0000 0.31040  0.02900  0.73570  Biso   1.000  H
  H39      1.0000 0.81040  0.47100  0.23570  Biso   1.000  H
  H40      1.0000 0.68960  0.97100  0.26430  Biso   1.000  H
  C41      1.0000 0.43300  0.65530  0.67960  Biso   1.000  C
  C42      1.0000 0.06700  0.15530  0.82040  Biso   1.000  C
  C43      1.0000 0.56700  0.34470  0.32040  Biso   1.000  C
  C44      1.0000 0.93300  0.84470  0.17960  Biso   1.000  C
  H41      1.0000 0.46500  0.68820  0.64760  Biso   1.000  H
  H42      1.0000 0.03500  0.18820  0.85240  Biso   1.000  H
  H43      1.0000 0.53500  0.31180  0.35240  Biso   1.000  H
  H44      1.0000 0.96500  0.81180  0.14760  Biso   1.000  H
  C45      1.0000 0.42810  0.61350  0.75940  Biso   1.000  C
  C46      1.0000 0.07190  0.11350  0.74060  Biso   1.000  C
  C47      1.0000 0.57190  0.38650  0.24060  Biso   1.000  C
  C48      1.0000 0.92810  0.88650  0.25940  Biso   1.000  C
  H45      1.0000 0.43730  0.59750  0.79760  Biso   1.000  H
  H46      1.0000 0.06270  0.09750  0.70240  Biso   1.000  H
  H47      1.0000 0.56270  0.40250  0.20240  Biso   1.000  H
  H48      1.0000 0.93730  0.90250  0.29760  Biso   1.000  H
  C49      1.0000 0.53010  0.76750  0.89080  Biso   1.000  C
  C50      1.0000 0.96990  0.26750  0.60920  Biso   1.000  C
  C51      1.0000 0.46990  0.23250  0.10920  Biso   1.000  C
  C52      1.0000 0.03010  0.73250  0.39080  Biso   1.000  C
  H49      1.0000 0.59200  0.74360  0.90790  Biso   1.000  H
  H50      1.0000 0.90800  0.24360  0.59210  Biso   1.000  H
  H51      1.0000 0.40800  0.25640  0.09210  Biso   1.000  H
  H52      1.0000 0.09200  0.75640  0.40790  Biso   1.000  H
  C53      1.0000 0.40890  0.81240  0.82055  Biso   1.000  C
  C54      1.0000 0.09110  0.31240  0.67945  Biso   1.000  C
  C55      1.0000 0.59110  0.18760  0.17945  Biso   1.000  C
  C56      1.0000 0.90890  0.68760  0.32055  Biso   1.000  C
  H53      1.0000 0.38240  0.82210  0.78450  Biso   1.000  H
  H54      1.0000 0.11760  0.32210  0.71550  Biso   1.000  H
  H55      1.0000 0.61760  0.17790  0.21550  Biso   1.000  H
  H56      1.0000 0.88240  0.67790  0.28450  Biso   1.000  H
  C57      1.0000 0.43170  0.82340  0.97494  Biso   1.000  C
  C58      1.0000 0.06830  0.32340  0.52506  Biso   1.000  C
  C59      1.0000 0.56830  0.17660  0.02506  Biso   1.000  C
  C60      1.0000 0.93170  0.67660  0.47494  Biso   1.000  C
  H57      1.0000 0.48100  0.78380  0.99320  Biso   1.000  H
  H58      1.0000 0.01900  0.28380  0.50680  Biso   1.000  H
  H59      1.0000 0.51900  0.21620  0.00680  Biso   1.000  H
  H60      1.0000 0.98100  0.71620  0.49320  Biso   1.000  H
  H61      1.0000 0.34970  0.81470  0.99260  Biso   1.000  H
  H62      1.0000 0.15030  0.31470  0.50740  Biso   1.000  H
  H63      1.0000 0.65030  0.18530  0.00740  Biso   1.000  H
  H64      1.0000 0.84970  0.68530  0.49260  Biso   1.000  H
  C61      1.0000 0.39390  0.97040  0.01025  Biso   1.000  C
  C62      1.0000 0.10610  0.47040  0.48975  Biso   1.000  C
  C63      1.0000 0.60610  0.02960  0.98975  Biso   1.000  C
  C64      1.0000 0.89390  0.52960  0.51025  Biso   1.000  C
  H65      1.0000 0.31430  0.95460  0.01820  Biso   1.000  H
  H66      1.0000 0.18570  0.45460  0.48180  Biso   1.000  H
  H67      1.0000 0.68570  0.04540  0.98180  Biso   1.000  H
  H68      1.0000 0.81430  0.54540  0.51820  Biso   1.000  H
  C65      1.0000 0.46960  0.91540  0.98830  Biso   1.000  C
  C66      1.0000 0.03040  0.41540  0.51170  Biso   1.000  C
  C67      1.0000 0.53040  0.08460  0.01170  Biso   1.000  C
  C68      1.0000 0.96960  0.58460  0.48830  Biso   1.000  C
  C69      1.0000 0.57530  0.94770  0.97724  Biso   1.000  C
  C70      1.0000 0.92470  0.44770  0.52276  Biso   1.000  C
  C71      1.0000 0.42470  0.05230  0.02276  Biso   1.000  C
  C72      1.0000 0.07530  0.55230  0.47724  Biso   1.000  C
  H69      1.0000 0.63570  0.91260  0.95930  Biso   1.000  H
  H70      1.0000 0.86430  0.41260  0.54070  Biso   1.000  H
  H71      1.0000 0.36430  0.08740  0.04070  Biso   1.000  H
  H72      1.0000 0.13570  0.58740  0.45930  Biso   1.000  H
  C73      1.0000 0.72940  0.91080  0.80432  Biso   1.000  C
  C74      1.0000 0.77060  0.41080  0.69568  Biso   1.000  C
  C75      1.0000 0.27060  0.08920  0.19568  Biso   1.000  C
  C76      1.0000 0.22940  0.58920  0.30432  Biso   1.000  C
  H73      1.0000 0.67470  0.93980  0.78500  Biso   1.000  H
  H74      1.0000 0.82530  0.43980  0.71500  Biso   1.000  H
  H75      1.0000 0.32530  0.06020  0.21500  Biso   1.000  H
  H76      1.0000 0.17470  0.56020  0.28500  Biso   1.000  H
  C77      1.0000 0.83790  0.81180  0.84637  Biso   1.000  C
  C78      1.0000 0.66210  0.31180  0.65363  Biso   1.000  C
  C79      1.0000 0.16210  0.18820  0.15363  Biso   1.000  C
  C80      1.0000 0.33790  0.68820  0.34637  Biso   1.000  C
  H77      1.0000 0.86180  0.75900  0.85850  Biso   1.000  H
  H78      1.0000 0.63820  0.25900  0.64150  Biso   1.000  H
  H79      1.0000 0.13820  0.24100  0.14150  Biso   1.000  H
  H80      1.0000 0.36180  0.74100  0.35850  Biso   1.000  H
  C81      1.0000 0.00870  0.90780  0.89024  Biso   1.000  C
  C82      1.0000 0.49130  0.40780  0.60976  Biso   1.000  C
  C83      1.0000 0.99130  0.09220  0.10976  Biso   1.000  C
  C84      1.0000 0.50870  0.59220  0.39024  Biso   1.000  C
  H81      1.0000 0.04580  0.85370  0.89650  Biso   1.000  H
  H82      1.0000 0.45420  0.35370  0.60350  Biso   1.000  H
  H83      1.0000 0.95420  0.14630  0.10350  Biso   1.000  H
  H84      1.0000 0.54580  0.64630  0.39650  Biso   1.000  H
  H85      1.0000 0.06430  0.93880  0.86200  Biso   1.000  H
  H86      1.0000 0.43570  0.43880  0.63800  Biso   1.000  H
  H87      1.0000 0.93570  0.06120  0.13800  Biso   1.000  H
  H88      1.0000 0.56430  0.56120  0.36200  Biso   1.000  H
  C85      1.0000 0.99980  0.95520  0.94733  Biso   1.000  C
  C86      1.0000 0.50020  0.45520  0.55267  Biso   1.000  C
  C87      1.0000 0.00020  0.04480  0.05267  Biso   1.000  C
  C88      1.0000 0.49980  0.54480  0.44733  Biso   1.000  C
  C89      1.0000 0.91850  0.93280  0.98683  Biso   1.000  C
  C90      1.0000 0.58150  0.43280  0.51317  Biso   1.000  C
  C91      1.0000 0.08150  0.06720  0.01317  Biso   1.000  C
  C92      1.0000 0.41850  0.56720  0.48683  Biso   1.000  C
  H89      1.0000 0.86250  0.89110  0.98210  Biso   1.000  H
  H90      1.0000 0.63750  0.39110  0.51790  Biso   1.000  H
  H91      1.0000 0.13750  0.10890  0.01790  Biso   1.000  H
  H92      1.0000 0.36250  0.60890  0.48210  Biso   1.000  H
  C93      1.0000 0.92230  0.97800  0.03913  Biso   1.000  C
  C94      1.0000 0.57770  0.47800  0.46087  Biso   1.000  C
  C95      1.0000 0.07770  0.02200  0.96087  Biso   1.000  C
  C96      1.0000 0.42230  0.52200  0.53913  Biso   1.000  C
  H93      1.0000 0.86480  0.96230  0.07020  Biso   1.000  H
  H94      1.0000 0.63520  0.46230  0.42980  Biso   1.000  H
  H95      1.0000 0.13520  0.03770  0.92980  Biso   1.000  H
  H96      1.0000 0.36480  0.53770  0.57020  Biso   1.000  H
  N1       1.0000 0.77610  0.21500  0.78311  Biso   1.000  N
  N2       1.0000 0.72390  0.71500  0.71689  Biso   1.000  N
  N3       1.0000 0.22390  0.78500  0.21689  Biso   1.000  N
  N4       1.0000 0.27610  0.28500  0.28311  Biso   1.000  N
  N5       1.0000 0.65190  0.13580  0.83061  Biso   1.000  N
  N6       1.0000 0.84810  0.63580  0.66939  Biso   1.000  N
  N7       1.0000 0.34810  0.86420  0.16939  Biso   1.000  N
  N8       1.0000 0.15190  0.36420  0.33061  Biso   1.000  N
  N9       1.0000 0.63830  0.21950  0.83790  Biso   1.000  N
  N10      1.0000 0.86170  0.71950  0.66210  Biso   1.000  N
  N11      1.0000 0.36170  0.78050  0.16210  Biso   1.000  N
  N12      1.0000 0.13830  0.28050  0.33790  Biso   1.000  N
  N13      1.0000 0.34750  0.60460  0.67035  Biso   1.000  N
  N14      1.0000 0.15250  0.10460  0.82965  Biso   1.000  N
  N15      1.0000 0.65250  0.39540  0.32965  Biso   1.000  N
  N16      1.0000 0.84750  0.89540  0.17035  Biso   1.000  N
  N17      1.0000 0.34220  0.57550  0.72567  Biso   1.000  N
  N18      1.0000 0.15780  0.07550  0.77433  Biso   1.000  N
  N19      1.0000 0.65780  0.42450  0.27433  Biso   1.000  N
  N20      1.0000 0.84220  0.92450  0.22567  Biso   1.000  N
  N21      1.0000 0.48520  0.66720  0.73236  Biso   1.000  N
  N22      1.0000 0.01480  0.16720  0.76764  Biso   1.000  N
  N23      1.0000 0.51480  0.33280  0.26764  Biso   1.000  N
  N24      1.0000 0.98520  0.83280  0.23236  Biso   1.000  N
  N25      1.0000 0.51080  0.77050  0.83130  Biso   1.000  N
  N26      1.0000 0.98920  0.27050  0.66870  Biso   1.000  N
  N27      1.0000 0.48920  0.22950  0.16870  Biso   1.000  N
  N28      1.0000 0.01080  0.72950  0.33130  Biso   1.000  N
  N29      1.0000 0.36230  0.83340  0.86946  Biso   1.000  N
  N30      1.0000 0.13770  0.33340  0.63054  Biso   1.000  N
  N31      1.0000 0.63770  0.16660  0.13054  Biso   1.000  N
  N32      1.0000 0.86230  0.66660  0.36946  Biso   1.000  N
  N33      1.0000 0.44210  0.80540  0.91303  Biso   1.000  N
  N34      1.0000 0.05790  0.30540  0.58697  Biso   1.000  N
  N35      1.0000 0.55790  0.19460  0.08697  Biso   1.000  N
  N36      1.0000 0.94210  0.69460  0.41303  Biso   1.000  N
  N37      1.0000 0.73380  0.82550  0.81106  Biso   1.000  N
  N38      1.0000 0.76620  0.32550  0.68894  Biso   1.000  N
  N39      1.0000 0.26620  0.17450  0.18894  Biso   1.000  N
  N40      1.0000 0.23380  0.67450  0.31106  Biso   1.000  N
  N41      1.0000 0.82380  0.94970  0.83211  Biso   1.000  N
  N42      1.0000 0.67620  0.44970  0.66789  Biso   1.000  N
  N43      1.0000 0.17620  0.05030  0.16789  Biso   1.000  N
  N44      1.0000 0.32380  0.55030  0.33211  Biso   1.000  N
  N45      1.0000 0.89170  0.88730  0.85787  Biso   1.000  N
  N46      1.0000 0.60830  0.38730  0.64213  Biso   1.000  N
  N47      1.0000 0.10830  0.11270  0.14213  Biso   1.000  N
  N48      1.0000 0.39170  0.61270  0.35787  Biso   1.000  N
  Si1      1.0000 0.50000  0.00000  0.50000  Biso   1.000  Si
  Si2      1.0000 0.00000  0.50000  0.00000  Biso   1.000  Si
  Mo1      1.0000 0.72226  0.05785  0.61626  Biso   1.000  Mo
  Mo2      1.0000 0.77774  0.55785  0.88374  Biso   1.000  Mo
  Mo3      1.0000 0.27774  0.94215  0.38374  Biso   1.000  Mo
  Mo4      1.0000 0.22226  0.44215  0.11626  Biso   1.000  Mo
  Mo5      1.0000 0.70423  0.16189  0.47869  Biso   1.000  Mo
  Mo6      1.0000 0.79577  0.66189  0.02131  Biso   1.000  Mo
  Mo7      1.0000 0.29577  0.83811  0.52131  Biso   1.000  Mo
  Mo8      1.0000 0.20423  0.33811  0.97869  Biso   1.000  Mo
  Mo9      1.0000 0.79915  0.94868  0.49291  Biso   1.000  Mo
  Mo10     1.0000 0.70085  0.44868  0.00709  Biso   1.000  Mo
  Mo11     1.0000 0.20085  0.05132  0.50709  Biso   1.000  Mo
  Mo12     1.0000 0.29915  0.55132  0.99291  Biso   1.000  Mo
  Mo13     1.0000 0.50378  0.90817  0.64060  Biso   1.000  Mo
  Mo14     1.0000 0.99622  0.40817  0.85940  Biso   1.000  Mo
  Mo15     1.0000 0.49622  0.09183  0.35940  Biso   1.000  Mo
  Mo16     1.0000 0.00378  0.59183  0.14060  Biso   1.000  Mo
  Mo17     1.0000 0.42339  0.12260  0.61756  Biso   1.000  Mo
  Mo18     1.0000 0.07661  0.62260  0.88244  Biso   1.000  Mo
  Mo19     1.0000 0.57661  0.87740  0.38244  Biso   1.000  Mo
  Mo20     1.0000 0.92339  0.37740  0.11756  Biso   1.000  Mo
  Mo21     1.0000 0.60023  0.78952  0.52579  Biso   1.000  Mo
  Mo22     1.0000 0.89977  0.28952  0.97421  Biso   1.000  Mo
  Mo23     1.0000 0.39977  0.21048  0.47421  Biso   1.000  Mo
  Mo24     1.0000 0.10023  0.71048  0.02579  Biso   1.000  Mo
  O1       1.0000 0.62700  0.03380  0.51690  Biso   1.000  O
  O2       1.0000 0.87300  0.53380  0.98310  Biso   1.000  O
  O3       1.0000 0.37300  0.96620  0.48310  Biso   1.000  O
  O4       1.0000 0.12700  0.46620  0.01690  Biso   1.000  O
  O5       1.0000 0.47060  0.91460  0.53420  Biso   1.000  O
  O6       1.0000 0.02940  0.41460  0.96580  Biso   1.000  O
  O7       1.0000 0.52940  0.08540  0.46580  Biso   1.000  O
  O8       1.0000 0.97060  0.58540  0.03420  Biso   1.000  O
  O9       1.0000 0.53960  0.01540  0.57190  Biso   1.000  O
  O10      1.0000 0.96040  0.51540  0.92810  Biso   1.000  O
  O11      1.0000 0.46040  0.98460  0.42810  Biso   1.000  O
  O12      1.0000 0.03960  0.48460  0.07190  Biso   1.000  O
  O13      1.0000 0.40210  0.07280  0.51850  Biso   1.000  O
  O14      1.0000 0.09790  0.57280  0.98150  Biso   1.000  O
  O15      1.0000 0.59790  0.92720  0.48150  Biso   1.000  O
  O16      1.0000 0.90210  0.42720  0.01850  Biso   1.000  O
  O17      1.0000 0.42210  0.20560  0.56020  Biso   1.000  O
  O18      1.0000 0.07790  0.70560  0.93980  Biso   1.000  O
  O19      1.0000 0.57790  0.79440  0.43980  Biso   1.000  O
  O20      1.0000 0.92210  0.29440  0.06020  Biso   1.000  O
  O21      1.0000 0.74250  0.84730  0.52600  Biso   1.000  O
  O22      1.0000 0.75750  0.34730  0.97400  Biso   1.000  O
  O23      1.0000 0.25750  0.15270  0.47400  Biso   1.000  O
  O24      1.0000 0.24250  0.65270  0.02600  Biso   1.000  O
  O25      1.0000 0.43150  0.00960  0.65260  Biso   1.000  O
  O26      1.0000 0.06850  0.50960  0.84740  Biso   1.000  O
  O27      1.0000 0.56850  0.99040  0.34740  Biso   1.000  O
  O28      1.0000 0.93150  0.49040  0.15260  Biso   1.000  O
  O29      1.0000 0.73240  0.91500  0.41880  Biso   1.000  O
  O30      1.0000 0.76760  0.41500  0.08120  Biso   1.000  O
  O31      1.0000 0.26760  0.08500  0.58120  Biso   1.000  O
  O32      1.0000 0.23240  0.58500  0.91880  Biso   1.000  O
  O33      1.0000 0.64790  0.69120  0.53490  Biso   1.000  O
  O34      1.0000 0.85210  0.19120  0.96510  Biso   1.000  O
  O35      1.0000 0.35210  0.30880  0.46510  Biso   1.000  O
  O36      1.0000 0.14790  0.80880  0.03490  Biso   1.000  O
  O37      1.0000 0.82420  0.09580  0.66970  Biso   1.000  O
  O38      1.0000 0.67580  0.59580  0.83030  Biso   1.000  O
  O39      1.0000 0.17580  0.90420  0.33030  Biso   1.000  O
  O40      1.0000 0.32420  0.40420  0.16970  Biso   1.000  O
  O41      1.0000 0.93730  0.91910  0.48940  Biso   1.000  O
  O42      1.0000 0.56270  0.41910  0.01060  Biso   1.000  O
  O43      1.0000 0.06270  0.08090  0.51060  Biso   1.000  O
  O44      1.0000 0.43730  0.58090  0.98940  Biso   1.000  O
  O45      1.0000 0.38480  0.17630  0.67360  Biso   1.000  O
  O46      1.0000 0.11520  0.67630  0.82640  Biso   1.000  O
  O47      1.0000 0.61520  0.82370  0.32640  Biso   1.000  O
  O48      1.0000 0.88480  0.32370  0.17360  Biso   1.000  O
  O49      1.0000 0.80190  0.23580  0.46790  Biso   1.000  O
  O50      1.0000 0.69810  0.73580  0.03210  Biso   1.000  O
  O51      1.0000 0.19810  0.76420  0.53210  Biso   1.000  O
  O52      1.0000 0.30190  0.26420  0.96790  Biso   1.000  O
  O53      1.0000 0.58820  0.12680  0.63410  Biso   1.000  O
  O54      1.0000 0.91180  0.62680  0.86590  Biso   1.000  O
  O55      1.0000 0.41180  0.87320  0.36590  Biso   1.000  O
  O56      1.0000 0.08820  0.37320  0.13410  Biso   1.000  O
  O57      1.0000 0.56990  0.22700  0.48520  Biso   1.000  O
  O58      1.0000 0.93010  0.72700  0.01480  Biso   1.000  O
  O59      1.0000 0.43010  0.77300  0.51480  Biso   1.000  O
  O60      1.0000 0.06990  0.27300  0.98520  Biso   1.000  O
  O61      1.0000 0.63550  0.13950  0.39720  Biso   1.000  O
  O62      1.0000 0.86450  0.63950  0.10280  Biso   1.000  O
  O63      1.0000 0.36450  0.86050  0.60280  Biso   1.000  O
  O64      1.0000 0.13550  0.36050  0.89720  Biso   1.000  O
  O65      1.0000 0.65870  0.96680  0.65220  Biso   1.000  O
  O66      1.0000 0.84130  0.46680  0.84780  Biso   1.000  O
  O67      1.0000 0.34130  0.03320  0.34780  Biso   1.000  O
  O68      1.0000 0.15870  0.53320  0.15220  Biso   1.000  O
  O69      1.0000 0.81060  0.98950  0.57370  Biso   1.000  O
  O70      1.0000 0.68940  0.48950  0.92630  Biso   1.000  O
  O71      1.0000 0.18940  0.01050  0.42630  Biso   1.000  O
  O72      1.0000 0.31060  0.51050  0.07370  Biso   1.000  O
  O73      1.0000 0.51660  0.86210  0.70650  Biso   1.000  O
  O74      1.0000 0.98340  0.36210  0.79350  Biso   1.000  O
  O75      1.0000 0.48340  0.13790  0.29350  Biso   1.000  O
  O76      1.0000 0.01660  0.63790  0.20650  Biso   1.000  O
  O77      1.0000 0.73730  0.14920  0.55900  Biso   1.000  O
  O78      1.0000 0.76270  0.64920  0.94100  Biso   1.000  O
  O79      1.0000 0.26270  0.85080  0.44100  Biso   1.000  O
  O80      1.0000 0.23730  0.35080  0.05900  Biso   1.000  O
  O81      1.0000 0.79380  0.06130  0.46900  Biso   1.000  O
  O82      1.0000 0.70620  0.56130  0.03100  Biso   1.000  O
  O83      1.0000 0.20620  0.93870  0.53100  Biso   1.000  O
  O84      1.0000 0.29380  0.43870  0.96900  Biso   1.000  O
  O85      1.0000 0.59230  0.82450  0.60130  Biso   1.000  O
  O86      1.0000 0.90770  0.32450  0.89870  Biso   1.000  O
  O87      1.0000 0.40770  0.17550  0.39870  Biso   1.000  O
  O88      1.0000 0.09230  0.67550  0.10130  Biso   1.000  O
