data_image0
_cell_length_a       11.9867
_cell_length_b       15.432
_cell_length_c       19.7192
_cell_angle_alpha    90
_cell_angle_beta     93.841
_cell_angle_gamma    90

_symmetry_space_group_name_H-M    "P 1"
_symmetry_int_tables_number       1

loop_
  _symmetry_equiv_pos_as_xyz
  'x, y, z'

loop_
  _atom_site_label
  _atom_site_occupancy
  _atom_site_fract_x
  _atom_site_fract_y
  _atom_site_fract_z
  _atom_site_thermal_displace_type
  _atom_site_B_iso_or_equiv
  _atom_site_type_symbol
  Mo1      1.0000 0.93275  0.06141  0.12803  Biso   1.000  Mo
  Mo2      1.0000 0.06725  0.56141  0.37197  Biso   1.000  Mo
  Mo3      1.0000 0.06725  0.93859  0.87197  Biso   1.000  Mo
  Mo4      1.0000 0.93275  0.43859  0.62803  Biso   1.000  Mo
  Mo5      1.0000 0.11074  0.07668  0.99232  Biso   1.000  Mo
  Mo6      1.0000 0.88926  0.57668  0.50768  Biso   1.000  Mo
  Mo7      1.0000 0.88926  0.92332  0.00768  Biso   1.000  Mo
  Mo8      1.0000 0.11074  0.42332  0.49232  Biso   1.000  Mo
  Mo9      1.0000 0.86101  0.14587  0.96848  Biso   1.000  Mo
  Mo10     1.0000 0.13899  0.64587  0.53152  Biso   1.000  Mo
  Mo11     1.0000 0.13899  0.85413  0.03152  Biso   1.000  Mo
  Mo12     1.0000 0.86101  0.35413  0.46848  Biso   1.000  Mo
  Mo13     1.0000 0.80691  0.00392  0.84736  Biso   1.000  Mo
  Mo14     1.0000 0.19309  0.50392  0.65264  Biso   1.000  Mo
  Mo15     1.0000 0.19309  0.99608  0.15264  Biso   1.000  Mo
  Mo16     1.0000 0.80691  0.49608  0.34736  Biso   1.000  Mo
  O1       1.0000 0.69150  0.96060  0.80560  Biso   1.000  O
  O2       1.0000 0.30850  0.46060  0.69440  Biso   1.000  O
  O3       1.0000 0.30850  0.03940  0.19440  Biso   1.000  O
  O4       1.0000 0.69150  0.53940  0.30560  Biso   1.000  O
  O5       1.0000 0.77690  0.20670  0.01500  Biso   1.000  O
  O6       1.0000 0.22310  0.70670  0.48500  Biso   1.000  O
  O7       1.0000 0.22310  0.79330  0.98500  Biso   1.000  O
  O8       1.0000 0.77690  0.29330  0.51500  Biso   1.000  O
  O9       1.0000 0.20980  0.08060  0.06160  Biso   1.000  O
  O10      1.0000 0.79020  0.58060  0.43840  Biso   1.000  O
  O11      1.0000 0.79020  0.91940  0.93840  Biso   1.000  O
  O12      1.0000 0.20980  0.41940  0.56160  Biso   1.000  O
  O13      1.0000 0.03450  0.96970  0.06440  Biso   1.000  O
  O14      1.0000 0.96550  0.46970  0.43560  Biso   1.000  O
  O15      1.0000 0.96550  0.03030  0.93560  Biso   1.000  O
  O16      1.0000 0.03450  0.53030  0.56440  Biso   1.000  O
  O17      1.0000 0.91370  0.21720  0.91350  Biso   1.000  O
  O18      1.0000 0.08630  0.71720  0.58650  Biso   1.000  O
  O19      1.0000 0.08630  0.78280  0.08650  Biso   1.000  O
  O20      1.0000 0.91370  0.28280  0.41350  Biso   1.000  O
  O21      1.0000 0.85120  0.08300  0.79380  Biso   1.000  O
  O22      1.0000 0.14880  0.58300  0.70620  Biso   1.000  O
  O23      1.0000 0.14880  0.91700  0.20620  Biso   1.000  O
  O24      1.0000 0.85120  0.41700  0.29380  Biso   1.000  O
  O25      1.0000 0.83420  0.03170  0.04640  Biso   1.000  O
  O26      1.0000 0.16580  0.53170  0.45360  Biso   1.000  O
  O27      1.0000 0.16580  0.96830  0.95360  Biso   1.000  O
  O28      1.0000 0.83420  0.46830  0.54640  Biso   1.000  O
  O29      1.0000 0.15320  0.15070  0.93670  Biso   1.000  O
  O30      1.0000 0.84680  0.65070  0.56330  Biso   1.000  O
  O31      1.0000 0.84680  0.84930  0.06330  Biso   1.000  O
  O32      1.0000 0.15320  0.34930  0.43670  Biso   1.000  O
  O33      1.0000 0.07970  0.08110  0.16480  Biso   1.000  O
  O34      1.0000 0.92030  0.58110  0.33520  Biso   1.000  O
  O35      1.0000 0.92030  0.91890  0.83520  Biso   1.000  O
  O36      1.0000 0.07970  0.41890  0.66480  Biso   1.000  O
  O37      1.0000 0.75160  0.08320  0.91210  Biso   1.000  O
  O38      1.0000 0.24840  0.58320  0.58790  Biso   1.000  O
  O39      1.0000 0.24840  0.91680  0.08790  Biso   1.000  O
  O40      1.0000 0.75160  0.41680  0.41210  Biso   1.000  O
  O41      1.0000 0.99410  0.14050  0.03440  Biso   1.000  O
  O42      1.0000 0.00590  0.64050  0.46560  Biso   1.000  O
  O43      1.0000 0.00590  0.85950  0.96560  Biso   1.000  O
  O44      1.0000 0.99410  0.35950  0.53440  Biso   1.000  O
  O45      1.0000 0.86850  0.15490  0.15210  Biso   1.000  O
  O46      1.0000 0.13150  0.65490  0.34790  Biso   1.000  O
  O47      1.0000 0.13150  0.84510  0.84790  Biso   1.000  O
  O48      1.0000 0.86850  0.34510  0.65210  Biso   1.000  O
  O49      1.0000 0.88890  0.98560  0.18190  Biso   1.000  O
  O50      1.0000 0.11110  0.48560  0.31810  Biso   1.000  O
  O51      1.0000 0.11110  0.01440  0.81810  Biso   1.000  O
  O52      1.0000 0.88890  0.51440  0.68190  Biso   1.000  O
  Cu1      1.0000 0.85421  0.21530  0.73156  Biso   1.000  Cu
  Cu2      1.0000 0.14579  0.71530  0.76844  Biso   1.000  Cu
  Cu3      1.0000 0.14579  0.78470  0.26844  Biso   1.000  Cu
  Cu4      1.0000 0.85421  0.28470  0.23156  Biso   1.000  Cu
  C1       1.0000 0.97720  0.17710  0.60710  Biso   1.000  C
  C2       1.0000 0.02280  0.67710  0.89290  Biso   1.000  C
  C3       1.0000 0.02280  0.82290  0.39290  Biso   1.000  C
  C4       1.0000 0.97720  0.32290  0.10710  Biso   1.000  C
  H1       1.0000 0.96150  0.23220  0.58980  Biso   1.000  H
  H2       1.0000 0.03850  0.73220  0.91020  Biso   1.000  H
  H3       1.0000 0.03850  0.76780  0.41020  Biso   1.000  H
  H4       1.0000 0.96150  0.26780  0.08980  Biso   1.000  H
  C5       1.0000 0.98930  0.06660  0.66920  Biso   1.000  C
  C6       1.0000 0.01070  0.56660  0.83080  Biso   1.000  C
  C7       1.0000 0.01070  0.93340  0.33080  Biso   1.000  C
  C8       1.0000 0.98930  0.43340  0.16920  Biso   1.000  C
  C9       1.0000 0.07640  0.12040  0.50860  Biso   1.000  C
  C10      1.0000 0.92360  0.62040  0.99140  Biso   1.000  C
  C11      1.0000 0.92360  0.87960  0.49140  Biso   1.000  C
  C12      1.0000 0.07640  0.37960  0.00860  Biso   1.000  C
  H5       1.0000 0.03960  0.16630  0.48200  Biso   1.000  H
  H6       1.0000 0.96040  0.66630  0.01800  Biso   1.000  H
  H7       1.0000 0.96040  0.83370  0.51800  Biso   1.000  H
  H8       1.0000 0.03960  0.33370  0.98200  Biso   1.000  H
  H9       1.0000 0.06150  0.06620  0.48480  Biso   1.000  H
  H10      1.0000 0.93850  0.56620  0.01520  Biso   1.000  H
  H11      1.0000 0.93850  0.93380  0.51520  Biso   1.000  H
  H12      1.0000 0.06150  0.43380  0.98480  Biso   1.000  H
  C13      1.0000 0.20070  0.13680  0.51380  Biso   1.000  C
  C14      1.0000 0.79930  0.63680  0.98620  Biso   1.000  C
  C15      1.0000 0.79930  0.86320  0.48620  Biso   1.000  C
  C16      1.0000 0.20070  0.36320  0.01380  Biso   1.000  C
  C17      1.0000 0.27320  0.07990  0.48530  Biso   1.000  C
  C18      1.0000 0.72680  0.57990  0.01470  Biso   1.000  C
  C19      1.0000 0.72680  0.92010  0.51470  Biso   1.000  C
  C20      1.0000 0.27320  0.42010  0.98530  Biso   1.000  C
  H13      1.0000 0.24500  0.02940  0.46490  Biso   1.000  H
  H14      1.0000 0.75500  0.52940  0.03510  Biso   1.000  H
  H15      1.0000 0.75500  0.97060  0.53510  Biso   1.000  H
  H16      1.0000 0.24500  0.47060  0.96490  Biso   1.000  H
  C21      1.0000 0.38680  0.09630  0.48630  Biso   1.000  C
  C22      1.0000 0.61320  0.59630  0.01370  Biso   1.000  C
  C23      1.0000 0.61320  0.90370  0.51370  Biso   1.000  C
  C24      1.0000 0.38680  0.40370  0.98630  Biso   1.000  C
  H17      1.0000 0.43480  0.05720  0.46720  Biso   1.000  H
  H18      1.0000 0.56520  0.55720  0.03280  Biso   1.000  H
  H19      1.0000 0.56520  0.94280  0.53280  Biso   1.000  H
  H20      1.0000 0.43480  0.44280  0.96720  Biso   1.000  H
  C25      1.0000 0.42780  0.17210  0.51640  Biso   1.000  C
  C26      1.0000 0.57220  0.67210  0.98360  Biso   1.000  C
  C27      1.0000 0.57220  0.82790  0.48360  Biso   1.000  C
  C28      1.0000 0.42780  0.32790  0.01640  Biso   1.000  C
  C29      1.0000 0.35660  0.23040  0.54510  Biso   1.000  C
  C30      1.0000 0.64340  0.73040  0.95490  Biso   1.000  C
  C31      1.0000 0.64340  0.76960  0.45490  Biso   1.000  C
  C32      1.0000 0.35660  0.26960  0.04510  Biso   1.000  C
  H21      1.0000 0.38480  0.28160  0.56420  Biso   1.000  H
  H22      1.0000 0.61520  0.78160  0.93580  Biso   1.000  H
  H23      1.0000 0.61520  0.71840  0.43580  Biso   1.000  H
  H24      1.0000 0.38480  0.21840  0.06420  Biso   1.000  H
  C33      1.0000 0.24370  0.21220  0.54510  Biso   1.000  C
  C34      1.0000 0.75630  0.71220  0.95490  Biso   1.000  C
  C35      1.0000 0.75630  0.78780  0.45490  Biso   1.000  C
  C36      1.0000 0.24370  0.28780  0.04510  Biso   1.000  C
  H25      1.0000 0.19630  0.25010  0.56590  Biso   1.000  H
  H26      1.0000 0.80370  0.75010  0.93410  Biso   1.000  H
  H27      1.0000 0.80370  0.74990  0.43410  Biso   1.000  H
  H28      1.0000 0.19630  0.24990  0.06590  Biso   1.000  H
  C37      1.0000 0.55230  0.19240  0.51810  Biso   1.000  C
  C38      1.0000 0.44770  0.69240  0.98190  Biso   1.000  C
  C39      1.0000 0.44770  0.80760  0.48190  Biso   1.000  C
  C40      1.0000 0.55230  0.30760  0.01810  Biso   1.000  C
  H29      1.0000 0.58520  0.16100  0.48180  Biso   1.000  H
  H30      1.0000 0.41480  0.66100  0.01820  Biso   1.000  H
  H31      1.0000 0.41480  0.83900  0.51820  Biso   1.000  H
  H32      1.0000 0.58520  0.33900  0.98180  Biso   1.000  H
  H33      1.0000 0.56220  0.25380  0.51010  Biso   1.000  H
  H34      1.0000 0.43780  0.75380  0.98990  Biso   1.000  H
  H35      1.0000 0.43780  0.74620  0.48990  Biso   1.000  H
  H36      1.0000 0.56220  0.24620  0.01010  Biso   1.000  H
  C41      1.0000 0.68670  0.09210  0.65800  Biso   1.000  C
  C42      1.0000 0.31330  0.59210  0.84200  Biso   1.000  C
  C43      1.0000 0.31330  0.90790  0.34200  Biso   1.000  C
  C44      1.0000 0.68670  0.40790  0.15800  Biso   1.000  C
  H37      1.0000 0.70930  0.04410  0.68390  Biso   1.000  H
  H38      1.0000 0.29070  0.54410  0.81610  Biso   1.000  H
  H39      1.0000 0.29070  0.95590  0.31610  Biso   1.000  H
  H40      1.0000 0.70930  0.45590  0.18390  Biso   1.000  H
  C45      1.0000 0.67060  0.21990  0.62420  Biso   1.000  C
  C46      1.0000 0.32940  0.71990  0.87580  Biso   1.000  C
  C47      1.0000 0.32940  0.78010  0.37580  Biso   1.000  C
  C48      1.0000 0.67060  0.28010  0.12420  Biso   1.000  C
  H41      1.0000 0.67660  0.27970  0.61970  Biso   1.000  H
  H42      1.0000 0.32340  0.77970  0.88030  Biso   1.000  H
  H43      1.0000 0.32340  0.72030  0.38030  Biso   1.000  H
  H44      1.0000 0.67660  0.22030  0.11970  Biso   1.000  H
  C49      1.0000 0.08830  0.22420  0.78890  Biso   1.000  C
  C50      1.0000 0.91170  0.72420  0.71110  Biso   1.000  C
  C51      1.0000 0.91170  0.77580  0.21110  Biso   1.000  C
  C52      1.0000 0.08830  0.27580  0.28890  Biso   1.000  C
  H45      1.0000 0.10350  0.16770  0.77620  Biso   1.000  H
  H46      1.0000 0.89650  0.66770  0.72380  Biso   1.000  H
  H47      1.0000 0.89650  0.83230  0.22380  Biso   1.000  H
  H48      1.0000 0.10350  0.33230  0.27620  Biso   1.000  H
  C53      1.0000 0.00790  0.34240  0.80840  Biso   1.000  C
  C54      1.0000 0.99210  0.84240  0.69160  Biso   1.000  C
  C55      1.0000 0.99210  0.65760  0.19160  Biso   1.000  C
  C56      1.0000 0.00790  0.15760  0.30840  Biso   1.000  C
  H49      1.0000 0.95160  0.38340  0.81130  Biso   1.000  H
  H50      1.0000 0.04840  0.88340  0.68870  Biso   1.000  H
  H51      1.0000 0.04840  0.61660  0.18870  Biso   1.000  H
  H52      1.0000 0.95160  0.11660  0.31130  Biso   1.000  H
  C57      1.0000 0.28310  0.26800  0.83460  Biso   1.000  C
  C58      1.0000 0.71690  0.76800  0.66540  Biso   1.000  C
  C59      1.0000 0.71690  0.73200  0.16540  Biso   1.000  C
  C60      1.0000 0.28310  0.23200  0.33460  Biso   1.000  C
  H53      1.0000 0.29620  0.26180  0.88350  Biso   1.000  H
  H54      1.0000 0.70380  0.76180  0.61650  Biso   1.000  H
  H55      1.0000 0.70380  0.73820  0.11650  Biso   1.000  H
  H56      1.0000 0.29620  0.23820  0.38350  Biso   1.000  H
  H57      1.0000 0.32330  0.31880  0.82070  Biso   1.000  H
  H58      1.0000 0.67670  0.81880  0.67930  Biso   1.000  H
  H59      1.0000 0.67670  0.68120  0.17930  Biso   1.000  H
  H60      1.0000 0.32330  0.18120  0.32070  Biso   1.000  H
  C61      1.0000 0.32690  0.18810  0.79960  Biso   1.000  C
  C62      1.0000 0.67310  0.68810  0.70040  Biso   1.000  C
  C63      1.0000 0.67310  0.81190  0.20040  Biso   1.000  C
  C64      1.0000 0.32690  0.31190  0.29960  Biso   1.000  C
  C65      1.0000 0.32360  0.18150  0.72950  Biso   1.000  C
  C66      1.0000 0.67640  0.68150  0.77050  Biso   1.000  C
  C67      1.0000 0.67640  0.81850  0.27050  Biso   1.000  C
  C68      1.0000 0.32360  0.31850  0.22950  Biso   1.000  C
  H61      1.0000 0.29670  0.22770  0.70290  Biso   1.000  H
  H62      1.0000 0.70330  0.72770  0.79710  Biso   1.000  H
  H63      1.0000 0.70330  0.77230  0.29710  Biso   1.000  H
  H64      1.0000 0.29670  0.27230  0.20290  Biso   1.000  H
  C69      1.0000 0.35950  0.10750  0.69840  Biso   1.000  C
  C70      1.0000 0.64050  0.60750  0.80160  Biso   1.000  C
  C71      1.0000 0.64050  0.89250  0.30160  Biso   1.000  C
  C72      1.0000 0.35950  0.39250  0.19840  Biso   1.000  C
  H65      1.0000 0.35210  0.10310  0.65130  Biso   1.000  H
  H66      1.0000 0.64790  0.60310  0.84870  Biso   1.000  H
  H67      1.0000 0.64790  0.89690  0.34870  Biso   1.000  H
  H68      1.0000 0.35210  0.39690  0.15130  Biso   1.000  H
  C73      1.0000 0.40570  0.04100  0.73560  Biso   1.000  C
  C74      1.0000 0.59430  0.54100  0.76440  Biso   1.000  C
  C75      1.0000 0.59430  0.95900  0.26440  Biso   1.000  C
  C76      1.0000 0.40570  0.45900  0.23560  Biso   1.000  C
  C77      1.0000 0.41580  0.04800  0.80520  Biso   1.000  C
  C78      1.0000 0.58420  0.54800  0.69480  Biso   1.000  C
  C79      1.0000 0.58420  0.95200  0.19480  Biso   1.000  C
  C80      1.0000 0.41580  0.45200  0.30520  Biso   1.000  C
  H69      1.0000 0.44960  0.00380  0.83120  Biso   1.000  H
  H70      1.0000 0.55040  0.50380  0.66880  Biso   1.000  H
  H71      1.0000 0.55040  0.99620  0.16880  Biso   1.000  H
  H72      1.0000 0.44960  0.49620  0.33120  Biso   1.000  H
  C81      1.0000 0.37510  0.12200  0.83750  Biso   1.000  C
  C82      1.0000 0.62490  0.62200  0.66250  Biso   1.000  C
  C83      1.0000 0.62490  0.87800  0.16250  Biso   1.000  C
  C84      1.0000 0.37510  0.37800  0.33750  Biso   1.000  C
  H73      1.0000 0.38100  0.12600  0.88470  Biso   1.000  H
  H74      1.0000 0.61900  0.62600  0.61530  Biso   1.000  H
  H75      1.0000 0.61900  0.87400  0.11530  Biso   1.000  H
  H76      1.0000 0.38100  0.37400  0.38470  Biso   1.000  H
  C85      1.0000 0.45270  0.96300  0.70050  Biso   1.000  C
  C86      1.0000 0.54730  0.46300  0.79950  Biso   1.000  C
  C87      1.0000 0.54730  0.03700  0.29950  Biso   1.000  C
  C88      1.0000 0.45270  0.53700  0.20050  Biso   1.000  C
  H77      1.0000 0.46430  0.97790  0.65370  Biso   1.000  H
  H78      1.0000 0.53570  0.47790  0.84630  Biso   1.000  H
  H79      1.0000 0.53570  0.02210  0.34630  Biso   1.000  H
  H80      1.0000 0.46430  0.52210  0.15370  Biso   1.000  H
  H81      1.0000 0.52490  0.94840  0.72280  Biso   1.000  H
  H82      1.0000 0.47510  0.44840  0.77720  Biso   1.000  H
  H83      1.0000 0.47510  0.05160  0.27720  Biso   1.000  H
  H84      1.0000 0.52490  0.55160  0.22280  Biso   1.000  H
  C89      1.0000 0.33210  0.75910  0.67950  Biso   1.000  C
  C90      1.0000 0.66790  0.25910  0.82050  Biso   1.000  C
  C91      1.0000 0.66790  0.24090  0.32050  Biso   1.000  C
  C92      1.0000 0.33210  0.74090  0.17950  Biso   1.000  C
  H85      1.0000 0.33010  0.70300  0.66230  Biso   1.000  H
  H86      1.0000 0.66990  0.20300  0.83770  Biso   1.000  H
  H87      1.0000 0.66990  0.29700  0.33770  Biso   1.000  H
  H88      1.0000 0.33010  0.79700  0.16230  Biso   1.000  H
  C93      1.0000 0.28650  0.87050  0.73180  Biso   1.000  C
  C94      1.0000 0.71350  0.37050  0.76820  Biso   1.000  C
  C95      1.0000 0.71350  0.12950  0.26820  Biso   1.000  C
  C96      1.0000 0.28650  0.62950  0.23180  Biso   1.000  C
  H89      1.0000 0.25000  0.90970  0.75850  Biso   1.000  H
  H90      1.0000 0.75000  0.40970  0.74150  Biso   1.000  H
  H91      1.0000 0.75000  0.09030  0.24150  Biso   1.000  H
  H92      1.0000 0.25000  0.59030  0.25850  Biso   1.000  H
  N1       1.0000 0.94990  0.14930  0.66720  Biso   1.000  N
  N2       1.0000 0.05010  0.64930  0.83280  Biso   1.000  N
  N3       1.0000 0.05010  0.85070  0.33280  Biso   1.000  N
  N4       1.0000 0.94990  0.35070  0.16720  Biso   1.000  N
  N5       1.0000 0.04000  0.04360  0.61470  Biso   1.000  N
  N6       1.0000 0.96000  0.54360  0.88530  Biso   1.000  N
  N7       1.0000 0.96000  0.95640  0.38530  Biso   1.000  N
  N8       1.0000 0.04000  0.45640  0.11470  Biso   1.000  N
  N9       1.0000 0.02920  0.11650  0.57550  Biso   1.000  N
  N10      1.0000 0.97080  0.61650  0.92450  Biso   1.000  N
  N11      1.0000 0.97080  0.88350  0.42450  Biso   1.000  N
  N12      1.0000 0.02920  0.38350  0.07550  Biso   1.000  N
  N13      1.0000 0.61880  0.08610  0.60410  Biso   1.000  N
  N14      1.0000 0.38120  0.58610  0.89590  Biso   1.000  N
  N15      1.0000 0.38120  0.91390  0.39590  Biso   1.000  N
  N16      1.0000 0.61880  0.41390  0.10410  Biso   1.000  N
  N17      1.0000 0.60980  0.16910  0.58240  Biso   1.000  N
  N18      1.0000 0.39020  0.66910  0.91760  Biso   1.000  N
  N19      1.0000 0.39020  0.83090  0.41760  Biso   1.000  N
  N20      1.0000 0.60980  0.33090  0.08240  Biso   1.000  N
  N21      1.0000 0.72190  0.17310  0.67350  Biso   1.000  N
  N22      1.0000 0.27810  0.67310  0.82650  Biso   1.000  N
  N23      1.0000 0.27810  0.82690  0.32650  Biso   1.000  N
  N24      1.0000 0.72190  0.32690  0.17350  Biso   1.000  N
  N25      1.0000 0.98970  0.26190  0.78170  Biso   1.000  N
  N26      1.0000 0.01030  0.76190  0.71830  Biso   1.000  N
  N27      1.0000 0.01030  0.73810  0.21830  Biso   1.000  N
  N28      1.0000 0.98970  0.23810  0.28170  Biso   1.000  N
  N29      1.0000 0.11290  0.35680  0.83000  Biso   1.000  N
  N30      1.0000 0.88710  0.85680  0.67000  Biso   1.000  N
  N31      1.0000 0.88710  0.64320  0.17000  Biso   1.000  N
  N32      1.0000 0.11290  0.14320  0.33000  Biso   1.000  N
  N33      1.0000 0.16290  0.27950  0.81730  Biso   1.000  N
  N34      1.0000 0.83710  0.77950  0.68270  Biso   1.000  N
  N35      1.0000 0.83710  0.72050  0.18270  Biso   1.000  N
  N36      1.0000 0.16290  0.22050  0.31730  Biso   1.000  N
  N37      1.0000 0.37950  0.88700  0.70140  Biso   1.000  N
  N38      1.0000 0.62050  0.38700  0.79860  Biso   1.000  N
  N39      1.0000 0.62050  0.11300  0.29860  Biso   1.000  N
  N40      1.0000 0.37950  0.61300  0.20140  Biso   1.000  N
  N41      1.0000 0.41230  0.81520  0.66770  Biso   1.000  N
  N42      1.0000 0.58770  0.31520  0.83230  Biso   1.000  N
  N43      1.0000 0.58770  0.18480  0.33230  Biso   1.000  N
  N44      1.0000 0.41230  0.68480  0.16770  Biso   1.000  N
  N45      1.0000 0.25320  0.79080  0.71890  Biso   1.000  N
  N46      1.0000 0.74680  0.29080  0.78110  Biso   1.000  N
  N47      1.0000 0.74680  0.20920  0.28110  Biso   1.000  N
  N48      1.0000 0.25320  0.70920  0.21890  Biso   1.000  N
  O53      1.0000 0.19800  0.90160  0.56360  Biso   1.000  O
  O54      1.0000 0.80200  0.40160  0.93640  Biso   1.000  O
  O55      1.0000 0.80200  0.09840  0.43640  Biso   1.000  O
  O56      1.0000 0.19800  0.59840  0.06360  Biso   1.000  O
