data_image0
_cell_length_a       14.839
_cell_length_b       10.977
_cell_length_c       13.028
_cell_angle_alpha    90
_cell_angle_beta     99.78
_cell_angle_gamma    90

_symmetry_space_group_name_H-M    "P 1"
_symmetry_int_tables_number       1

loop_
  _symmetry_equiv_pos_as_xyz
  'x, y, z'

loop_
  _atom_site_label
  _atom_site_occupancy
  _atom_site_fract_x
  _atom_site_fract_y
  _atom_site_fract_z
  _atom_site_thermal_displace_type
  _atom_site_B_iso_or_equiv
  _atom_site_type_symbol
  Cu1      1.0000 0.62760  0.01140  0.74830  Biso   1.000  Cu
  Cu2      1.0000 0.87240  0.51140  0.75170  Biso   1.000  Cu
  Cu3      1.0000 0.37240  0.98860  0.25170  Biso   1.000  Cu
  Cu4      1.0000 0.12760  0.48860  0.24830  Biso   1.000  Cu
  O1       1.0000 0.52290  0.95760  0.80680  Biso   1.000  O
  O2       1.0000 0.97710  0.45760  0.69320  Biso   1.000  O
  O3       1.0000 0.47710  0.04240  0.19320  Biso   1.000  O
  O4       1.0000 0.02290  0.54240  0.30680  Biso   1.000  O
  O5       1.0000 0.63980  0.16770  0.86010  Biso   1.000  O
  O6       1.0000 0.86020  0.66770  0.63990  Biso   1.000  O
  O7       1.0000 0.36020  0.83230  0.13990  Biso   1.000  O
  O8       1.0000 0.13980  0.33230  0.36010  Biso   1.000  O
  O9       1.0000 0.50800  0.26850  0.11570  Biso   1.000  O
  O10      1.0000 0.99200  0.76850  0.38430  Biso   1.000  O
  O11      1.0000 0.49200  0.73150  0.88430  Biso   1.000  O
  O12      1.0000 0.00800  0.23150  0.61570  Biso   1.000  O
  N1       1.0000 0.31190  0.09090  0.84160  Biso   1.000  N
  N2       1.0000 0.18810  0.59090  0.65840  Biso   1.000  N
  N3       1.0000 0.68810  0.90910  0.15840  Biso   1.000  N
  N4       1.0000 0.81190  0.40910  0.34160  Biso   1.000  N
  C1       1.0000 0.37030  0.01590  0.80540  Biso   1.000  C
  C2       1.0000 0.12970  0.51590  0.69460  Biso   1.000  C
  C3       1.0000 0.62970  0.98410  0.19460  Biso   1.000  C
  C4       1.0000 0.87030  0.48410  0.30540  Biso   1.000  C
  C5       1.0000 0.33380  0.91540  0.73200  Biso   1.000  C
  C6       1.0000 0.16620  0.41540  0.76800  Biso   1.000  C
  C7       1.0000 0.66620  0.08460  0.26800  Biso   1.000  C
  C8       1.0000 0.83380  0.58460  0.23200  Biso   1.000  C
  C9       1.0000 0.46480  0.03290  0.83890  Biso   1.000  C
  C10      1.0000 0.03520  0.53290  0.66110  Biso   1.000  C
  C11      1.0000 0.53520  0.96710  0.16110  Biso   1.000  C
  C12      1.0000 0.96480  0.46710  0.33890  Biso   1.000  C
  C13      1.0000 0.49230  0.12850  0.90900  Biso   1.000  C
  C14      1.0000 0.00770  0.62850  0.59100  Biso   1.000  C
  C15      1.0000 0.50770  0.87150  0.09100  Biso   1.000  C
  C16      1.0000 0.99230  0.37150  0.40900  Biso   1.000  C
  C17      1.0000 0.59320  0.14370  0.94580  Biso   1.000  C
  C18      1.0000 0.90680  0.64370  0.55420  Biso   1.000  C
  C19      1.0000 0.40680  0.85630  0.05420  Biso   1.000  C
  C20      1.0000 0.09320  0.35630  0.44580  Biso   1.000  C
  C21      1.0000 0.42610  0.20450  0.94300  Biso   1.000  C
  C22      1.0000 0.07390  0.70450  0.55700  Biso   1.000  C
  C23      1.0000 0.57390  0.79550  0.05700  Biso   1.000  C
  C24      1.0000 0.92610  0.29550  0.44300  Biso   1.000  C
  C25      1.0000 0.45100  0.30820  0.01570  Biso   1.000  C
  C26      1.0000 0.04900  0.80820  0.48430  Biso   1.000  C
  C27      1.0000 0.54900  0.69180  0.98430  Biso   1.000  C
  C28      1.0000 0.95100  0.19180  0.51570  Biso   1.000  C
  C29      1.0000 0.33680  0.18200  0.90640  Biso   1.000  C
  C30      1.0000 0.16320  0.68200  0.59360  Biso   1.000  C
  C31      1.0000 0.66320  0.81800  0.09360  Biso   1.000  C
  C32      1.0000 0.83680  0.31800  0.40640  Biso   1.000  C
  O13      1.0000 0.73180  0.06760  0.69290  Biso   1.000  O
  O14      1.0000 0.76820  0.56760  0.80710  Biso   1.000  O
  O15      1.0000 0.26820  0.93240  0.30710  Biso   1.000  O
  O16      1.0000 0.23180  0.43240  0.19290  Biso   1.000  O
  O17      1.0000 0.54480  0.07840  0.62060  Biso   1.000  O
  O18      1.0000 0.95520  0.57840  0.87940  Biso   1.000  O
  O19      1.0000 0.45520  0.92160  0.37940  Biso   1.000  O
  O20      1.0000 0.04480  0.42160  0.12060  Biso   1.000  O
  O21      1.0000 0.61500  0.35660  0.36480  Biso   1.000  O
  O22      1.0000 0.88500  0.85660  0.13520  Biso   1.000  O
  O23      1.0000 0.38500  0.64340  0.63520  Biso   1.000  O
  O24      1.0000 0.11500  0.14340  0.86480  Biso   1.000  O
  N5       1.0000 0.79030  0.38410  0.67390  Biso   1.000  N
  N6       1.0000 0.70970  0.88410  0.82610  Biso   1.000  N
  N7       1.0000 0.20970  0.61590  0.32610  Biso   1.000  N
  N8       1.0000 0.29030  0.11590  0.17390  Biso   1.000  N
  C33      1.0000 0.79310  0.26690  0.70700  Biso   1.000  C
  C34      1.0000 0.70690  0.76690  0.79300  Biso   1.000  C
  C35      1.0000 0.20690  0.73310  0.29300  Biso   1.000  C
  C36      1.0000 0.29310  0.23310  0.20700  Biso   1.000  C
  C37      1.0000 0.86520  0.23080  0.79650  Biso   1.000  C
  C38      1.0000 0.63480  0.73080  0.70350  Biso   1.000  C
  C39      1.0000 0.13480  0.76920  0.20350  Biso   1.000  C
  C40      1.0000 0.36520  0.26920  0.29650  Biso   1.000  C
  C41      1.0000 0.72690  0.18310  0.65990  Biso   1.000  C
  C42      1.0000 0.77310  0.68310  0.84010  Biso   1.000  C
  C43      1.0000 0.27310  0.81690  0.34010  Biso   1.000  C
  C44      1.0000 0.22690  0.31690  0.15990  Biso   1.000  C
  C45      1.0000 0.65850  0.22100  0.58030  Biso   1.000  C
  C46      1.0000 0.84150  0.72100  0.91970  Biso   1.000  C
  C47      1.0000 0.34150  0.77900  0.41970  Biso   1.000  C
  C48      1.0000 0.15850  0.27900  0.08030  Biso   1.000  C
  C49      1.0000 0.58740  0.12850  0.53710  Biso   1.000  C
  C50      1.0000 0.91260  0.62850  0.96290  Biso   1.000  C
  C51      1.0000 0.41260  0.87150  0.46290  Biso   1.000  C
  C52      1.0000 0.08740  0.37150  0.03710  Biso   1.000  C
  C53      1.0000 0.65710  0.34380  0.54790  Biso   1.000  C
  C54      1.0000 0.84290  0.84380  0.95210  Biso   1.000  C
  C55      1.0000 0.34290  0.65620  0.45210  Biso   1.000  C
  C56      1.0000 0.15710  0.15620  0.04790  Biso   1.000  C
  C57      1.0000 0.58800  0.39260  0.45940  Biso   1.000  C
  C58      1.0000 0.91200  0.89260  0.04060  Biso   1.000  C
  C59      1.0000 0.41200  0.60740  0.54060  Biso   1.000  C
  C60      1.0000 0.08800  0.10740  0.95940  Biso   1.000  C
  C61      1.0000 0.72360  0.42080  0.59650  Biso   1.000  C
  C62      1.0000 0.77640  0.92080  0.90350  Biso   1.000  C
  C63      1.0000 0.27640  0.57920  0.40350  Biso   1.000  C
  C64      1.0000 0.22360  0.07920  0.09650  Biso   1.000  C
  H1       1.0000 0.24400  0.08600  0.80900  Biso   1.000  H
  H2       1.0000 0.25600  0.58600  0.69100  Biso   1.000  H
  H3       1.0000 0.75600  0.91400  0.19100  Biso   1.000  H
  H4       1.0000 0.74400  0.41400  0.30900  Biso   1.000  H
  H5       1.0000 0.33900  0.83500  0.76800  Biso   1.000  H
  H6       1.0000 0.16100  0.33500  0.73200  Biso   1.000  H
  H7       1.0000 0.66100  0.16500  0.23200  Biso   1.000  H
  H8       1.0000 0.83900  0.66500  0.26800  Biso   1.000  H
  H9       1.0000 0.37000  0.90600  0.67400  Biso   1.000  H
  H10      1.0000 0.13000  0.40600  0.82600  Biso   1.000  H
  H11      1.0000 0.63000  0.09400  0.32600  Biso   1.000  H
  H12      1.0000 0.87000  0.59400  0.17400  Biso   1.000  H
  H13      1.0000 0.27700  0.93600  0.70500  Biso   1.000  H
  H14      1.0000 0.22300  0.43600  0.79500  Biso   1.000  H
  H15      1.0000 0.72300  0.06400  0.29500  Biso   1.000  H
  H16      1.0000 0.77700  0.56400  0.20500  Biso   1.000  H
  H17      1.0000 0.62500  0.07500  0.98000  Biso   1.000  H
  H18      1.0000 0.87500  0.57500  0.52000  Biso   1.000  H
  H19      1.0000 0.37500  0.92500  0.02000  Biso   1.000  H
  H20      1.0000 0.12500  0.42500  0.48000  Biso   1.000  H
  H21      1.0000 0.61300  0.20400  0.99800  Biso   1.000  H
  H22      1.0000 0.88700  0.70400  0.50200  Biso   1.000  H
  H23      1.0000 0.38700  0.79600  0.00200  Biso   1.000  H
  H24      1.0000 0.11300  0.29600  0.49800  Biso   1.000  H
  H25      1.0000 0.39500  0.34600  0.02900  Biso   1.000  H
  H26      1.0000 0.10500  0.84600  0.47100  Biso   1.000  H
  H27      1.0000 0.60500  0.65400  0.97100  Biso   1.000  H
  H28      1.0000 0.89500  0.15400  0.52900  Biso   1.000  H
  H29      1.0000 0.48300  0.36900  0.98200  Biso   1.000  H
  H30      1.0000 0.01700  0.86900  0.51800  Biso   1.000  H
  H31      1.0000 0.51700  0.63100  0.01800  Biso   1.000  H
  H32      1.0000 0.98300  0.13100  0.48200  Biso   1.000  H
  H33      1.0000 0.28300  0.23500  0.93400  Biso   1.000  H
  H34      1.0000 0.21700  0.73500  0.56600  Biso   1.000  H
  H35      1.0000 0.71700  0.76500  0.06600  Biso   1.000  H
  H36      1.0000 0.78300  0.26500  0.43400  Biso   1.000  H
  H37      1.0000 0.49400  0.13500  0.63200  Biso   1.000  H
  H38      1.0000 0.00600  0.63500  0.86800  Biso   1.000  H
  H39      1.0000 0.50600  0.86500  0.36800  Biso   1.000  H
  H40      1.0000 0.99400  0.36500  0.13200  Biso   1.000  H
  H41      1.0000 0.57100  0.37600  0.30900  Biso   1.000  H
  H42      1.0000 0.92900  0.87600  0.19100  Biso   1.000  H
  H43      1.0000 0.42900  0.62400  0.69100  Biso   1.000  H
  H44      1.0000 0.07100  0.12400  0.80900  Biso   1.000  H
  H45      1.0000 0.84200  0.20300  0.84700  Biso   1.000  H
  H46      1.0000 0.65800  0.70300  0.65300  Biso   1.000  H
  H47      1.0000 0.15800  0.79700  0.15300  Biso   1.000  H
  H48      1.0000 0.34200  0.29700  0.34700  Biso   1.000  H
  H49      1.0000 0.90300  0.30400  0.82100  Biso   1.000  H
  H50      1.0000 0.59700  0.80400  0.67900  Biso   1.000  H
  H51      1.0000 0.09700  0.69600  0.17900  Biso   1.000  H
  H52      1.0000 0.40300  0.19600  0.32100  Biso   1.000  H
  H53      1.0000 0.90500  0.16600  0.77300  Biso   1.000  H
  H54      1.0000 0.59500  0.66600  0.72700  Biso   1.000  H
  H55      1.0000 0.09500  0.83400  0.22700  Biso   1.000  H
  H56      1.0000 0.40500  0.33400  0.27300  Biso   1.000  H
  H57      1.0000 0.53600  0.16200  0.49600  Biso   1.000  H
  H58      1.0000 0.96400  0.66200  0.00400  Biso   1.000  H
  H59      1.0000 0.46400  0.83800  0.50400  Biso   1.000  H
  H60      1.0000 0.03600  0.33800  0.99600  Biso   1.000  H
  H61      1.0000 0.60700  0.06100  0.50900  Biso   1.000  H
  H62      1.0000 0.89300  0.56100  0.99100  Biso   1.000  H
  H63      1.0000 0.39300  0.93900  0.49100  Biso   1.000  H
  H64      1.0000 0.10700  0.43900  0.00900  Biso   1.000  H
  H65      1.0000 0.58800  0.47800  0.46600  Biso   1.000  H
  H66      1.0000 0.91200  0.97800  0.03400  Biso   1.000  H
  H67      1.0000 0.41200  0.52200  0.53400  Biso   1.000  H
  H68      1.0000 0.08800  0.02200  0.96600  Biso   1.000  H
  H69      1.0000 0.53200  0.35700  0.47200  Biso   1.000  H
  H70      1.0000 0.96800  0.85700  0.02800  Biso   1.000  H
  H71      1.0000 0.46800  0.64300  0.52800  Biso   1.000  H
  H72      1.0000 0.03200  0.14300  0.97200  Biso   1.000  H
  H73      1.0000 0.73300  0.51000  0.57500  Biso   1.000  H
  H74      1.0000 0.76700  0.01000  0.92500  Biso   1.000  H
  H75      1.0000 0.26700  0.49000  0.42500  Biso   1.000  H
  H76      1.0000 0.23300  0.99000  0.07500  Biso   1.000  H
  O25      1.0000 0.85080  0.91160  0.62780  Biso   1.000  O
  O26      1.0000 0.64920  0.41160  0.87220  Biso   1.000  O
  O27      1.0000 0.14920  0.08840  0.37220  Biso   1.000  O
  O28      1.0000 0.35080  0.58840  0.12780  Biso   1.000  O
  H77      1.0000 0.80500  0.96900  0.63500  Biso   1.000  H
  H78      1.0000 0.69500  0.46900  0.86500  Biso   1.000  H
  H79      1.0000 0.19500  0.03100  0.36500  Biso   1.000  H
  H80      1.0000 0.30500  0.53100  0.13500  Biso   1.000  H
  O29      1.0000 0.96550  0.96250  0.72700  Biso   1.000  O
  O30      1.0000 0.53450  0.46250  0.77300  Biso   1.000  O
  O31      1.0000 0.03450  0.03750  0.27300  Biso   1.000  O
  O32      1.0000 0.46550  0.53750  0.22700  Biso   1.000  O
  H81      1.0000 0.97900  0.93100  0.67500  Biso   1.000  H
  H82      1.0000 0.52100  0.43100  0.82500  Biso   1.000  H
  H83      1.0000 0.02100  0.06900  0.32500  Biso   1.000  H
  H84      1.0000 0.47900  0.56900  0.17500  Biso   1.000  H
  O33      1.0000 0.16130  0.07360  0.61600  Biso   1.000  O
  O34      1.0000 0.33870  0.57360  0.88400  Biso   1.000  O
  O35      1.0000 0.83870  0.92640  0.38400  Biso   1.000  O
  O36      1.0000 0.66130  0.42640  0.11600  Biso   1.000  O
  O37      1.0000 0.43060  0.26460  0.64470  Biso   1.000  O
  O38      1.0000 0.06940  0.76460  0.85530  Biso   1.000  O
  O39      1.0000 0.56940  0.73540  0.35530  Biso   1.000  O
  O40      1.0000 0.93060  0.23540  0.14470  Biso   1.000  O
  O41      1.0000 0.29660  0.33160  0.59990  Biso   1.000  O
  O42      1.0000 0.20340  0.83160  0.90010  Biso   1.000  O
  O43      1.0000 0.70340  0.66840  0.40010  Biso   1.000  O
  O44      1.0000 0.79660  0.16840  0.09990  Biso   1.000  O
  O45      1.0000 0.33410  0.15110  0.56090  Biso   1.000  O
  O46      1.0000 0.16590  0.65110  0.93910  Biso   1.000  O
  O47      1.0000 0.66590  0.84890  0.43910  Biso   1.000  O
  O48      1.0000 0.83410  0.34890  0.06090  Biso   1.000  O
  N9       1.0000 0.35320  0.24990  0.60100  Biso   1.000  N
  N10      1.0000 0.14680  0.74990  0.89900  Biso   1.000  N
  N11      1.0000 0.64680  0.75010  0.39900  Biso   1.000  N
  N12      1.0000 0.85320  0.25010  0.10100  Biso   1.000  N
