data_image0
_cell_length_a       19.6319
_cell_length_b       13.6365
_cell_length_c       23.4334
_cell_angle_alpha    90
_cell_angle_beta     90
_cell_angle_gamma    90

_symmetry_space_group_name_H-M    "P 1"
_symmetry_int_tables_number       1

loop_
  _symmetry_equiv_pos_as_xyz
  'x, y, z'

loop_
  _atom_site_label
  _atom_site_occupancy
  _atom_site_fract_x
  _atom_site_fract_y
  _atom_site_fract_z
  _atom_site_thermal_displace_type
  _atom_site_B_iso_or_equiv
  _atom_site_type_symbol
  C1       1.0000 0.18163  0.75140  0.17947  Biso   1.000  C
  C2       1.0000 0.31837  0.24860  0.67947  Biso   1.000  C
  C3       1.0000 0.81837  0.25140  0.32053  Biso   1.000  C
  C4       1.0000 0.68163  0.74860  0.82053  Biso   1.000  C
  C5       1.0000 0.81837  0.24860  0.82053  Biso   1.000  C
  C6       1.0000 0.68163  0.75140  0.32053  Biso   1.000  C
  C7       1.0000 0.18163  0.74860  0.67947  Biso   1.000  C
  C8       1.0000 0.31837  0.25140  0.17947  Biso   1.000  C
  C9       1.0000 0.11659  0.73620  0.21212  Biso   1.000  C
  C10      1.0000 0.38341  0.26380  0.71212  Biso   1.000  C
  C11      1.0000 0.88341  0.23620  0.28788  Biso   1.000  C
  C12      1.0000 0.61659  0.76380  0.78788  Biso   1.000  C
  C13      1.0000 0.88341  0.26380  0.78788  Biso   1.000  C
  C14      1.0000 0.61659  0.73620  0.28788  Biso   1.000  C
  C15      1.0000 0.11659  0.76380  0.71212  Biso   1.000  C
  C16      1.0000 0.38341  0.23620  0.21212  Biso   1.000  C
  C17      1.0000 0.05500  0.74830  0.18347  Biso   1.000  C
  C18      1.0000 0.44500  0.25170  0.68347  Biso   1.000  C
  C19      1.0000 0.94500  0.24830  0.31653  Biso   1.000  C
  C20      1.0000 0.55500  0.75170  0.81653  Biso   1.000  C
  C21      1.0000 0.94500  0.25170  0.81653  Biso   1.000  C
  C22      1.0000 0.55500  0.74830  0.31653  Biso   1.000  C
  C23      1.0000 0.05500  0.75170  0.68347  Biso   1.000  C
  C24      1.0000 0.44500  0.24830  0.18347  Biso   1.000  C
  H1       1.0000 0.05520  0.76840  0.14560  Biso   1.000  H
  H2       1.0000 0.44480  0.23160  0.64560  Biso   1.000  H
  H3       1.0000 0.94480  0.26840  0.35440  Biso   1.000  H
  H4       1.0000 0.55520  0.73160  0.85440  Biso   1.000  H
  H5       1.0000 0.94480  0.23160  0.85440  Biso   1.000  H
  H6       1.0000 0.55520  0.76840  0.35440  Biso   1.000  H
  H7       1.0000 0.05520  0.73160  0.64560  Biso   1.000  H
  H8       1.0000 0.44480  0.26840  0.14560  Biso   1.000  H
  C25      1.0000 0.99341  0.73070  0.21068  Biso   1.000  C
  C26      1.0000 0.50659  0.26930  0.71068  Biso   1.000  C
  C27      1.0000 0.00659  0.23070  0.28932  Biso   1.000  C
  C28      1.0000 0.49341  0.76930  0.78932  Biso   1.000  C
  C29      1.0000 0.00659  0.26930  0.78932  Biso   1.000  C
  C30      1.0000 0.49341  0.73070  0.28932  Biso   1.000  C
  C31      1.0000 0.99341  0.76930  0.71068  Biso   1.000  C
  C32      1.0000 0.50659  0.23070  0.21068  Biso   1.000  C
  H9       1.0000 0.95260  0.73910  0.19110  Biso   1.000  H
  H10      1.0000 0.54740  0.26090  0.69110  Biso   1.000  H
  H11      1.0000 0.04740  0.23910  0.30890  Biso   1.000  H
  H12      1.0000 0.45260  0.76090  0.80890  Biso   1.000  H
  H13      1.0000 0.04740  0.26090  0.80890  Biso   1.000  H
  H14      1.0000 0.45260  0.73910  0.30890  Biso   1.000  H
  H15      1.0000 0.95260  0.76090  0.69110  Biso   1.000  H
  H16      1.0000 0.54740  0.23910  0.19110  Biso   1.000  H
  C33      1.0000 0.99295  0.70070  0.26717  Biso   1.000  C
  C34      1.0000 0.50705  0.29930  0.76717  Biso   1.000  C
  C35      1.0000 0.00705  0.20070  0.23283  Biso   1.000  C
  C36      1.0000 0.49295  0.79930  0.73283  Biso   1.000  C
  C37      1.0000 0.00705  0.29930  0.73283  Biso   1.000  C
  C38      1.0000 0.49295  0.70070  0.23283  Biso   1.000  C
  C39      1.0000 0.99295  0.79930  0.76717  Biso   1.000  C
  C40      1.0000 0.50705  0.20070  0.26717  Biso   1.000  C
  H17      1.0000 0.95180  0.68900  0.28560  Biso   1.000  H
  H18      1.0000 0.54820  0.31100  0.78560  Biso   1.000  H
  H19      1.0000 0.04820  0.18900  0.21440  Biso   1.000  H
  H20      1.0000 0.45180  0.81100  0.71440  Biso   1.000  H
  H21      1.0000 0.04820  0.31100  0.71440  Biso   1.000  H
  H22      1.0000 0.45180  0.68900  0.21440  Biso   1.000  H
  H23      1.0000 0.95180  0.81100  0.78560  Biso   1.000  H
  H24      1.0000 0.54820  0.18900  0.28560  Biso   1.000  H
  C41      1.0000 0.05396  0.68830  0.29629  Biso   1.000  C
  C42      1.0000 0.44604  0.31170  0.79629  Biso   1.000  C
  C43      1.0000 0.94604  0.18830  0.20371  Biso   1.000  C
  C44      1.0000 0.55396  0.81170  0.70371  Biso   1.000  C
  C45      1.0000 0.94604  0.31170  0.70371  Biso   1.000  C
  C46      1.0000 0.55396  0.68830  0.20371  Biso   1.000  C
  C47      1.0000 0.05396  0.81170  0.79629  Biso   1.000  C
  C48      1.0000 0.44604  0.18830  0.29629  Biso   1.000  C
  H25      1.0000 0.05330  0.66780  0.33410  Biso   1.000  H
  H26      1.0000 0.44670  0.33220  0.83410  Biso   1.000  H
  H27      1.0000 0.94670  0.16780  0.16590  Biso   1.000  H
  H28      1.0000 0.55330  0.83220  0.66590  Biso   1.000  H
  H29      1.0000 0.94670  0.33220  0.66590  Biso   1.000  H
  H30      1.0000 0.55330  0.66780  0.16590  Biso   1.000  H
  H31      1.0000 0.05330  0.83220  0.83410  Biso   1.000  H
  H32      1.0000 0.44670  0.16780  0.33410  Biso   1.000  H
  C49      1.0000 0.11615  0.70610  0.26944  Biso   1.000  C
  C50      1.0000 0.38385  0.29390  0.76944  Biso   1.000  C
  C51      1.0000 0.88385  0.20610  0.23056  Biso   1.000  C
  C52      1.0000 0.61615  0.79390  0.73056  Biso   1.000  C
  C53      1.0000 0.88385  0.29390  0.73056  Biso   1.000  C
  C54      1.0000 0.61615  0.70610  0.23056  Biso   1.000  C
  C55      1.0000 0.11615  0.79390  0.76944  Biso   1.000  C
  C56      1.0000 0.38385  0.20610  0.26944  Biso   1.000  C
  C57      1.0000 0.17953  0.69450  0.30520  Biso   1.000  C
  C58      1.0000 0.32047  0.30550  0.80520  Biso   1.000  C
  C59      1.0000 0.82047  0.19450  0.19480  Biso   1.000  C
  C60      1.0000 0.67953  0.80550  0.69480  Biso   1.000  C
  C61      1.0000 0.82047  0.30550  0.69480  Biso   1.000  C
  C62      1.0000 0.67953  0.69450  0.19480  Biso   1.000  C
  C63      1.0000 0.17953  0.80550  0.80520  Biso   1.000  C
  C64      1.0000 0.32047  0.19450  0.30520  Biso   1.000  C
  C65      1.0000 0.41625  0.74770  0.06731  Biso   1.000  C
  C66      1.0000 0.08375  0.25230  0.56731  Biso   1.000  C
  C67      1.0000 0.58375  0.24770  0.43269  Biso   1.000  C
  C68      1.0000 0.91625  0.75230  0.93269  Biso   1.000  C
  C69      1.0000 0.58375  0.25230  0.93269  Biso   1.000  C
  C70      1.0000 0.91625  0.74770  0.43269  Biso   1.000  C
  C71      1.0000 0.41625  0.75230  0.56731  Biso   1.000  C
  C72      1.0000 0.08375  0.24770  0.06731  Biso   1.000  C
  C73      1.0000 0.46316  0.79950  0.02644  Biso   1.000  C
  C74      1.0000 0.03684  0.20050  0.52644  Biso   1.000  C
  C75      1.0000 0.53684  0.29950  0.47356  Biso   1.000  C
  C76      1.0000 0.96316  0.70050  0.97356  Biso   1.000  C
  C77      1.0000 0.53684  0.20050  0.97356  Biso   1.000  C
  C78      1.0000 0.96316  0.79950  0.47356  Biso   1.000  C
  C79      1.0000 0.46316  0.70050  0.52644  Biso   1.000  C
  C80      1.0000 0.03684  0.29950  0.02644  Biso   1.000  C
  C81      1.0000 0.53062  0.81300  0.04380  Biso   1.000  C
  C82      1.0000 0.96938  0.18700  0.54380  Biso   1.000  C
  C83      1.0000 0.46938  0.31300  0.45620  Biso   1.000  C
  C84      1.0000 0.03062  0.68700  0.95620  Biso   1.000  C
  C85      1.0000 0.46938  0.18700  0.95620  Biso   1.000  C
  C86      1.0000 0.03062  0.81300  0.45620  Biso   1.000  C
  C87      1.0000 0.53062  0.68700  0.54380  Biso   1.000  C
  C88      1.0000 0.96938  0.31300  0.04380  Biso   1.000  C
  H33      1.0000 0.54520  0.78670  0.07830  Biso   1.000  H
  H34      1.0000 0.95480  0.21330  0.57830  Biso   1.000  H
  H35      1.0000 0.45480  0.28670  0.42170  Biso   1.000  H
  H36      1.0000 0.04520  0.71330  0.92170  Biso   1.000  H
  H37      1.0000 0.45480  0.21330  0.92170  Biso   1.000  H
  H38      1.0000 0.04520  0.78670  0.42170  Biso   1.000  H
  H39      1.0000 0.54520  0.71330  0.57830  Biso   1.000  H
  H40      1.0000 0.95480  0.28670  0.07830  Biso   1.000  H
  C89      1.0000 0.57564  0.86450  0.01045  Biso   1.000  C
  C90      1.0000 0.92436  0.13550  0.51045  Biso   1.000  C
  C91      1.0000 0.42436  0.36450  0.48955  Biso   1.000  C
  C92      1.0000 0.07564  0.63550  0.98955  Biso   1.000  C
  C93      1.0000 0.42436  0.13550  0.98955  Biso   1.000  C
  C94      1.0000 0.07564  0.86450  0.48955  Biso   1.000  C
  C95      1.0000 0.57564  0.63550  0.51045  Biso   1.000  C
  C96      1.0000 0.92436  0.36450  0.01045  Biso   1.000  C
  H41      1.0000 0.62020  0.87360  0.02280  Biso   1.000  H
  H42      1.0000 0.87980  0.12640  0.52280  Biso   1.000  H
  H43      1.0000 0.37980  0.37360  0.47720  Biso   1.000  H
  H44      1.0000 0.12020  0.62640  0.97720  Biso   1.000  H
  H45      1.0000 0.37980  0.12640  0.97720  Biso   1.000  H
  H46      1.0000 0.12020  0.87360  0.47720  Biso   1.000  H
  H47      1.0000 0.62020  0.62640  0.52280  Biso   1.000  H
  H48      1.0000 0.87980  0.37360  0.02280  Biso   1.000  H
  C97      1.0000 0.55500  0.90290  0.95859  Biso   1.000  C
  C98      1.0000 0.94500  0.09710  0.45859  Biso   1.000  C
  C99      1.0000 0.44500  0.40290  0.54141  Biso   1.000  C
  C100     1.0000 0.05500  0.59710  0.04141  Biso   1.000  C
  C101     1.0000 0.44500  0.09710  0.04141  Biso   1.000  C
  C102     1.0000 0.05500  0.90290  0.54141  Biso   1.000  C
  C103     1.0000 0.55500  0.59710  0.45859  Biso   1.000  C
  C104     1.0000 0.94500  0.40290  0.95859  Biso   1.000  C
  H49      1.0000 0.58570  0.93690  0.93570  Biso   1.000  H
  H50      1.0000 0.91430  0.06310  0.43570  Biso   1.000  H
  H51      1.0000 0.41430  0.43690  0.56430  Biso   1.000  H
  H52      1.0000 0.08570  0.56310  0.06430  Biso   1.000  H
  H53      1.0000 0.41430  0.06310  0.06430  Biso   1.000  H
  H54      1.0000 0.08570  0.93690  0.56430  Biso   1.000  H
  H55      1.0000 0.58570  0.56310  0.43570  Biso   1.000  H
  H56      1.0000 0.91430  0.43690  0.93570  Biso   1.000  H
  C105     1.0000 0.48788  0.89010  0.94097  Biso   1.000  C
  C106     1.0000 0.01212  0.10990  0.44097  Biso   1.000  C
  C107     1.0000 0.51212  0.39010  0.55903  Biso   1.000  C
  C108     1.0000 0.98788  0.60990  0.05903  Biso   1.000  C
  C109     1.0000 0.51212  0.10990  0.05903  Biso   1.000  C
  C110     1.0000 0.98788  0.89010  0.55903  Biso   1.000  C
  C111     1.0000 0.48788  0.60990  0.44097  Biso   1.000  C
  C112     1.0000 0.01212  0.39010  0.94097  Biso   1.000  C
  H57      1.0000 0.47380  0.91640  0.90630  Biso   1.000  H
  H58      1.0000 0.02620  0.08360  0.40630  Biso   1.000  H
  H59      1.0000 0.52620  0.41640  0.59370  Biso   1.000  H
  H60      1.0000 0.97380  0.58360  0.09370  Biso   1.000  H
  H61      1.0000 0.52620  0.08360  0.09370  Biso   1.000  H
  H62      1.0000 0.97380  0.91640  0.59370  Biso   1.000  H
  H63      1.0000 0.47380  0.58360  0.40630  Biso   1.000  H
  H64      1.0000 0.02620  0.41640  0.90630  Biso   1.000  H
  C113     1.0000 0.44170  0.83850  0.97438  Biso   1.000  C
  C114     1.0000 0.05830  0.16150  0.47438  Biso   1.000  C
  C115     1.0000 0.55830  0.33850  0.52562  Biso   1.000  C
  C116     1.0000 0.94170  0.66150  0.02562  Biso   1.000  C
  C117     1.0000 0.55830  0.16150  0.02562  Biso   1.000  C
  C118     1.0000 0.94170  0.83850  0.52562  Biso   1.000  C
  C119     1.0000 0.44170  0.66150  0.47438  Biso   1.000  C
  C120     1.0000 0.05830  0.33850  0.97438  Biso   1.000  C
  C121     1.0000 0.37171  0.82070  0.94907  Biso   1.000  C
  C122     1.0000 0.12829  0.17930  0.44907  Biso   1.000  C
  C123     1.0000 0.62829  0.32070  0.55093  Biso   1.000  C
  C124     1.0000 0.87171  0.67930  0.05093  Biso   1.000  C
  C125     1.0000 0.62829  0.17930  0.05093  Biso   1.000  C
  C126     1.0000 0.87171  0.82070  0.55093  Biso   1.000  C
  C127     1.0000 0.37171  0.67930  0.44907  Biso   1.000  C
  C128     1.0000 0.12829  0.32070  0.94907  Biso   1.000  C
  C129     1.0000 0.27582  0.61180  0.03891  Biso   1.000  C
  C130     1.0000 0.22418  0.38820  0.53891  Biso   1.000  C
  C131     1.0000 0.72418  0.11180  0.46109  Biso   1.000  C
  C132     1.0000 0.77582  0.88820  0.96109  Biso   1.000  C
  C133     1.0000 0.72418  0.38820  0.96109  Biso   1.000  C
  C134     1.0000 0.77582  0.61180  0.46109  Biso   1.000  C
  C135     1.0000 0.27582  0.88820  0.53891  Biso   1.000  C
  C136     1.0000 0.22418  0.11180  0.03891  Biso   1.000  C
  H65      1.0000 0.30050  0.65260  0.01470  Biso   1.000  H
  H66      1.0000 0.19950  0.34740  0.51470  Biso   1.000  H
  H67      1.0000 0.69950  0.15260  0.48530  Biso   1.000  H
  H68      1.0000 0.80050  0.84740  0.98530  Biso   1.000  H
  H69      1.0000 0.69950  0.34740  0.98530  Biso   1.000  H
  H70      1.0000 0.80050  0.65260  0.48530  Biso   1.000  H
  H71      1.0000 0.30050  0.84740  0.51470  Biso   1.000  H
  H72      1.0000 0.19950  0.15260  0.01470  Biso   1.000  H
  C137     1.0000 0.21070  0.49100  0.06919  Biso   1.000  C
  C138     1.0000 0.28930  0.50900  0.56919  Biso   1.000  C
  C139     1.0000 0.78930  0.99100  0.43081  Biso   1.000  C
  C140     1.0000 0.71070  0.00900  0.93081  Biso   1.000  C
  C141     1.0000 0.78930  0.50900  0.93081  Biso   1.000  C
  C142     1.0000 0.71070  0.49100  0.43081  Biso   1.000  C
  C143     1.0000 0.21070  0.00900  0.56919  Biso   1.000  C
  C144     1.0000 0.28930  0.99100  0.06919  Biso   1.000  C
  H73      1.0000 0.18310  0.43560  0.07000  Biso   1.000  H
  H74      1.0000 0.31690  0.56440  0.57000  Biso   1.000  H
  H75      1.0000 0.81690  0.93560  0.43000  Biso   1.000  H
  H76      1.0000 0.68310  0.06440  0.93000  Biso   1.000  H
  H77      1.0000 0.81690  0.56440  0.93000  Biso   1.000  H
  H78      1.0000 0.68310  0.43560  0.43000  Biso   1.000  H
  H79      1.0000 0.18310  0.06440  0.57000  Biso   1.000  H
  H80      1.0000 0.31690  0.93560  0.07000  Biso   1.000  H
  C145     1.0000 0.23203  0.54490  0.11414  Biso   1.000  C
  C146     1.0000 0.26797  0.45510  0.61414  Biso   1.000  C
  C147     1.0000 0.76797  0.04490  0.38586  Biso   1.000  C
  C148     1.0000 0.73203  0.95510  0.88586  Biso   1.000  C
  C149     1.0000 0.76797  0.45510  0.88586  Biso   1.000  C
  C150     1.0000 0.73203  0.54490  0.38586  Biso   1.000  C
  C151     1.0000 0.23203  0.95510  0.61414  Biso   1.000  C
  C152     1.0000 0.26797  0.04490  0.11414  Biso   1.000  C
  H81      1.0000 0.22090  0.53250  0.15200  Biso   1.000  H
  H82      1.0000 0.27910  0.46750  0.65200  Biso   1.000  H
  H83      1.0000 0.77910  0.03250  0.34800  Biso   1.000  H
  H84      1.0000 0.72090  0.96750  0.84800  Biso   1.000  H
  H85      1.0000 0.77910  0.46750  0.84800  Biso   1.000  H
  H86      1.0000 0.72090  0.53250  0.34800  Biso   1.000  H
  H87      1.0000 0.22090  0.96750  0.65200  Biso   1.000  H
  H88      1.0000 0.27910  0.03250  0.15200  Biso   1.000  H
  C153     1.0000 0.31757  0.87750  0.23274  Biso   1.000  C
  C154     1.0000 0.18243  0.12250  0.73274  Biso   1.000  C
  C155     1.0000 0.68243  0.37750  0.26726  Biso   1.000  C
  C156     1.0000 0.81757  0.62250  0.76726  Biso   1.000  C
  C157     1.0000 0.68243  0.12250  0.76726  Biso   1.000  C
  C158     1.0000 0.81757  0.87750  0.26726  Biso   1.000  C
  C159     1.0000 0.31757  0.62250  0.73274  Biso   1.000  C
  C160     1.0000 0.18243  0.37750  0.23274  Biso   1.000  C
  H89      1.0000 0.27930  0.85220  0.25100  Biso   1.000  H
  H90      1.0000 0.22070  0.14780  0.75100  Biso   1.000  H
  H91      1.0000 0.72070  0.35220  0.24900  Biso   1.000  H
  H92      1.0000 0.77930  0.64780  0.74900  Biso   1.000  H
  H93      1.0000 0.72070  0.14780  0.74900  Biso   1.000  H
  H94      1.0000 0.77930  0.85220  0.24900  Biso   1.000  H
  H95      1.0000 0.27930  0.64780  0.75100  Biso   1.000  H
  H96      1.0000 0.22070  0.35220  0.25100  Biso   1.000  H
  C161     1.0000 0.40550  0.97140  0.21292  Biso   1.000  C
  C162     1.0000 0.09450  0.02860  0.71292  Biso   1.000  C
  C163     1.0000 0.59450  0.47140  0.28708  Biso   1.000  C
  C164     1.0000 0.90550  0.52860  0.78708  Biso   1.000  C
  C165     1.0000 0.59450  0.02860  0.78708  Biso   1.000  C
  C166     1.0000 0.90550  0.97140  0.28708  Biso   1.000  C
  C167     1.0000 0.40550  0.52860  0.71292  Biso   1.000  C
  C168     1.0000 0.09450  0.47140  0.21292  Biso   1.000  C
  H97      1.0000 0.43790  0.02110  0.21460  Biso   1.000  H
  H98      1.0000 0.06210  0.97890  0.71460  Biso   1.000  H
  H99      1.0000 0.56210  0.52110  0.28540  Biso   1.000  H
  H100     1.0000 0.93790  0.47890  0.78540  Biso   1.000  H
  H101     1.0000 0.56210  0.97890  0.78540  Biso   1.000  H
  H102     1.0000 0.93790  0.02110  0.28540  Biso   1.000  H
  H103     1.0000 0.43790  0.47890  0.71460  Biso   1.000  H
  H104     1.0000 0.06210  0.52110  0.21460  Biso   1.000  H
  C169     1.0000 0.40101  0.89970  0.17339  Biso   1.000  C
  C170     1.0000 0.09899  0.10030  0.67339  Biso   1.000  C
  C171     1.0000 0.59899  0.39970  0.32661  Biso   1.000  C
  C172     1.0000 0.90101  0.60030  0.82661  Biso   1.000  C
  C173     1.0000 0.59899  0.10030  0.82661  Biso   1.000  C
  C174     1.0000 0.90101  0.89970  0.32661  Biso   1.000  C
  C175     1.0000 0.40101  0.60030  0.67339  Biso   1.000  C
  C176     1.0000 0.09899  0.39970  0.17339  Biso   1.000  C
  H105     1.0000 0.43070  0.89130  0.14290  Biso   1.000  H
  H106     1.0000 0.06930  0.10870  0.64290  Biso   1.000  H
  H107     1.0000 0.56930  0.39130  0.35710  Biso   1.000  H
  H108     1.0000 0.93070  0.60870  0.85710  Biso   1.000  H
  H109     1.0000 0.56930  0.10870  0.85710  Biso   1.000  H
  H110     1.0000 0.93070  0.89130  0.35710  Biso   1.000  H
  H111     1.0000 0.43070  0.60870  0.64290  Biso   1.000  H
  H112     1.0000 0.06930  0.39130  0.14290  Biso   1.000  H
  C177     1.0000 0.20103  0.66360  0.49126  Biso   1.000  C
  C178     1.0000 0.29897  0.33640  0.99126  Biso   1.000  C
  C179     1.0000 0.79897  0.16360  0.00874  Biso   1.000  C
  C180     1.0000 0.70103  0.83640  0.50874  Biso   1.000  C
  C181     1.0000 0.79897  0.33640  0.50874  Biso   1.000  C
  C182     1.0000 0.70103  0.66360  0.00874  Biso   1.000  C
  C183     1.0000 0.20103  0.83640  0.99126  Biso   1.000  C
  C184     1.0000 0.29897  0.16360  0.49126  Biso   1.000  C
  H113     1.0000 0.23790  0.70170  0.50260  Biso   1.000  H
  H114     1.0000 0.26210  0.29830  0.00260  Biso   1.000  H
  H115     1.0000 0.76210  0.20170  0.99740  Biso   1.000  H
  H116     1.0000 0.73790  0.79830  0.49740  Biso   1.000  H
  H117     1.0000 0.76210  0.29830  0.49740  Biso   1.000  H
  H118     1.0000 0.73790  0.70170  0.99740  Biso   1.000  H
  H119     1.0000 0.23790  0.79830  0.00260  Biso   1.000  H
  H120     1.0000 0.26210  0.20170  0.50260  Biso   1.000  H
  C185     1.0000 0.10440  0.58810  0.49216  Biso   1.000  C
  C186     1.0000 0.39560  0.41190  0.99216  Biso   1.000  C
  C187     1.0000 0.89560  0.08810  0.00784  Biso   1.000  C
  C188     1.0000 0.60440  0.91190  0.50784  Biso   1.000  C
  C189     1.0000 0.89560  0.41190  0.50784  Biso   1.000  C
  C190     1.0000 0.60440  0.58810  0.00784  Biso   1.000  C
  C191     1.0000 0.10440  0.91190  0.99216  Biso   1.000  C
  C192     1.0000 0.39560  0.08810  0.49216  Biso   1.000  C
  H121     1.0000 0.06230  0.56390  0.50390  Biso   1.000  H
  H122     1.0000 0.43770  0.43610  0.00390  Biso   1.000  H
  H123     1.0000 0.93770  0.06390  0.99610  Biso   1.000  H
  H124     1.0000 0.56230  0.93610  0.49610  Biso   1.000  H
  H125     1.0000 0.93770  0.43610  0.49610  Biso   1.000  H
  H126     1.0000 0.56230  0.56390  0.99610  Biso   1.000  H
  H127     1.0000 0.06230  0.93610  0.00390  Biso   1.000  H
  H128     1.0000 0.43770  0.06390  0.50390  Biso   1.000  H
  C193     1.0000 0.13220  0.57640  0.44071  Biso   1.000  C
  C194     1.0000 0.36780  0.42360  0.94071  Biso   1.000  C
  C195     1.0000 0.86780  0.07640  0.05929  Biso   1.000  C
  C196     1.0000 0.63220  0.92360  0.55929  Biso   1.000  C
  C197     1.0000 0.86780  0.42360  0.55929  Biso   1.000  C
  C198     1.0000 0.63220  0.57640  0.05929  Biso   1.000  C
  C199     1.0000 0.13220  0.92360  0.94071  Biso   1.000  C
  C200     1.0000 0.36780  0.07640  0.44071  Biso   1.000  C
  H129     1.0000 0.11290  0.54190  0.41050  Biso   1.000  H
  H130     1.0000 0.38710  0.45810  0.91050  Biso   1.000  H
  H131     1.0000 0.88710  0.04190  0.08950  Biso   1.000  H
  H132     1.0000 0.61290  0.95810  0.58950  Biso   1.000  H
  H133     1.0000 0.88710  0.45810  0.58950  Biso   1.000  H
  H134     1.0000 0.61290  0.54190  0.08950  Biso   1.000  H
  H135     1.0000 0.11290  0.95810  0.91050  Biso   1.000  H
  H136     1.0000 0.38710  0.04190  0.41050  Biso   1.000  H
  C201     1.0000 0.32920  0.55650  0.26800  Biso   1.000  C
  C202     1.0000 0.17080  0.44350  0.76800  Biso   1.000  C
  C203     1.0000 0.67080  0.05650  0.23200  Biso   1.000  C
  C204     1.0000 0.82920  0.94350  0.73200  Biso   1.000  C
  C205     1.0000 0.67080  0.44350  0.73200  Biso   1.000  C
  C206     1.0000 0.82920  0.55650  0.23200  Biso   1.000  C
  C207     1.0000 0.32920  0.94350  0.76800  Biso   1.000  C
  C208     1.0000 0.17080  0.05650  0.26800  Biso   1.000  C
  H137     1.0000 0.29890  0.59540  0.24750  Biso   1.000  H
  H138     1.0000 0.20110  0.40460  0.74750  Biso   1.000  H
  H139     1.0000 0.70110  0.09540  0.25250  Biso   1.000  H
  H140     1.0000 0.79890  0.90460  0.75250  Biso   1.000  H
  H141     1.0000 0.70110  0.40460  0.75250  Biso   1.000  H
  H142     1.0000 0.79890  0.59540  0.25250  Biso   1.000  H
  H143     1.0000 0.29890  0.90460  0.74750  Biso   1.000  H
  H144     1.0000 0.20110  0.09540  0.24750  Biso   1.000  H
  C209     1.0000 0.41206  0.45410  0.28762  Biso   1.000  C
  C210     1.0000 0.08794  0.54590  0.78762  Biso   1.000  C
  C211     1.0000 0.58794  0.95410  0.21238  Biso   1.000  C
  C212     1.0000 0.91206  0.04590  0.71238  Biso   1.000  C
  C213     1.0000 0.58794  0.54590  0.71238  Biso   1.000  C
  C214     1.0000 0.91206  0.45410  0.21238  Biso   1.000  C
  C215     1.0000 0.41206  0.04590  0.78762  Biso   1.000  C
  C216     1.0000 0.08794  0.95410  0.28762  Biso   1.000  C
  H145     1.0000 0.44850  0.41100  0.28390  Biso   1.000  H
  H146     1.0000 0.05150  0.58900  0.78390  Biso   1.000  H
  H147     1.0000 0.55150  0.91100  0.21610  Biso   1.000  H
  H148     1.0000 0.94850  0.08900  0.71610  Biso   1.000  H
  H149     1.0000 0.55150  0.58900  0.71610  Biso   1.000  H
  H150     1.0000 0.94850  0.41100  0.21610  Biso   1.000  H
  H151     1.0000 0.44850  0.08900  0.78390  Biso   1.000  H
  H152     1.0000 0.05150  0.91100  0.28390  Biso   1.000  H
  C217     1.0000 0.38190  0.48330  0.33680  Biso   1.000  C
  C218     1.0000 0.11810  0.51670  0.83680  Biso   1.000  C
  C219     1.0000 0.61810  0.98330  0.16320  Biso   1.000  C
  C220     1.0000 0.88190  0.01670  0.66320  Biso   1.000  C
  C221     1.0000 0.61810  0.51670  0.66320  Biso   1.000  C
  C222     1.0000 0.88190  0.48330  0.16320  Biso   1.000  C
  C223     1.0000 0.38190  0.01670  0.83680  Biso   1.000  C
  C224     1.0000 0.11810  0.98330  0.33680  Biso   1.000  C
  H153     1.0000 0.39420  0.46270  0.37320  Biso   1.000  H
  H154     1.0000 0.10580  0.53730  0.87320  Biso   1.000  H
  H155     1.0000 0.60580  0.96270  0.12680  Biso   1.000  H
  H156     1.0000 0.89420  0.03730  0.62680  Biso   1.000  H
  H157     1.0000 0.60580  0.53730  0.62680  Biso   1.000  H
  H158     1.0000 0.89420  0.46270  0.12680  Biso   1.000  H
  H159     1.0000 0.39420  0.03730  0.87320  Biso   1.000  H
  H160     1.0000 0.10580  0.96270  0.37320  Biso   1.000  H
  Cu1      1.0000 0.30402  0.73664  0.13739  Biso   1.000  Cu
  Cu2      1.0000 0.19597  0.26336  0.63739  Biso   1.000  Cu
  Cu3      1.0000 0.69598  0.23664  0.36261  Biso   1.000  Cu
  Cu4      1.0000 0.80402  0.76336  0.86261  Biso   1.000  Cu
  Cu5      1.0000 0.69598  0.26336  0.86261  Biso   1.000  Cu
  Cu6      1.0000 0.80402  0.73664  0.36261  Biso   1.000  Cu
  Cu7      1.0000 0.30402  0.76336  0.63739  Biso   1.000  Cu
  Cu8      1.0000 0.19597  0.23664  0.13739  Biso   1.000  Cu
  Cu9      1.0000 0.26371  0.59995  0.38046  Biso   1.000  Cu
  Cu10     1.0000 0.23629  0.40005  0.88046  Biso   1.000  Cu
  Cu11     1.0000 0.73629  0.09995  0.11954  Biso   1.000  Cu
  Cu12     1.0000 0.76371  0.90005  0.61954  Biso   1.000  Cu
  Cu13     1.0000 0.73629  0.40005  0.61954  Biso   1.000  Cu
  Cu14     1.0000 0.76371  0.59995  0.11954  Biso   1.000  Cu
  Cu15     1.0000 0.26371  0.90005  0.88046  Biso   1.000  Cu
  Cu16     1.0000 0.23629  0.09995  0.38046  Biso   1.000  Cu
  N1       1.0000 0.27290  0.62104  0.09542  Biso   1.000  N
  N2       1.0000 0.22710  0.37896  0.59542  Biso   1.000  N
  N3       1.0000 0.72710  0.12104  0.40458  Biso   1.000  N
  N4       1.0000 0.77290  0.87896  0.90458  Biso   1.000  N
  N5       1.0000 0.72710  0.37896  0.90458  Biso   1.000  N
  N6       1.0000 0.77290  0.62104  0.40458  Biso   1.000  N
  N7       1.0000 0.27290  0.87896  0.59542  Biso   1.000  N
  N8       1.0000 0.22710  0.12104  0.09542  Biso   1.000  N
  N9       1.0000 0.23846  0.53580  0.02198  Biso   1.000  N
  N10      1.0000 0.26154  0.46420  0.52198  Biso   1.000  N
  N11      1.0000 0.76154  0.03580  0.47802  Biso   1.000  N
  N12      1.0000 0.73846  0.96420  0.97802  Biso   1.000  N
  N13      1.0000 0.76154  0.46420  0.97802  Biso   1.000  N
  N14      1.0000 0.73846  0.53580  0.47802  Biso   1.000  N
  N15      1.0000 0.23846  0.96420  0.52198  Biso   1.000  N
  N16      1.0000 0.26154  0.03580  0.02198  Biso   1.000  N
  H161     1.0000 0.23260  0.51760  0.98720  Biso   1.000  H
  H162     1.0000 0.26740  0.48240  0.48720  Biso   1.000  H
  H163     1.0000 0.76740  0.01760  0.51280  Biso   1.000  H
  H164     1.0000 0.73260  0.98240  0.01280  Biso   1.000  H
  H165     1.0000 0.76740  0.48240  0.01280  Biso   1.000  H
  H166     1.0000 0.73260  0.51760  0.51280  Biso   1.000  H
  H167     1.0000 0.23260  0.98240  0.48720  Biso   1.000  H
  H168     1.0000 0.26740  0.01760  0.98720  Biso   1.000  H
  N17      1.0000 0.34517  0.84042  0.18537  Biso   1.000  N
  N18      1.0000 0.15483  0.15958  0.68537  Biso   1.000  N
  N19      1.0000 0.65483  0.34042  0.31463  Biso   1.000  N
  N20      1.0000 0.84517  0.65958  0.81463  Biso   1.000  N
  N21      1.0000 0.65483  0.15958  0.81463  Biso   1.000  N
  N22      1.0000 0.84517  0.84042  0.31463  Biso   1.000  N
  N23      1.0000 0.34517  0.65958  0.68537  Biso   1.000  N
  N24      1.0000 0.15483  0.34042  0.18537  Biso   1.000  N
  N25      1.0000 0.35236  0.95590  0.25030  Biso   1.000  N
  N26      1.0000 0.14764  0.04410  0.75030  Biso   1.000  N
  N27      1.0000 0.64764  0.45590  0.24970  Biso   1.000  N
  N28      1.0000 0.85236  0.54410  0.74970  Biso   1.000  N
  N29      1.0000 0.64764  0.04410  0.74970  Biso   1.000  N
  N30      1.0000 0.85236  0.95590  0.24970  Biso   1.000  N
  N31      1.0000 0.35236  0.54410  0.75030  Biso   1.000  N
  N32      1.0000 0.14764  0.45590  0.25030  Biso   1.000  N
  H169     1.0000 0.34320  0.99070  0.27990  Biso   1.000  H
  H170     1.0000 0.15680  0.00930  0.77990  Biso   1.000  H
  H171     1.0000 0.65680  0.49070  0.22010  Biso   1.000  H
  H172     1.0000 0.84320  0.50930  0.72010  Biso   1.000  H
  H173     1.0000 0.65680  0.00930  0.72010  Biso   1.000  H
  H174     1.0000 0.84320  0.99070  0.22010  Biso   1.000  H
  H175     1.0000 0.34320  0.50930  0.77990  Biso   1.000  H
  H176     1.0000 0.15680  0.49070  0.27990  Biso   1.000  H
  N33      1.0000 0.19404  0.62370  0.43948  Biso   1.000  N
  N34      1.0000 0.30596  0.37630  0.93948  Biso   1.000  N
  N35      1.0000 0.80596  0.12370  0.06052  Biso   1.000  N
  N36      1.0000 0.69404  0.87630  0.56052  Biso   1.000  N
  N37      1.0000 0.80596  0.37630  0.56052  Biso   1.000  N
  N38      1.0000 0.69404  0.62370  0.06052  Biso   1.000  N
  N39      1.0000 0.19404  0.87630  0.93948  Biso   1.000  N
  N40      1.0000 0.30596  0.12370  0.43948  Biso   1.000  N
  N41      1.0000 0.14836  0.64160  0.52447  Biso   1.000  N
  N42      1.0000 0.35164  0.35840  0.02447  Biso   1.000  N
  N43      1.0000 0.85164  0.14160  0.97553  Biso   1.000  N
  N44      1.0000 0.64836  0.85840  0.47553  Biso   1.000  N
  N45      1.0000 0.85164  0.35840  0.47553  Biso   1.000  N
  N46      1.0000 0.64836  0.64160  0.97553  Biso   1.000  N
  N47      1.0000 0.14836  0.85840  0.02447  Biso   1.000  N
  N48      1.0000 0.35164  0.14160  0.52447  Biso   1.000  N
  H177     1.0000 0.14310  0.65800  0.55960  Biso   1.000  H
  H178     1.0000 0.35690  0.34200  0.05960  Biso   1.000  H
  H179     1.0000 0.85690  0.15800  0.94040  Biso   1.000  H
  H180     1.0000 0.64310  0.84200  0.44040  Biso   1.000  H
  H181     1.0000 0.85690  0.34200  0.44040  Biso   1.000  H
  H182     1.0000 0.64310  0.65800  0.94040  Biso   1.000  H
  H183     1.0000 0.14310  0.84200  0.05960  Biso   1.000  H
  H184     1.0000 0.35690  0.15800  0.55960  Biso   1.000  H
  N49      1.0000 0.32999  0.54850  0.32439  Biso   1.000  N
  N50      1.0000 0.17001  0.45150  0.82439  Biso   1.000  N
  N51      1.0000 0.67001  0.04850  0.17561  Biso   1.000  N
  N52      1.0000 0.82999  0.95150  0.67561  Biso   1.000  N
  N53      1.0000 0.67001  0.45150  0.67561  Biso   1.000  N
  N54      1.0000 0.82999  0.54850  0.17561  Biso   1.000  N
  N55      1.0000 0.32999  0.95150  0.82439  Biso   1.000  N
  N56      1.0000 0.17001  0.04850  0.32439  Biso   1.000  N
  N57      1.0000 0.37813  0.50090  0.24462  Biso   1.000  N
  N58      1.0000 0.12187  0.49910  0.74462  Biso   1.000  N
  N59      1.0000 0.62187  0.00090  0.25538  Biso   1.000  N
  N60      1.0000 0.87813  0.99910  0.75538  Biso   1.000  N
  N61      1.0000 0.62187  0.49910  0.75538  Biso   1.000  N
  N62      1.0000 0.87813  0.50090  0.25538  Biso   1.000  N
  N63      1.0000 0.37813  0.99910  0.74462  Biso   1.000  N
  N64      1.0000 0.12187  0.00090  0.24462  Biso   1.000  N
  H185     1.0000 0.38670  0.49560  0.20880  Biso   1.000  H
  H186     1.0000 0.11330  0.50440  0.70880  Biso   1.000  H
  H187     1.0000 0.61330  0.99560  0.29120  Biso   1.000  H
  H188     1.0000 0.88670  0.00440  0.79120  Biso   1.000  H
  H189     1.0000 0.61330  0.50440  0.79120  Biso   1.000  H
  H190     1.0000 0.88670  0.49560  0.29120  Biso   1.000  H
  H191     1.0000 0.38670  0.00440  0.70880  Biso   1.000  H
  H192     1.0000 0.11330  0.99560  0.20880  Biso   1.000  H
  O1       1.0000 0.23519  0.70792  0.19797  Biso   1.000  O
  O2       1.0000 0.26481  0.29208  0.69797  Biso   1.000  O
  O3       1.0000 0.76481  0.20792  0.30203  Biso   1.000  O
  O4       1.0000 0.73519  0.79208  0.80203  Biso   1.000  O
  O5       1.0000 0.76481  0.29208  0.80203  Biso   1.000  O
  O6       1.0000 0.73519  0.70792  0.30203  Biso   1.000  O
  O7       1.0000 0.23519  0.79208  0.69797  Biso   1.000  O
  O8       1.0000 0.26481  0.20792  0.19797  Biso   1.000  O
  O9       1.0000 0.18215  0.80320  0.13569  Biso   1.000  O
  O10      1.0000 0.31785  0.19680  0.63569  Biso   1.000  O
  O11      1.0000 0.81785  0.30320  0.36431  Biso   1.000  O
  O12      1.0000 0.68215  0.69680  0.86431  Biso   1.000  O
  O13      1.0000 0.81785  0.19680  0.86431  Biso   1.000  O
  O14      1.0000 0.68215  0.80320  0.36431  Biso   1.000  O
  O15      1.0000 0.18215  0.69680  0.63569  Biso   1.000  O
  O16      1.0000 0.31785  0.30320  0.13569  Biso   1.000  O
  O17      1.0000 0.35525  0.78159  0.07025  Biso   1.000  O
  O18      1.0000 0.14475  0.21841  0.57025  Biso   1.000  O
  O19      1.0000 0.64475  0.28159  0.42975  Biso   1.000  O
  O20      1.0000 0.85525  0.71841  0.92975  Biso   1.000  O
  O21      1.0000 0.64475  0.21841  0.92975  Biso   1.000  O
  O22      1.0000 0.85525  0.78159  0.42975  Biso   1.000  O
  O23      1.0000 0.35525  0.71841  0.57025  Biso   1.000  O
  O24      1.0000 0.14475  0.28159  0.07025  Biso   1.000  O
  O25      1.0000 0.43841  0.68148  0.09812  Biso   1.000  O
  O26      1.0000 0.06159  0.31852  0.59812  Biso   1.000  O
  O27      1.0000 0.56159  0.18148  0.40188  Biso   1.000  O
  O28      1.0000 0.93841  0.81852  0.90188  Biso   1.000  O
  O29      1.0000 0.56159  0.31852  0.90188  Biso   1.000  O
  O30      1.0000 0.93841  0.68148  0.40188  Biso   1.000  O
  O31      1.0000 0.43841  0.81852  0.59812  Biso   1.000  O
  O32      1.0000 0.06159  0.18148  0.09812  Biso   1.000  O
  O33      1.0000 0.19210  0.60611  0.32160  Biso   1.000  O
  O34      1.0000 0.30790  0.39389  0.82160  Biso   1.000  O
  O35      1.0000 0.80790  0.10611  0.17840  Biso   1.000  O
  O36      1.0000 0.69210  0.89389  0.67840  Biso   1.000  O
  O37      1.0000 0.80790  0.39389  0.67840  Biso   1.000  O
  O38      1.0000 0.69210  0.60611  0.17840  Biso   1.000  O
  O39      1.0000 0.19210  0.89389  0.82160  Biso   1.000  O
  O40      1.0000 0.30790  0.10611  0.32160  Biso   1.000  O
  O41      1.0000 0.21334  0.76681  0.31966  Biso   1.000  O
  O42      1.0000 0.28666  0.23319  0.81966  Biso   1.000  O
  O43      1.0000 0.78666  0.26681  0.18034  Biso   1.000  O
  O44      1.0000 0.71334  0.73319  0.68034  Biso   1.000  O
  O45      1.0000 0.78666  0.23319  0.68034  Biso   1.000  O
  O46      1.0000 0.71334  0.76681  0.18034  Biso   1.000  O
  O47      1.0000 0.21334  0.73319  0.81966  Biso   1.000  O
  O48      1.0000 0.28666  0.26681  0.31966  Biso   1.000  O
  O49      1.0000 0.33733  0.89766  0.93770  Biso   1.000  O
  O50      1.0000 0.16267  0.10234  0.43770  Biso   1.000  O
  O51      1.0000 0.66267  0.39766  0.56230  Biso   1.000  O
  O52      1.0000 0.83733  0.60234  0.06230  Biso   1.000  O
  O53      1.0000 0.66267  0.10234  0.06230  Biso   1.000  O
  O54      1.0000 0.83733  0.89766  0.56230  Biso   1.000  O
  O55      1.0000 0.33733  0.60234  0.43770  Biso   1.000  O
  O56      1.0000 0.16267  0.39766  0.93770  Biso   1.000  O
  O57      1.0000 0.35475  0.73514  0.93778  Biso   1.000  O
  O58      1.0000 0.14525  0.26486  0.43778  Biso   1.000  O
  O59      1.0000 0.64525  0.23514  0.56222  Biso   1.000  O
  O60      1.0000 0.85475  0.76486  0.06222  Biso   1.000  O
  O61      1.0000 0.64525  0.26486  0.06222  Biso   1.000  O
  O62      1.0000 0.85475  0.73514  0.56222  Biso   1.000  O
  O63      1.0000 0.35475  0.76486  0.43778  Biso   1.000  O
  O64      1.0000 0.14525  0.23514  0.93778  Biso   1.000  O
  O65      1.0000 0.74161  0.41083  0.10284  Biso   1.000  O
  O66      1.0000 0.75839  0.58917  0.60284  Biso   1.000  O
  O67      1.0000 0.25839  0.91083  0.39716  Biso   1.000  O
  O68      1.0000 0.24161  0.08917  0.89716  Biso   1.000  O
  O69      1.0000 0.25839  0.58917  0.89716  Biso   1.000  O
  O70      1.0000 0.24161  0.41083  0.39716  Biso   1.000  O
  O71      1.0000 0.74161  0.08917  0.60284  Biso   1.000  O
  O72      1.0000 0.75839  0.91083  0.10284  Biso   1.000  O
  O73      1.0000 0.42323  0.48780  0.13214  Biso   1.000  O
  O74      1.0000 0.07677  0.51220  0.63214  Biso   1.000  O
  O75      1.0000 0.57677  0.98780  0.36786  Biso   1.000  O
  O76      1.0000 0.92323  0.01220  0.86786  Biso   1.000  O
  O77      1.0000 0.57677  0.51220  0.86786  Biso   1.000  O
  O78      1.0000 0.92323  0.48780  0.36786  Biso   1.000  O
  O79      1.0000 0.42323  0.01220  0.63214  Biso   1.000  O
  O80      1.0000 0.07677  0.98780  0.13214  Biso   1.000  O
  O81      1.0000 0.47260  0.88620  0.43270  Biso   1.000  O
  O82      1.0000 0.02740  0.11380  0.93270  Biso   1.000  O
  O83      1.0000 0.52740  0.38620  0.06730  Biso   1.000  O
  O84      1.0000 0.97260  0.61380  0.56730  Biso   1.000  O
  O85      1.0000 0.52740  0.11380  0.56730  Biso   1.000  O
  O86      1.0000 0.97260  0.88620  0.06730  Biso   1.000  O
  O87      1.0000 0.47260  0.61380  0.93270  Biso   1.000  O
  O88      1.0000 0.02740  0.38620  0.43270  Biso   1.000  O
  O89      1.0000 0.43940  0.89720  0.37600  Biso   1.000  O
  O90      1.0000 0.06060  0.10280  0.87600  Biso   1.000  O
  O91      1.0000 0.56060  0.39720  0.12400  Biso   1.000  O
  O92      1.0000 0.93940  0.60280  0.62400  Biso   1.000  O
  O93      1.0000 0.56060  0.10280  0.62400  Biso   1.000  O
  O94      1.0000 0.93940  0.89720  0.12400  Biso   1.000  O
  O95      1.0000 0.43940  0.60280  0.87600  Biso   1.000  O
  O96      1.0000 0.06060  0.39720  0.37600  Biso   1.000  O
