data_image0
_cell_length_a       6.756
_cell_length_b       18.725
_cell_length_c       6.5954
_cell_angle_alpha    90
_cell_angle_beta     109.716
_cell_angle_gamma    90

_symmetry_space_group_name_H-M    "P 1"
_symmetry_int_tables_number       1

loop_
  _symmetry_equiv_pos_as_xyz
  'x, y, z'

loop_
  _atom_site_label
  _atom_site_occupancy
  _atom_site_fract_x
  _atom_site_fract_y
  _atom_site_fract_z
  _atom_site_thermal_displace_type
  _atom_site_B_iso_or_equiv
  _atom_site_type_symbol
  Cu1      1.0000 0.98550  0.37300  0.15978  Biso   1.000  Cu
  Cu2      1.0000 0.01450  0.87300  0.34022  Biso   1.000  Cu
  Cu3      1.0000 0.01450  0.62700  0.84022  Biso   1.000  Cu
  Cu4      1.0000 0.98550  0.12700  0.65978  Biso   1.000  Cu
  N1       1.0000 0.69070  0.37328  0.16630  Biso   1.000  N
  N2       1.0000 0.30930  0.87328  0.33370  Biso   1.000  N
  N3       1.0000 0.30930  0.62672  0.83370  Biso   1.000  N
  N4       1.0000 0.69070  0.12672  0.66630  Biso   1.000  N
  N5       1.0000 0.28210  0.37426  0.15810  Biso   1.000  N
  N6       1.0000 0.71790  0.87426  0.34190  Biso   1.000  N
  N7       1.0000 0.71790  0.62574  0.84190  Biso   1.000  N
  N8       1.0000 0.28210  0.12574  0.65810  Biso   1.000  N
  O1       1.0000 0.66670  0.55418  0.30510  Biso   1.000  O
  O2       1.0000 0.33330  0.05418  0.19490  Biso   1.000  O
  O3       1.0000 0.33330  0.44582  0.69490  Biso   1.000  O
  O4       1.0000 0.66670  0.94582  0.80510  Biso   1.000  O
  O5       1.0000 0.92660  0.49080  0.24830  Biso   1.000  O
  O6       1.0000 0.07340  0.99080  0.25170  Biso   1.000  O
  O7       1.0000 0.07340  0.50920  0.75170  Biso   1.000  O
  O8       1.0000 0.92660  0.00920  0.74830  Biso   1.000  O
  O9       1.0000 0.87020  0.25540  0.08150  Biso   1.000  O
  O10      1.0000 0.12980  0.75540  0.41850  Biso   1.000  O
  O11      1.0000 0.12980  0.74460  0.91850  Biso   1.000  O
  O12      1.0000 0.87020  0.24460  0.58150  Biso   1.000  O
  O13      1.0000 0.59910  0.18888  0.09730  Biso   1.000  O
  O14      1.0000 0.40090  0.68888  0.40270  Biso   1.000  O
  O15      1.0000 0.40090  0.81112  0.90270  Biso   1.000  O
  O16      1.0000 0.59910  0.31112  0.59730  Biso   1.000  O
  C1       1.0000 0.74610  0.49862  0.26140  Biso   1.000  C
  C2       1.0000 0.25390  0.99862  0.23860  Biso   1.000  C
  C3       1.0000 0.25390  0.50138  0.73860  Biso   1.000  C
  C4       1.0000 0.74610  0.00138  0.76140  Biso   1.000  C
  C5       1.0000 0.60790  0.43275  0.21340  Biso   1.000  C
  C6       1.0000 0.39210  0.93275  0.28660  Biso   1.000  C
  C7       1.0000 0.39210  0.56725  0.78660  Biso   1.000  C
  C8       1.0000 0.60790  0.06725  0.71340  Biso   1.000  C
  C9       1.0000 0.40160  0.43273  0.21300  Biso   1.000  C
  C10      1.0000 0.59840  0.93273  0.28700  Biso   1.000  C
  C11      1.0000 0.59840  0.56727  0.78700  Biso   1.000  C
  C12      1.0000 0.40160  0.06727  0.71300  Biso   1.000  C
  H1       1.0000 0.34510  0.47490  0.25230  Biso   1.000  H
  H2       1.0000 0.65490  0.97490  0.24770  Biso   1.000  H
  H3       1.0000 0.65490  0.52510  0.74770  Biso   1.000  H
  H4       1.0000 0.34510  0.02510  0.75230  Biso   1.000  H
  C13      1.0000 0.36800  0.31454  0.11370  Biso   1.000  C
  C14      1.0000 0.63200  0.81454  0.38630  Biso   1.000  C
  C15      1.0000 0.63200  0.68546  0.88630  Biso   1.000  C
  C16      1.0000 0.36800  0.18546  0.61370  Biso   1.000  C
  H5       1.0000 0.28580  0.27230  0.07660  Biso   1.000  H
  H6       1.0000 0.71420  0.77230  0.42340  Biso   1.000  H
  H7       1.0000 0.71420  0.72770  0.92340  Biso   1.000  H
  H8       1.0000 0.28580  0.22770  0.57660  Biso   1.000  H
  C17      1.0000 0.57660  0.31351  0.12120  Biso   1.000  C
  C18      1.0000 0.42340  0.81351  0.37880  Biso   1.000  C
  C19      1.0000 0.42340  0.68649  0.87880  Biso   1.000  C
  C20      1.0000 0.57660  0.18649  0.62120  Biso   1.000  C
  C21      1.0000 0.69060  0.24621  0.09610  Biso   1.000  C
  C22      1.0000 0.30940  0.74621  0.40390  Biso   1.000  C
  C23      1.0000 0.30940  0.75379  0.90390  Biso   1.000  C
  C24      1.0000 0.69060  0.25379  0.59610  Biso   1.000  C
  O17      1.0000 0.87800  0.40079  0.85340  Biso   1.000  O
  O18      1.0000 0.12200  0.90079  0.64660  Biso   1.000  O
  O19      1.0000 0.12200  0.59921  0.14660  Biso   1.000  O
  O20      1.0000 0.87800  0.09921  0.35340  Biso   1.000  O
  H9       1.0000 0.80970  0.37200  0.76960  Biso   1.000  H
  H10      1.0000 0.19030  0.87200  0.73040  Biso   1.000  H
  H11      1.0000 0.19030  0.62800  0.23040  Biso   1.000  H
  H12      1.0000 0.80970  0.12800  0.26960  Biso   1.000  H
  H13      1.0000 0.94950  0.43190  0.79490  Biso   1.000  H
  H14      1.0000 0.05050  0.93190  0.70510  Biso   1.000  H
  H15      1.0000 0.05050  0.56810  0.20510  Biso   1.000  H
  H16      1.0000 0.94950  0.06810  0.29490  Biso   1.000  H
  O21      1.0000 0.09800  0.34259  0.46410  Biso   1.000  O
  O22      1.0000 0.90200  0.84259  0.03590  Biso   1.000  O
  O23      1.0000 0.90200  0.65741  0.53590  Biso   1.000  O
  O24      1.0000 0.09800  0.15741  0.96410  Biso   1.000  O
  H17      1.0000 0.16380  0.36990  0.55700  Biso   1.000  H
  H18      1.0000 0.83620  0.86990  0.94300  Biso   1.000  H
  H19      1.0000 0.83620  0.63010  0.44300  Biso   1.000  H
  H20      1.0000 0.16380  0.13010  0.05700  Biso   1.000  H
  H21      1.0000 0.02370  0.31690  0.53200  Biso   1.000  H
  H22      1.0000 0.97630  0.81690  0.96800  Biso   1.000  H
  H23      1.0000 0.97630  0.68310  0.46800  Biso   1.000  H
  H24      1.0000 0.02370  0.18310  0.03200  Biso   1.000  H
