data_image0
_cell_length_a       10.804
_cell_length_b       10.741
_cell_length_c       14.05
_cell_angle_alpha    87.357
_cell_angle_beta     88.031
_cell_angle_gamma    68.716

_symmetry_space_group_name_H-M    "P 1"
_symmetry_int_tables_number       1

loop_
  _symmetry_equiv_pos_as_xyz
  'x, y, z'

loop_
  _atom_site_label
  _atom_site_occupancy
  _atom_site_fract_x
  _atom_site_fract_y
  _atom_site_fract_z
  _atom_site_thermal_displace_type
  _atom_site_B_iso_or_equiv
  _atom_site_type_symbol
  C1       1.0000 0.36320  0.18010  0.98330  Biso   1.000  C
  C2       1.0000 0.63680  0.81990  0.01670  Biso   1.000  C
  H1       1.0000 0.44190  0.13100  0.94910  Biso   1.000  H
  H2       1.0000 0.55810  0.86900  0.05090  Biso   1.000  H
  C3       1.0000 0.36590  0.17500  0.08250  Biso   1.000  C
  C4       1.0000 0.63410  0.82500  0.91750  Biso   1.000  C
  H3       1.0000 0.44430  0.12160  0.11470  Biso   1.000  H
  H4       1.0000 0.55570  0.87840  0.88530  Biso   1.000  H
  C5       1.0000 0.14000  0.32490  0.08280  Biso   1.000  C
  C6       1.0000 0.86000  0.67510  0.91720  Biso   1.000  C
  H5       1.0000 0.06070  0.37720  0.11510  Biso   1.000  H
  H6       1.0000 0.93930  0.62280  0.88490  Biso   1.000  H
  C7       1.0000 0.14430  0.32360  0.98400  Biso   1.000  C
  C8       1.0000 0.85570  0.67640  0.01600  Biso   1.000  C
  H7       1.0000 0.06670  0.37570  0.95030  Biso   1.000  H
  H8       1.0000 0.93330  0.62430  0.04970  Biso   1.000  H
  Cu1      1.0000 0.25143  0.25127  0.78033  Biso   1.000  Cu
  Cu2      1.0000 0.74857  0.74873  0.21967  Biso   1.000  Cu
  Cu3      1.0000 0.24381  0.24522  0.59470  Biso   1.000  Cu
  Cu4      1.0000 0.75619  0.75478  0.40530  Biso   1.000  Cu
  O1       1.0000 0.19820  0.44750  0.75770  Biso   1.000  O
  O2       1.0000 0.80180  0.55250  0.24230  Biso   1.000  O
  O3       1.0000 0.21540  0.43540  0.59940  Biso   1.000  O
  O4       1.0000 0.78460  0.56460  0.40060  Biso   1.000  O
  O5       1.0000 0.43840  0.23190  0.75950  Biso   1.000  O
  O6       1.0000 0.56160  0.76810  0.24050  Biso   1.000  O
  O7       1.0000 0.43840  0.20000  0.60360  Biso   1.000  O
  O8       1.0000 0.56160  0.80000  0.39640  Biso   1.000  O
  O9       1.0000 0.30280  0.05380  0.77270  Biso   1.000  O
  O10      1.0000 0.69720  0.94620  0.22730  Biso   1.000  O
  O11      1.0000 0.26930  0.05490  0.61670  Biso   1.000  O
  O12      1.0000 0.73070  0.94510  0.38330  Biso   1.000  O
  O13      1.0000 0.06430  0.26610  0.77580  Biso   1.000  O
  O14      1.0000 0.93570  0.73390  0.22420  Biso   1.000  O
  O15      1.0000 0.05070  0.28770  0.61710  Biso   1.000  O
  O16      1.0000 0.94930  0.71230  0.38290  Biso   1.000  O
  N1       1.0000 0.24560  0.24680  0.44190  Biso   1.000  N
  N2       1.0000 0.75440  0.75320  0.55810  Biso   1.000  N
  N3       1.0000 0.25360  0.25170  0.93370  Biso   1.000  N
  N4       1.0000 0.74640  0.74830  0.06630  Biso   1.000  N
  C9       1.0000 0.20380  0.49770  0.67560  Biso   1.000  C
  C10      1.0000 0.79620  0.50230  0.32440  Biso   1.000  C
  C11      1.0000 0.19820  0.64020  0.66390  Biso   1.000  C
  C12      1.0000 0.80180  0.35980  0.33610  Biso   1.000  C
  H9       1.0000 0.13760  0.68430  0.61000  Biso   1.000  H
  H10      1.0000 0.86240  0.31570  0.39000  Biso   1.000  H
  C13      1.0000 0.14630  0.72380  0.75260  Biso   1.000  C
  C14      1.0000 0.85370  0.27620  0.24740  Biso   1.000  C
  H11      1.0000 0.05250  0.73390  0.76530  Biso   1.000  H
  H12      1.0000 0.94750  0.26610  0.23470  Biso   1.000  H
  H13      1.0000 0.19870  0.67750  0.80880  Biso   1.000  H
  H14      1.0000 0.80130  0.32250  0.19120  Biso   1.000  H
  C15      1.0000 0.15460  0.86240  0.73650  Biso   1.000  C
  C16      1.0000 0.84540  0.13760  0.26350  Biso   1.000  C
  H15      1.0000 0.09310  0.91200  0.68540  Biso   1.000  H
  H16      1.0000 0.90690  0.08800  0.31460  Biso   1.000  H
  H17      1.0000 0.12560  0.91290  0.79560  Biso   1.000  H
  H18      1.0000 0.87440  0.08710  0.20440  Biso   1.000  H
  C17      1.0000 0.29530  0.85570  0.70900  Biso   1.000  C
  C18      1.0000 0.70470  0.14430  0.29100  Biso   1.000  C
  H19      1.0000 0.35560  0.80980  0.76260  Biso   1.000  H
  H20      1.0000 0.64440  0.19020  0.23740  Biso   1.000  H
  C19      1.0000 0.34390  0.77480  0.62100  Biso   1.000  C
  C20      1.0000 0.65610  0.22520  0.37900  Biso   1.000  C
  H21      1.0000 0.43680  0.76630  0.60640  Biso   1.000  H
  H22      1.0000 0.56320  0.23370  0.39360  Biso   1.000  H
  H23      1.0000 0.28900  0.82180  0.56610  Biso   1.000  H
  H24      1.0000 0.71100  0.17820  0.43390  Biso   1.000  H
  C21      1.0000 0.33790  0.63550  0.63550  Biso   1.000  C
  C22      1.0000 0.66210  0.36450  0.36450  Biso   1.000  C
  H25      1.0000 0.40100  0.58510  0.68550  Biso   1.000  H
  H26      1.0000 0.59900  0.41490  0.31450  Biso   1.000  H
  H27      1.0000 0.36580  0.58700  0.57560  Biso   1.000  H
  H28      1.0000 0.63420  0.41300  0.42440  Biso   1.000  H
  C23      1.0000 0.29100  0.99890  0.69810  Biso   1.000  C
  C24      1.0000 0.70900  0.00110  0.30190  Biso   1.000  C
  C25      1.0000 0.49260  0.20930  0.67820  Biso   1.000  C
  C26      1.0000 0.50740  0.79070  0.32180  Biso   1.000  C
  C27      1.0000 0.63640  0.19840  0.66820  Biso   1.000  C
  C28      1.0000 0.36360  0.80160  0.33180  Biso   1.000  C
  H29      1.0000 0.68180  0.13020  0.61990  Biso   1.000  H
  H30      1.0000 0.31820  0.86980  0.38010  Biso   1.000  H
  C29      1.0000 0.63980  0.33330  0.63100  Biso   1.000  C
  C30      1.0000 0.36020  0.66670  0.36900  Biso   1.000  C
  H31      1.0000 0.59230  0.40290  0.67680  Biso   1.000  H
  H32      1.0000 0.40770  0.59710  0.32320  Biso   1.000  H
  H33      1.0000 0.59240  0.35750  0.56990  Biso   1.000  H
  H34      1.0000 0.40760  0.64250  0.43010  Biso   1.000  H
  C31      1.0000 0.78160  0.32910  0.61560  Biso   1.000  C
  C32      1.0000 0.21840  0.67090  0.38440  Biso   1.000  C
  H35      1.0000 0.82690  0.26520  0.56570  Biso   1.000  H
  H36      1.0000 0.17310  0.73480  0.43430  Biso   1.000  H
  H37      1.0000 0.77900  0.41880  0.59340  Biso   1.000  H
  H38      1.0000 0.22100  0.58120  0.40660  Biso   1.000  H
  C33      1.0000 0.85930  0.28860  0.70750  Biso   1.000  C
  C34      1.0000 0.14070  0.71140  0.29250  Biso   1.000  C
  H39      1.0000 0.81320  0.35720  0.75540  Biso   1.000  H
  H40      1.0000 0.18680  0.64280  0.24460  Biso   1.000  H
  C35      1.0000 0.85470  0.15370  0.74610  Biso   1.000  C
  C36      1.0000 0.14530  0.84630  0.25390  Biso   1.000  C
  H41      1.0000 0.90390  0.08270  0.70170  Biso   1.000  H
  H42      1.0000 0.09610  0.91730  0.29830  Biso   1.000  H
  H43      1.0000 0.89920  0.13090  0.80830  Biso   1.000  H
  H44      1.0000 0.10080  0.86910  0.19170  Biso   1.000  H
  C37      1.0000 0.71300  0.15740  0.75950  Biso   1.000  C
  C38      1.0000 0.28700  0.84260  0.24050  Biso   1.000  C
  H45      1.0000 0.71450  0.06780  0.78100  Biso   1.000  H
  H46      1.0000 0.28550  0.93220  0.21900  Biso   1.000  H
  H47      1.0000 0.66680  0.22110  0.80930  Biso   1.000  H
  H48      1.0000 0.33320  0.77890  0.19070  Biso   1.000  H
  C39      1.0000 0.00150  0.28170  0.69870  Biso   1.000  C
  C40      1.0000 0.99850  0.71830  0.30130  Biso   1.000  C
  C41      1.0000 0.15620  0.34380  0.39020  Biso   1.000  C
  C42      1.0000 0.84380  0.65620  0.60980  Biso   1.000  C
  H49      1.0000 0.08860  0.41150  0.42340  Biso   1.000  H
  H50      1.0000 0.91140  0.58850  0.57660  Biso   1.000  H
  C43      1.0000 0.15650  0.35130  0.29200  Biso   1.000  C
  C44      1.0000 0.84350  0.64870  0.70800  Biso   1.000  C
  H51      1.0000 0.09300  0.42520  0.25950  Biso   1.000  H
  H52      1.0000 0.90700  0.57480  0.74050  Biso   1.000  H
  C45      1.0000 0.25030  0.25120  0.24130  Biso   1.000  C
  C46      1.0000 0.74970  0.74880  0.75870  Biso   1.000  C
  C47      1.0000 0.34430  0.14850  0.29280  Biso   1.000  C
  C48      1.0000 0.65570  0.85150  0.70720  Biso   1.000  C
  H53      1.0000 0.41270  0.07980  0.26090  Biso   1.000  H
  H54      1.0000 0.58730  0.92020  0.73910  Biso   1.000  H
  C49      1.0000 0.33710  0.14810  0.39290  Biso   1.000  C
  C50      1.0000 0.66290  0.85190  0.60710  Biso   1.000  C
  H55      1.0000 0.39870  0.07520  0.42760  Biso   1.000  H
  H56      1.0000 0.60130  0.92480  0.57240  Biso   1.000  H
  C51      1.0000 0.25150  0.24970  0.13460  Biso   1.000  C
  C52      1.0000 0.74850  0.75030  0.86540  Biso   1.000  C
  O17      1.0000 0.70340  0.13120  0.02120  Biso   1.000  O
  O18      1.0000 0.29660  0.86880  0.97880  Biso   1.000  O
  H57      1.0000 0.77710  0.06760  0.02300  Biso   1.000  H
  H58      1.0000 0.22290  0.93240  0.97700  Biso   1.000  H
  O19      1.0000 0.83020  0.25600  0.99480  Biso   1.000  O
  O20      1.0000 0.16980  0.74400  0.00520  Biso   1.000  O
  C53      1.0000 0.72260  0.24450  0.00040  Biso   1.000  C
  C54      1.0000 0.27740  0.75550  0.99960  Biso   1.000  C
  C55      1.0000 0.59290  0.36390  0.98790  Biso   1.000  C
  C56      1.0000 0.40710  0.63610  0.01210  Biso   1.000  C
  H59      1.0000 0.53320  0.33310  0.95030  Biso   1.000  H
  H60      1.0000 0.46680  0.66690  0.04970  Biso   1.000  H
  C57      1.0000 0.52350  0.40650  0.08120  Biso   1.000  C
  C58      1.0000 0.47650  0.59350  0.91880  Biso   1.000  C
  H61      1.0000 0.58010  0.43700  0.12110  Biso   1.000  H
  H62      1.0000 0.41990  0.56300  0.87890  Biso   1.000  H
  H63      1.0000 0.51090  0.32880  0.11480  Biso   1.000  H
  H64      1.0000 0.48910  0.67120  0.88520  Biso   1.000  H
  C59      1.0000 0.60890  0.48100  0.92970  Biso   1.000  C
  C60      1.0000 0.39110  0.51900  0.07030  Biso   1.000  C
  H65      1.0000 0.66950  0.51370  0.96340  Biso   1.000  H
  H66      1.0000 0.33050  0.48630  0.03660  Biso   1.000  H
  H67      1.0000 0.64890  0.45120  0.86640  Biso   1.000  H
  H68      1.0000 0.35110  0.54880  0.13360  Biso   1.000  H
  O21      1.0000 0.92340  0.92760  0.05900  Biso   1.000  O
  O22      1.0000 0.07660  0.07240  0.94100  Biso   1.000  O
  O23      1.0000 0.07400  0.06300  0.46820  Biso   1.000  O
  O24      1.0000 0.92600  0.93700  0.53180  Biso   1.000  O
  C61      1.0000 0.31400  0.15800  0.98200  Biso   1.000  C
  C62      1.0000 0.68600  0.84200  0.01800  Biso   1.000  C
  H69      1.0000 0.36520  0.08090  0.94830  Biso   1.000  H
  H70      1.0000 0.63480  0.91910  0.05170  Biso   1.000  H
  C63      1.0000 0.32000  0.14500  0.08600  Biso   1.000  C
  C64      1.0000 0.68000  0.85500  0.91400  Biso   1.000  C
  H71      1.0000 0.37150  0.06300  0.11660  Biso   1.000  H
  H72      1.0000 0.62850  0.93700  0.88340  Biso   1.000  H
  C65      1.0000 0.18400  0.35900  0.08500  Biso   1.000  C
  C66      1.0000 0.81600  0.64100  0.91500  Biso   1.000  C
  H73      1.0000 0.13310  0.43900  0.11600  Biso   1.000  H
  H74      1.0000 0.86690  0.56100  0.88400  Biso   1.000  H
  C67      1.0000 0.18800  0.35500  0.98200  Biso   1.000  C
  C68      1.0000 0.81200  0.64500  0.01800  Biso   1.000  C
  H75      1.0000 0.13890  0.43530  0.94730  Biso   1.000  H
  H76      1.0000 0.86110  0.56470  0.05270  Biso   1.000  H
