data_image0
_cell_length_a       10.708
_cell_length_b       10.822
_cell_length_c       11.457
_cell_angle_alpha    111.84
_cell_angle_beta     93.35
_cell_angle_gamma    113.52

_symmetry_space_group_name_H-M    "P 1"
_symmetry_int_tables_number       1

loop_
  _symmetry_equiv_pos_as_xyz
  'x, y, z'

loop_
  _atom_site_label
  _atom_site_occupancy
  _atom_site_fract_x
  _atom_site_fract_y
  _atom_site_fract_z
  _atom_site_thermal_displace_type
  _atom_site_B_iso_or_equiv
  _atom_site_type_symbol
  Cu1      1.0000 0.31755  0.31014  0.64041  Biso   1.000  Cu
  Cu2      1.0000 0.68245  0.68986  0.35959  Biso   1.000  Cu
  Cu3      1.0000 0.35246  0.41880  0.89201  Biso   1.000  Cu
  Cu4      1.0000 0.64754  0.58120  0.10799  Biso   1.000  Cu
  O1       1.0000 0.35990  0.51460  0.66670  Biso   1.000  O
  O2       1.0000 0.64010  0.48540  0.33330  Biso   1.000  O
  O3       1.0000 0.37800  0.60320  0.88070  Biso   1.000  O
  O4       1.0000 0.62200  0.39680  0.11930  Biso   1.000  O
  O5       1.0000 0.28300  0.12280  0.64870  Biso   1.000  O
  O6       1.0000 0.71700  0.87720  0.35130  Biso   1.000  O
  O7       1.0000 0.31890  0.21760  0.86520  Biso   1.000  O
  O8       1.0000 0.68110  0.78240  0.13480  Biso   1.000  O
  O9       1.0000 0.12270  0.27290  0.65380  Biso   1.000  O
  O10      1.0000 0.87730  0.72710  0.34620  Biso   1.000  O
  O11      1.0000 0.15170  0.35960  0.86880  Biso   1.000  O
  O12      1.0000 0.84830  0.64040  0.13120  Biso   1.000  O
  O13      1.0000 0.52070  0.36600  0.67840  Biso   1.000  O
  O14      1.0000 0.47930  0.63400  0.32160  Biso   1.000  O
  O15      1.0000 0.55390  0.47200  0.89550  Biso   1.000  O
  O16      1.0000 0.44610  0.52800  0.10450  Biso   1.000  O
  N1       1.0000 0.25530  0.21650  0.43270  Biso   1.000  N
  N2       1.0000 0.74470  0.78350  0.56730  Biso   1.000  N
  C1       1.0000 0.37450  0.61560  0.77600  Biso   1.000  C
  C2       1.0000 0.62550  0.38440  0.22400  Biso   1.000  C
  C3       1.0000 0.38740  0.76230  0.78070  Biso   1.000  C
  C4       1.0000 0.61260  0.23770  0.21930  Biso   1.000  C
  H1       1.0000 0.48910  0.83580  0.81600  Biso   1.000  H
  H2       1.0000 0.51090  0.16420  0.18400  Biso   1.000  H
  C5       1.0000 0.30860  0.82520  0.87300  Biso   1.000  C
  C6       1.0000 0.69140  0.17480  0.12700  Biso   1.000  C
  H3       1.0000 0.34320  0.83670  0.96030  Biso   1.000  H
  H4       1.0000 0.65680  0.16330  0.03970  Biso   1.000  H
  H5       1.0000 0.20750  0.75350  0.84280  Biso   1.000  H
  H6       1.0000 0.79250  0.24650  0.15720  Biso   1.000  H
  C7       1.0000 0.32680  0.97650  0.88220  Biso   1.000  C
  C8       1.0000 0.67320  0.02350  0.11780  Biso   1.000  C
  H7       1.0000 0.27040  0.01070  0.93980  Biso   1.000  H
  H8       1.0000 0.72960  0.98930  0.06020  Biso   1.000  H
  H9       1.0000 0.42660  0.05110  0.92080  Biso   1.000  H
  H10      1.0000 0.57340  0.94890  0.07920  Biso   1.000  H
  C9       1.0000 0.28100  0.96590  0.74990  Biso   1.000  C
  C10      1.0000 0.71900  0.03410  0.25010  Biso   1.000  C
  H11      1.0000 0.17890  0.89340  0.71580  Biso   1.000  H
  H12      1.0000 0.82110  0.10660  0.28420  Biso   1.000  H
  C11      1.0000 0.35880  0.90250  0.65560  Biso   1.000  C
  C12      1.0000 0.64120  0.09750  0.34440  Biso   1.000  C
  H13      1.0000 0.32160  0.88910  0.56820  Biso   1.000  H
  H14      1.0000 0.67840  0.11090  0.43180  Biso   1.000  H
  H15      1.0000 0.45970  0.97470  0.68390  Biso   1.000  H
  H16      1.0000 0.54030  0.02530  0.31610  Biso   1.000  H
  C13      1.0000 0.34290  0.75470  0.64830  Biso   1.000  C
  C14      1.0000 0.65710  0.24530  0.35170  Biso   1.000  C
  H17      1.0000 0.40040  0.72170  0.59140  Biso   1.000  H
  H18      1.0000 0.59960  0.27830  0.40860  Biso   1.000  H
  H19      1.0000 0.24350  0.67900  0.60850  Biso   1.000  H
  H20      1.0000 0.75650  0.32100  0.39150  Biso   1.000  H
  C15      1.0000 0.29610  0.11350  0.75540  Biso   1.000  C
  C16      1.0000 0.70390  0.88650  0.24460  Biso   1.000  C
  C17      1.0000 0.07880  0.30840  0.75390  Biso   1.000  C
  C18      1.0000 0.92120  0.69160  0.24610  Biso   1.000  C
  C19      1.0000 0.93280  0.29940  0.73830  Biso   1.000  C
  C20      1.0000 0.06720  0.70060  0.26170  Biso   1.000  C
  H21      1.0000 0.87100  0.20790  0.65740  Biso   1.000  H
  H22      1.0000 0.12900  0.79210  0.34260  Biso   1.000  H
  C21      1.0000 0.86400  0.28920  0.84880  Biso   1.000  C
  C22      1.0000 0.13600  0.71080  0.15120  Biso   1.000  C
  H23      1.0000 0.84960  0.19580  0.85480  Biso   1.000  H
  H24      1.0000 0.15040  0.80420  0.14520  Biso   1.000  H
  H25      1.0000 0.92670  0.37440  0.93150  Biso   1.000  H
  H26      1.0000 0.07330  0.62560  0.06850  Biso   1.000  H
  C23      1.0000 0.72390  0.29140  0.82780  Biso   1.000  C
  C24      1.0000 0.27610  0.70860  0.17220  Biso   1.000  C
  H27      1.0000 0.68360  0.28990  0.90310  Biso   1.000  H
  H28      1.0000 0.31640  0.71010  0.09690  Biso   1.000  H
  H29      1.0000 0.65830  0.20040  0.74990  Biso   1.000  H
  H30      1.0000 0.34170  0.79960  0.25010  Biso   1.000  H
  C25      1.0000 0.73830  0.43160  0.81000  Biso   1.000  C
  C26      1.0000 0.26170  0.56840  0.19000  Biso   1.000  C
  H31      1.0000 0.80140  0.52310  0.89040  Biso   1.000  H
  H32      1.0000 0.19860  0.47690  0.10960  Biso   1.000  H
  C27      1.0000 0.80450  0.43540  0.69550  Biso   1.000  C
  C28      1.0000 0.19550  0.56460  0.30450  Biso   1.000  C
  H33      1.0000 0.81760  0.52660  0.68560  Biso   1.000  H
  H34      1.0000 0.18240  0.47340  0.31440  Biso   1.000  H
  H35      1.0000 0.74060  0.34760  0.61470  Biso   1.000  H
  H36      1.0000 0.25940  0.65240  0.38530  Biso   1.000  H
  C29      1.0000 0.94700  0.43430  0.71680  Biso   1.000  C
  C30      1.0000 0.05300  0.56570  0.28320  Biso   1.000  C
  H37      1.0000 0.98590  0.43250  0.64020  Biso   1.000  H
  H38      1.0000 0.01410  0.56750  0.35980  Biso   1.000  H
  H39      1.0000 0.01340  0.52680  0.79310  Biso   1.000  H
  H40      1.0000 0.98660  0.47320  0.20690  Biso   1.000  H
  C31      1.0000 0.59510  0.42380  0.79170  Biso   1.000  C
  C32      1.0000 0.40490  0.57620  0.20830  Biso   1.000  C
  C33      1.0000 0.12950  0.09160  0.37260  Biso   1.000  C
  C34      1.0000 0.87050  0.90840  0.62740  Biso   1.000  C
  H41      1.0000 0.08530  0.03950  0.42110  Biso   1.000  H
  H42      1.0000 0.91470  0.96050  0.57890  Biso   1.000  H
  C35      1.0000 0.06400  0.03780  0.24550  Biso   1.000  C
  C36      1.0000 0.93600  0.96220  0.75450  Biso   1.000  C
  H43      1.0000 0.97520  0.95180  0.20880  Biso   1.000  H
  H44      1.0000 0.02480  0.04820  0.79120  Biso   1.000  H
  C37      1.0000 0.12720  0.10890  0.16920  Biso   1.000  C
  C38      1.0000 0.87280  0.89110  0.83080  Biso   1.000  C
  C39      1.0000 0.25800  0.23320  0.22930  Biso   1.000  C
  C40      1.0000 0.74200  0.76680  0.77070  Biso   1.000  C
  H45      1.0000 0.30680  0.28360  0.18120  Biso   1.000  H
  H46      1.0000 0.69320  0.71640  0.81880  Biso   1.000  H
  C41      1.0000 0.31720  0.28350  0.35890  Biso   1.000  C
  C42      1.0000 0.68280  0.71650  0.64110  Biso   1.000  C
  H47      1.0000 0.40580  0.36950  0.39790  Biso   1.000  H
  H48      1.0000 0.59420  0.63050  0.60210  Biso   1.000  H
  C43      1.0000 0.06080  0.06160  0.03600  Biso   1.000  C
  C44      1.0000 0.93920  0.93840  0.96400  Biso   1.000  C
  H49      1.0000 0.10740  0.12310  0.99530  Biso   1.000  H
  H50      1.0000 0.89260  0.87690  0.00470  Biso   1.000  H
