data_image0
_cell_length_a       7.9687
_cell_length_b       11.6773
_cell_length_c       12.0331
_cell_angle_alpha    90
_cell_angle_beta     101.054
_cell_angle_gamma    90

_symmetry_space_group_name_H-M    "P 1"
_symmetry_int_tables_number       1

loop_
  _symmetry_equiv_pos_as_xyz
  'x, y, z'

loop_
  _atom_site_label
  _atom_site_occupancy
  _atom_site_fract_x
  _atom_site_fract_y
  _atom_site_fract_z
  _atom_site_thermal_displace_type
  _atom_site_B_iso_or_equiv
  _atom_site_type_symbol
  Cu1      1.0000 0.81798  0.90871  0.27262  Biso   1.000  Cu
  Cu2      1.0000 0.18202  0.40871  0.22738  Biso   1.000  Cu
  Cu3      1.0000 0.18202  0.09129  0.72738  Biso   1.000  Cu
  Cu4      1.0000 0.81798  0.59129  0.77262  Biso   1.000  Cu
  Cu5      1.0000 0.00000  0.50000  0.50000  Biso   1.000  Cu
  Cu6      1.0000 0.00000  0.00000  0.00000  Biso   1.000  Cu
  Cu7      1.0000 0.00000  0.00000  0.50000  Biso   1.000  Cu
  Cu8      1.0000 0.00000  0.50000  0.00000  Biso   1.000  Cu
  O1       1.0000 0.73689  0.72847  0.29530  Biso   1.000  O
  O2       1.0000 0.26311  0.22847  0.20470  Biso   1.000  O
  O3       1.0000 0.26311  0.27153  0.70470  Biso   1.000  O
  O4       1.0000 0.73689  0.77153  0.79530  Biso   1.000  O
  O5       1.0000 0.95840  0.63163  0.39557  Biso   1.000  O
  O6       1.0000 0.04160  0.13163  0.10443  Biso   1.000  O
  O7       1.0000 0.04160  0.36837  0.60443  Biso   1.000  O
  O8       1.0000 0.95840  0.86837  0.89557  Biso   1.000  O
  N1       1.0000 0.29050  0.82500  0.32650  Biso   1.000  N
  N2       1.0000 0.70950  0.32500  0.17350  Biso   1.000  N
  N3       1.0000 0.70950  0.17500  0.67350  Biso   1.000  N
  N4       1.0000 0.29050  0.67500  0.82650  Biso   1.000  N
  N5       1.0000 0.17550  0.87432  0.34531  Biso   1.000  N
  N6       1.0000 0.82450  0.37432  0.15469  Biso   1.000  N
  N7       1.0000 0.82450  0.12568  0.65469  Biso   1.000  N
  N8       1.0000 0.17550  0.62568  0.84531  Biso   1.000  N
  N9       1.0000 0.05280  0.92735  0.36215  Biso   1.000  N
  N10      1.0000 0.94720  0.42735  0.13785  Biso   1.000  N
  N11      1.0000 0.94720  0.07265  0.63785  Biso   1.000  N
  N12      1.0000 0.05280  0.57265  0.86215  Biso   1.000  N
  N13      1.0000 0.98220  0.18881  0.38720  Biso   1.000  N
  N14      1.0000 0.01780  0.68881  0.11280  Biso   1.000  N
  N15      1.0000 0.01780  0.81119  0.61280  Biso   1.000  N
  N16      1.0000 0.98220  0.31119  0.88720  Biso   1.000  N
  N17      1.0000 0.04280  0.27601  0.37599  Biso   1.000  N
  N18      1.0000 0.95720  0.77601  0.12401  Biso   1.000  N
  N19      1.0000 0.95720  0.72399  0.62401  Biso   1.000  N
  N20      1.0000 0.04280  0.22399  0.87599  Biso   1.000  N
  N21      1.0000 0.10370  0.36968  0.36856  Biso   1.000  N
  N22      1.0000 0.89630  0.86968  0.13144  Biso   1.000  N
  N23      1.0000 0.89630  0.63032  0.63144  Biso   1.000  N
  N24      1.0000 0.10370  0.13032  0.86856  Biso   1.000  N
  N25      1.0000 0.76190  0.97183  0.41709  Biso   1.000  N
  N26      1.0000 0.23810  0.47183  0.08291  Biso   1.000  N
  N27      1.0000 0.23810  0.02817  0.58291  Biso   1.000  N
  N28      1.0000 0.76190  0.52817  0.91709  Biso   1.000  N
  N29      1.0000 0.66830  0.92299  0.47092  Biso   1.000  N
  N30      1.0000 0.33170  0.42299  0.02908  Biso   1.000  N
  N31      1.0000 0.33170  0.07701  0.52908  Biso   1.000  N
  N32      1.0000 0.66830  0.57701  0.97092  Biso   1.000  N
  N33      1.0000 0.58040  0.88210  0.52310  Biso   1.000  N
  N34      1.0000 0.41960  0.38210  0.97690  Biso   1.000  N
  N35      1.0000 0.41960  0.11790  0.47690  Biso   1.000  N
  N36      1.0000 0.58040  0.61790  0.02310  Biso   1.000  N
  N37      1.0000 0.75860  0.46220  0.43165  Biso   1.000  N
  N38      1.0000 0.24140  0.96220  0.06835  Biso   1.000  N
  N39      1.0000 0.24140  0.53780  0.56835  Biso   1.000  N
  N40      1.0000 0.75860  0.03780  0.93165  Biso   1.000  N
  N41      1.0000 0.42460  0.44246  0.31621  Biso   1.000  N
  N42      1.0000 0.57540  0.94246  0.18379  Biso   1.000  N
  N43      1.0000 0.57540  0.55754  0.68379  Biso   1.000  N
  N44      1.0000 0.42460  0.05754  0.81621  Biso   1.000  N
  C1       1.0000 0.66410  0.37139  0.44763  Biso   1.000  C
  C2       1.0000 0.33590  0.87139  0.05237  Biso   1.000  C
  C3       1.0000 0.33590  0.62861  0.55237  Biso   1.000  C
  C4       1.0000 0.66410  0.12861  0.94763  Biso   1.000  C
  H1       1.0000 0.71020  0.31420  0.49810  Biso   1.000  H
  H2       1.0000 0.28980  0.81420  0.00190  Biso   1.000  H
  H3       1.0000 0.28980  0.68580  0.50190  Biso   1.000  H
  H4       1.0000 0.71020  0.18580  0.99810  Biso   1.000  H
  C5       1.0000 0.49720  0.36252  0.38889  Biso   1.000  C
  C6       1.0000 0.50280  0.86252  0.11111  Biso   1.000  C
  C7       1.0000 0.50280  0.63748  0.61111  Biso   1.000  C
  C8       1.0000 0.49720  0.13748  0.88889  Biso   1.000  C
  H5       1.0000 0.43350  0.29840  0.40060  Biso   1.000  H
  H6       1.0000 0.56650  0.79840  0.09940  Biso   1.000  H
  H7       1.0000 0.56650  0.70160  0.59940  Biso   1.000  H
  H8       1.0000 0.43350  0.20160  0.90060  Biso   1.000  H
  C9       1.0000 0.80330  0.64473  0.34766  Biso   1.000  C
  C10      1.0000 0.19670  0.14473  0.15234  Biso   1.000  C
  C11      1.0000 0.19670  0.35527  0.65234  Biso   1.000  C
  C12      1.0000 0.80330  0.85527  0.84766  Biso   1.000  C
  C13      1.0000 0.52020  0.53421  0.30074  Biso   1.000  C
  C14      1.0000 0.47980  0.03421  0.19926  Biso   1.000  C
  C15      1.0000 0.47980  0.46579  0.69926  Biso   1.000  C
  C16      1.0000 0.52020  0.96579  0.80074  Biso   1.000  C
  H9       1.0000 0.47360  0.59140  0.25030  Biso   1.000  H
  H10      1.0000 0.52640  0.09140  0.24970  Biso   1.000  H
  H11      1.0000 0.52640  0.40860  0.74970  Biso   1.000  H
  H12      1.0000 0.47360  0.90860  0.75030  Biso   1.000  H
  C17      1.0000 0.68630  0.54417  0.35891  Biso   1.000  C
  C18      1.0000 0.31370  0.04417  0.14109  Biso   1.000  C
  C19      1.0000 0.31370  0.45583  0.64109  Biso   1.000  C
  C20      1.0000 0.68630  0.95583  0.85891  Biso   1.000  C
