data_image0
_cell_length_a       10.037
_cell_length_b       14.477
_cell_length_c       9.735
_cell_angle_alpha    90
_cell_angle_beta     90
_cell_angle_gamma    90

_symmetry_space_group_name_H-M    "P 1"
_symmetry_int_tables_number       1

loop_
  _symmetry_equiv_pos_as_xyz
  'x, y, z'

loop_
  _atom_site_label
  _atom_site_occupancy
  _atom_site_fract_x
  _atom_site_fract_y
  _atom_site_fract_z
  _atom_site_thermal_displace_type
  _atom_site_B_iso_or_equiv
  _atom_site_type_symbol
  Cu1      1.0000 0.05580  0.31240  0.53380  Biso   1.000  Cu
  Cu2      1.0000 0.55580  0.18760  0.46620  Biso   1.000  Cu
  Cu3      1.0000 0.44420  0.81240  0.46620  Biso   1.000  Cu
  Cu4      1.0000 0.94420  0.68760  0.53380  Biso   1.000  Cu
  N1       1.0000 0.15700  0.28830  0.70570  Biso   1.000  N
  N2       1.0000 0.65700  0.21170  0.29430  Biso   1.000  N
  N3       1.0000 0.34300  0.78830  0.29430  Biso   1.000  N
  N4       1.0000 0.84300  0.71170  0.70570  Biso   1.000  N
  C1       1.0000 0.14880  0.38690  0.91340  Biso   1.000  C
  C2       1.0000 0.64880  0.11310  0.08660  Biso   1.000  C
  C3       1.0000 0.35120  0.88690  0.08660  Biso   1.000  C
  C4       1.0000 0.85120  0.61310  0.91340  Biso   1.000  C
  C5       1.0000 0.07940  0.31260  0.82990  Biso   1.000  C
  C6       1.0000 0.57940  0.18740  0.17010  Biso   1.000  C
  C7       1.0000 0.42060  0.81260  0.17010  Biso   1.000  C
  C8       1.0000 0.92060  0.68740  0.82990  Biso   1.000  C
  C9       1.0000 0.93990  0.34610  0.78860  Biso   1.000  C
  C10      1.0000 0.43990  0.15390  0.21140  Biso   1.000  C
  C11      1.0000 0.56010  0.84610  0.21140  Biso   1.000  C
  C12      1.0000 0.06010  0.65390  0.78860  Biso   1.000  C
  O1       1.0000 0.85670  0.36310  0.88290  Biso   1.000  O
  O2       1.0000 0.35670  0.13690  0.11710  Biso   1.000  O
  O3       1.0000 0.64330  0.86310  0.11710  Biso   1.000  O
  O4       1.0000 0.14330  0.63690  0.88290  Biso   1.000  O
  N5       1.0000 0.91780  0.35580  0.65640  Biso   1.000  N
  N6       1.0000 0.41780  0.14420  0.34360  Biso   1.000  N
  N7       1.0000 0.58220  0.85580  0.34360  Biso   1.000  N
  N8       1.0000 0.08220  0.64420  0.65640  Biso   1.000  N
  C13      1.0000 0.79300  0.39740  0.61300  Biso   1.000  C
  C14      1.0000 0.29300  0.10260  0.38700  Biso   1.000  C
  C15      1.0000 0.70700  0.89740  0.38700  Biso   1.000  C
  C16      1.0000 0.20700  0.60260  0.61300  Biso   1.000  C
  C17      1.0000 0.68990  0.32690  0.56430  Biso   1.000  C
  C18      1.0000 0.18990  0.17310  0.43570  Biso   1.000  C
  C19      1.0000 0.81010  0.82690  0.43570  Biso   1.000  C
  C20      1.0000 0.31010  0.67310  0.56430  Biso   1.000  C
  O5       1.0000 0.58520  0.35800  0.51430  Biso   1.000  O
  O6       1.0000 0.08520  0.14200  0.48570  Biso   1.000  O
  O7       1.0000 0.91480  0.85800  0.48570  Biso   1.000  O
  O8       1.0000 0.41480  0.64200  0.51430  Biso   1.000  O
  O9       1.0000 0.71000  0.24300  0.57450  Biso   1.000  O
  O10      1.0000 0.21000  0.25700  0.42550  Biso   1.000  O
  O11      1.0000 0.79000  0.74300  0.42550  Biso   1.000  O
  O12      1.0000 0.29000  0.75700  0.57450  Biso   1.000  O
  C21      1.0000 0.81790  0.46620  0.49810  Biso   1.000  C
  C22      1.0000 0.31790  0.03380  0.50190  Biso   1.000  C
  C23      1.0000 0.68210  0.96620  0.50190  Biso   1.000  C
  C24      1.0000 0.18210  0.53380  0.49810  Biso   1.000  C
  C25      1.0000 0.86370  0.42120  0.36980  Biso   1.000  C
  C26      1.0000 0.36370  0.07880  0.63020  Biso   1.000  C
  C27      1.0000 0.63630  0.92120  0.63020  Biso   1.000  C
  C28      1.0000 0.13630  0.57880  0.36980  Biso   1.000  C
  N9       1.0000 0.96300  0.35500  0.37040  Biso   1.000  N
  N10      1.0000 0.46300  0.14500  0.62960  Biso   1.000  N
  N11      1.0000 0.53700  0.85500  0.62960  Biso   1.000  N
  N12      1.0000 0.03700  0.64500  0.37040  Biso   1.000  N
  C29      1.0000 0.97620  0.32680  0.24160  Biso   1.000  C
  C30      1.0000 0.47620  0.17320  0.75840  Biso   1.000  C
  C31      1.0000 0.52380  0.82680  0.75840  Biso   1.000  C
  C32      1.0000 0.02380  0.67320  0.24160  Biso   1.000  C
  N13      1.0000 0.89430  0.37130  0.16130  Biso   1.000  N
  N14      1.0000 0.39430  0.12870  0.83870  Biso   1.000  N
  N15      1.0000 0.60570  0.87130  0.83870  Biso   1.000  N
  N16      1.0000 0.10570  0.62870  0.16130  Biso   1.000  N
  C33      1.0000 0.82100  0.43210  0.23900  Biso   1.000  C
  C34      1.0000 0.32100  0.06790  0.76100  Biso   1.000  C
  C35      1.0000 0.67900  0.93210  0.76100  Biso   1.000  C
  C36      1.0000 0.17900  0.56790  0.23900  Biso   1.000  C
  O13      1.0000 0.58360  0.36930  0.91500  Biso   1.000  O
  O14      1.0000 0.08360  0.13070  0.08500  Biso   1.000  O
  O15      1.0000 0.91640  0.86930  0.08500  Biso   1.000  O
  O16      1.0000 0.41640  0.63070  0.91500  Biso   1.000  O
  O17      1.0000 0.38990  0.40800  0.70470  Biso   1.000  O
  O18      1.0000 0.88990  0.09200  0.29530  Biso   1.000  O
  O19      1.0000 0.11010  0.90800  0.29530  Biso   1.000  O
  O20      1.0000 0.61010  0.59200  0.70470  Biso   1.000  O
  O21      1.0000 0.39940  0.37970  0.30210  Biso   1.000  O
  O22      1.0000 0.89940  0.12030  0.69790  Biso   1.000  O
  O23      1.0000 0.10060  0.87970  0.69790  Biso   1.000  O
  O24      1.0000 0.60060  0.62030  0.30210  Biso   1.000  O
  O25      1.0000 0.00000  0.00000  0.88930  Biso   1.000  O
  O26      1.0000 0.50000  0.50000  0.11070  Biso   1.000  O
  H1       1.0000 0.25600  0.30000  0.70000  Biso   1.000  H
  H2       1.0000 0.75600  0.20000  0.30000  Biso   1.000  H
  H3       1.0000 0.24400  0.80000  0.30000  Biso   1.000  H
  H4       1.0000 0.74400  0.70000  0.70000  Biso   1.000  H
  H5       1.0000 0.19300  0.22400  0.68900  Biso   1.000  H
  H6       1.0000 0.69300  0.27600  0.31100  Biso   1.000  H
  H7       1.0000 0.30700  0.72400  0.31100  Biso   1.000  H
  H8       1.0000 0.80700  0.77600  0.68900  Biso   1.000  H
  H9       1.0000 0.08600  0.40800  0.99700  Biso   1.000  H
  H10      1.0000 0.58600  0.09200  0.00300  Biso   1.000  H
  H11      1.0000 0.41400  0.90800  0.00300  Biso   1.000  H
  H12      1.0000 0.91400  0.59200  0.99700  Biso   1.000  H
  H13      1.0000 0.17900  0.44700  0.85500  Biso   1.000  H
  H14      1.0000 0.67900  0.05300  0.14500  Biso   1.000  H
  H15      1.0000 0.32100  0.94700  0.14500  Biso   1.000  H
  H16      1.0000 0.82100  0.55300  0.85500  Biso   1.000  H
  H17      1.0000 0.23600  0.35200  0.95400  Biso   1.000  H
  H18      1.0000 0.73600  0.14800  0.04600  Biso   1.000  H
  H19      1.0000 0.26400  0.85200  0.04600  Biso   1.000  H
  H20      1.0000 0.76400  0.64800  0.95400  Biso   1.000  H
  H21      1.0000 0.07100  0.25100  0.89300  Biso   1.000  H
  H22      1.0000 0.57100  0.24900  0.10700  Biso   1.000  H
  H23      1.0000 0.42900  0.75100  0.10700  Biso   1.000  H
  H24      1.0000 0.92900  0.74900  0.89300  Biso   1.000  H
  H25      1.0000 0.75300  0.43100  0.70300  Biso   1.000  H
  H26      1.0000 0.25300  0.06900  0.29700  Biso   1.000  H
  H27      1.0000 0.74700  0.93100  0.29700  Biso   1.000  H
  H28      1.0000 0.24700  0.56900  0.70300  Biso   1.000  H
  H29      1.0000 0.89300  0.51500  0.53100  Biso   1.000  H
  H30      1.0000 0.39300  0.98500  0.46900  Biso   1.000  H
  H31      1.0000 0.60700  0.01500  0.46900  Biso   1.000  H
  H32      1.0000 0.10700  0.48500  0.53100  Biso   1.000  H
  H33      1.0000 0.72600  0.50300  0.47700  Biso   1.000  H
  H34      1.0000 0.22600  0.99700  0.52300  Biso   1.000  H
  H35      1.0000 0.77400  0.00300  0.52300  Biso   1.000  H
  H36      1.0000 0.27400  0.49700  0.47700  Biso   1.000  H
  H37      1.0000 0.04500  0.27400  0.20800  Biso   1.000  H
  H38      1.0000 0.54500  0.22600  0.79200  Biso   1.000  H
  H39      1.0000 0.45500  0.77400  0.79200  Biso   1.000  H
  H40      1.0000 0.95500  0.72600  0.20800  Biso   1.000  H
  H41      1.0000 0.88400  0.35600  0.06100  Biso   1.000  H
  H42      1.0000 0.38400  0.14400  0.93900  Biso   1.000  H
  H43      1.0000 0.61600  0.85600  0.93900  Biso   1.000  H
  H44      1.0000 0.11600  0.64400  0.06100  Biso   1.000  H
  H45      1.0000 0.74500  0.47900  0.20300  Biso   1.000  H
  H46      1.0000 0.24500  0.02100  0.79700  Biso   1.000  H
  H47      1.0000 0.75500  0.97900  0.79700  Biso   1.000  H
  H48      1.0000 0.25500  0.52100  0.20300  Biso   1.000  H
  H49      1.0000 0.59800  0.43400  0.93800  Biso   1.000  H
  H50      1.0000 0.09800  0.06600  0.06200  Biso   1.000  H
  H51      1.0000 0.90200  0.93400  0.06200  Biso   1.000  H
  H52      1.0000 0.40200  0.56600  0.93800  Biso   1.000  H
  H53      1.0000 0.67600  0.34800  0.89500  Biso   1.000  H
  H54      1.0000 0.17600  0.15200  0.10500  Biso   1.000  H
  H55      1.0000 0.82400  0.84800  0.10500  Biso   1.000  H
  H56      1.0000 0.32400  0.65200  0.89500  Biso   1.000  H
  H57      1.0000 0.43400  0.39600  0.61700  Biso   1.000  H
  H58      1.0000 0.93400  0.10400  0.38300  Biso   1.000  H
  H59      1.0000 0.06600  0.89600  0.38300  Biso   1.000  H
  H60      1.0000 0.56600  0.60400  0.61700  Biso   1.000  H
  H61      1.0000 0.46400  0.42500  0.76300  Biso   1.000  H
  H62      1.0000 0.96400  0.07500  0.23700  Biso   1.000  H
  H63      1.0000 0.03600  0.92500  0.23700  Biso   1.000  H
  H64      1.0000 0.53600  0.57500  0.76300  Biso   1.000  H
  H65      1.0000 0.33700  0.34000  0.34700  Biso   1.000  H
  H66      1.0000 0.83700  0.16000  0.65300  Biso   1.000  H
  H67      1.0000 0.16300  0.84000  0.65300  Biso   1.000  H
  H68      1.0000 0.66300  0.66000  0.34700  Biso   1.000  H
  H69      1.0000 0.47400  0.38400  0.36100  Biso   1.000  H
  H70      1.0000 0.97400  0.11600  0.63900  Biso   1.000  H
  H71      1.0000 0.02600  0.88400  0.63900  Biso   1.000  H
  H72      1.0000 0.52600  0.61600  0.36100  Biso   1.000  H
  H73      1.0000 0.03300  0.05600  0.85500  Biso   1.000  H
  H74      1.0000 0.53300  0.44400  0.14500  Biso   1.000  H
  H75      1.0000 0.46700  0.55600  0.14500  Biso   1.000  H
  H76      1.0000 0.96700  0.94400  0.85500  Biso   1.000  H
