data_image0
_cell_length_a       16.7599
_cell_length_b       15.1887
_cell_length_c       8.9775
_cell_angle_alpha    90
_cell_angle_beta     116.445
_cell_angle_gamma    90

_symmetry_space_group_name_H-M    "P 1"
_symmetry_int_tables_number       1

loop_
  _symmetry_equiv_pos_as_xyz
  'x, y, z'

loop_
  _atom_site_label
  _atom_site_occupancy
  _atom_site_fract_x
  _atom_site_fract_y
  _atom_site_fract_z
  _atom_site_thermal_displace_type
  _atom_site_B_iso_or_equiv
  _atom_site_type_symbol
  Cu1      1.0000 0.89947  0.07845  0.13651  Biso   1.000  Cu
  Cu2      1.0000 0.89947  0.92155  0.63651  Biso   1.000  Cu
  Cu3      1.0000 0.39947  0.57845  0.13651  Biso   1.000  Cu
  Cu4      1.0000 0.39947  0.42155  0.63651  Biso   1.000  Cu
  Cl1      1.0000 0.91199  0.41422  0.65620  Biso   1.000  Cl
  Cl2      1.0000 0.91199  0.58578  0.15620  Biso   1.000  Cl
  Cl3      1.0000 0.41199  0.91422  0.65620  Biso   1.000  Cl
  Cl4      1.0000 0.41199  0.08578  0.15620  Biso   1.000  Cl
  O1       1.0000 0.89040  0.20220  0.29210  Biso   1.000  O
  O2       1.0000 0.89040  0.79780  0.79210  Biso   1.000  O
  O3       1.0000 0.39040  0.70220  0.29210  Biso   1.000  O
  O4       1.0000 0.39040  0.29780  0.79210  Biso   1.000  O
  O5       1.0000 0.89570  0.03330  0.35910  Biso   1.000  O
  O6       1.0000 0.89570  0.96670  0.85910  Biso   1.000  O
  O7       1.0000 0.39570  0.53330  0.35910  Biso   1.000  O
  O8       1.0000 0.39570  0.46670  0.85910  Biso   1.000  O
  O9       1.0000 0.91100  0.06060  0.61320  Biso   1.000  O
  O10      1.0000 0.91100  0.93940  0.11320  Biso   1.000  O
  O11      1.0000 0.41100  0.56060  0.61320  Biso   1.000  O
  O12      1.0000 0.41100  0.43940  0.11320  Biso   1.000  O
  O13      1.0000 0.89250  0.50510  0.63670  Biso   1.000  O
  O14      1.0000 0.89250  0.49490  0.13670  Biso   1.000  O
  O15      1.0000 0.39250  0.00510  0.63670  Biso   1.000  O
  O16      1.0000 0.39250  0.99490  0.13670  Biso   1.000  O
  O17      1.0000 0.95420  0.39470  0.83200  Biso   1.000  O
  O18      1.0000 0.95420  0.60530  0.33200  Biso   1.000  O
  O19      1.0000 0.45420  0.89470  0.83200  Biso   1.000  O
  O20      1.0000 0.45420  0.10530  0.33200  Biso   1.000  O
  O21      1.0000 0.83370  0.36390  0.58050  Biso   1.000  O
  O22      1.0000 0.83370  0.63610  0.08050  Biso   1.000  O
  O23      1.0000 0.33370  0.86390  0.58050  Biso   1.000  O
  O24      1.0000 0.33370  0.13610  0.08050  Biso   1.000  O
  O25      1.0000 0.97440  0.39280  0.59290  Biso   1.000  O
  O26      1.0000 0.97440  0.60720  0.09290  Biso   1.000  O
  O27      1.0000 0.47440  0.89280  0.59290  Biso   1.000  O
  O28      1.0000 0.47440  0.10720  0.09290  Biso   1.000  O
  O29      1.0000 0.11750  0.27770  0.83760  Biso   1.000  O
  O30      1.0000 0.11750  0.72230  0.33760  Biso   1.000  O
  O31      1.0000 0.61750  0.77770  0.83760  Biso   1.000  O
  O32      1.0000 0.61750  0.22230  0.33760  Biso   1.000  O
  N1       1.0000 0.90040  0.18440  0.98750  Biso   1.000  N
  N2       1.0000 0.90040  0.81560  0.48750  Biso   1.000  N
  N3       1.0000 0.40040  0.68440  0.98750  Biso   1.000  N
  N4       1.0000 0.40040  0.31560  0.48750  Biso   1.000  N
  N5       1.0000 0.03010  0.08740  0.22410  Biso   1.000  N
  N6       1.0000 0.03010  0.91260  0.72410  Biso   1.000  N
  N7       1.0000 0.53010  0.58740  0.22410  Biso   1.000  N
  N8       1.0000 0.53010  0.41260  0.72410  Biso   1.000  N
  N9       1.0000 0.77070  0.08370  0.99050  Biso   1.000  N
  N10      1.0000 0.77070  0.91630  0.49050  Biso   1.000  N
  N11      1.0000 0.27070  0.58370  0.99050  Biso   1.000  N
  N12      1.0000 0.27070  0.41630  0.49050  Biso   1.000  N
  C1       1.0000 0.98710  0.18280  0.98050  Biso   1.000  C
  C2       1.0000 0.98710  0.81720  0.48050  Biso   1.000  C
  C3       1.0000 0.48710  0.68280  0.98050  Biso   1.000  C
  C4       1.0000 0.48710  0.31720  0.48050  Biso   1.000  C
  C5       1.0000 0.05830  0.13420  0.12700  Biso   1.000  C
  C6       1.0000 0.05830  0.86580  0.62700  Biso   1.000  C
  C7       1.0000 0.55830  0.63420  0.12700  Biso   1.000  C
  C8       1.0000 0.55830  0.36580  0.62700  Biso   1.000  C
  C9       1.0000 0.14680  0.13350  0.15680  Biso   1.000  C
  C10      1.0000 0.14680  0.86650  0.65680  Biso   1.000  C
  C11      1.0000 0.64680  0.63350  0.15680  Biso   1.000  C
  C12      1.0000 0.64680  0.36650  0.65680  Biso   1.000  C
  C13      1.0000 0.20740  0.08370  0.28730  Biso   1.000  C
  C14      1.0000 0.20740  0.91630  0.78730  Biso   1.000  C
  C15      1.0000 0.70740  0.58370  0.28730  Biso   1.000  C
  C16      1.0000 0.70740  0.41630  0.78730  Biso   1.000  C
  C17      1.0000 0.17890  0.03770  0.38710  Biso   1.000  C
  C18      1.0000 0.17890  0.96230  0.88710  Biso   1.000  C
  C19      1.0000 0.67890  0.53770  0.38710  Biso   1.000  C
  C20      1.0000 0.67890  0.46230  0.88710  Biso   1.000  C
  C21      1.0000 0.08970  0.04090  0.35110  Biso   1.000  C
  C22      1.0000 0.08970  0.95910  0.85110  Biso   1.000  C
  C23      1.0000 0.58970  0.54090  0.35110  Biso   1.000  C
  C24      1.0000 0.58970  0.45910  0.85110  Biso   1.000  C
  C25      1.0000 0.82400  0.16740  0.82240  Biso   1.000  C
  C26      1.0000 0.82400  0.83260  0.32240  Biso   1.000  C
  C27      1.0000 0.32400  0.66740  0.82240  Biso   1.000  C
  C28      1.0000 0.32400  0.33260  0.32240  Biso   1.000  C
  C29      1.0000 0.74790  0.12690  0.84520  Biso   1.000  C
  C30      1.0000 0.74790  0.87310  0.34520  Biso   1.000  C
  C31      1.0000 0.24790  0.62690  0.84520  Biso   1.000  C
  C32      1.0000 0.24790  0.37310  0.34520  Biso   1.000  C
  C33      1.0000 0.66060  0.12880  0.72310  Biso   1.000  C
  C34      1.0000 0.66060  0.87120  0.22310  Biso   1.000  C
  C35      1.0000 0.16060  0.62880  0.72310  Biso   1.000  C
  C36      1.0000 0.16060  0.37120  0.22310  Biso   1.000  C
  C37      1.0000 0.59520  0.08580  0.75030  Biso   1.000  C
  C38      1.0000 0.59520  0.91420  0.25030  Biso   1.000  C
  C39      1.0000 0.09520  0.58580  0.75030  Biso   1.000  C
  C40      1.0000 0.09520  0.41420  0.25030  Biso   1.000  C
  C41      1.0000 0.61810  0.04440  0.90060  Biso   1.000  C
  C42      1.0000 0.61810  0.95560  0.40060  Biso   1.000  C
  C43      1.0000 0.11810  0.54440  0.90060  Biso   1.000  C
  C44      1.0000 0.11810  0.45560  0.40060  Biso   1.000  C
  C45      1.0000 0.70630  0.04420  0.01640  Biso   1.000  C
  C46      1.0000 0.70630  0.95580  0.51640  Biso   1.000  C
  C47      1.0000 0.20630  0.54420  0.01640  Biso   1.000  C
  C48      1.0000 0.20630  0.45580  0.51640  Biso   1.000  C
  C49      1.0000 0.88440  0.27000  0.05560  Biso   1.000  C
  C50      1.0000 0.88440  0.73000  0.55560  Biso   1.000  C
  C51      1.0000 0.38440  0.77000  0.05560  Biso   1.000  C
  C52      1.0000 0.38440  0.23000  0.55560  Biso   1.000  C
  C53      1.0000 0.92950  0.27180  0.24270  Biso   1.000  C
  C54      1.0000 0.92950  0.72820  0.74270  Biso   1.000  C
  C55      1.0000 0.42950  0.77180  0.24270  Biso   1.000  C
  C56      1.0000 0.42950  0.22820  0.74270  Biso   1.000  C
  C57      1.0000 0.92820  0.18170  0.46400  Biso   1.000  C
  C58      1.0000 0.92820  0.81830  0.96400  Biso   1.000  C
  C59      1.0000 0.42820  0.68170  0.46400  Biso   1.000  C
  C60      1.0000 0.42820  0.31830  0.96400  Biso   1.000  C
  C61      1.0000 0.90960  0.08430  0.47850  Biso   1.000  C
  C62      1.0000 0.90960  0.91570  0.97850  Biso   1.000  C
  C63      1.0000 0.40960  0.58430  0.47850  Biso   1.000  C
  C64      1.0000 0.40960  0.41570  0.97850  Biso   1.000  C
  C65      1.0000 0.18270  0.28200  0.78610  Biso   1.000  C
  C66      1.0000 0.18270  0.71800  0.28610  Biso   1.000  C
  C67      1.0000 0.68270  0.78200  0.78610  Biso   1.000  C
  C68      1.0000 0.68270  0.21800  0.28610  Biso   1.000  C
  H1       1.0000 0.00700  0.24410  0.97910  Biso   1.000  H
  H2       1.0000 0.00700  0.75590  0.47910  Biso   1.000  H
  H3       1.0000 0.50700  0.74410  0.97910  Biso   1.000  H
  H4       1.0000 0.50700  0.25590  0.47910  Biso   1.000  H
  H5       1.0000 0.97920  0.15400  0.87590  Biso   1.000  H
  H6       1.0000 0.97920  0.84600  0.37590  Biso   1.000  H
  H7       1.0000 0.47920  0.65400  0.87590  Biso   1.000  H
  H8       1.0000 0.47920  0.34600  0.37590  Biso   1.000  H
  H9       1.0000 0.16570  0.16670  0.08850  Biso   1.000  H
  H10      1.0000 0.16570  0.83330  0.58850  Biso   1.000  H
  H11      1.0000 0.66570  0.66670  0.08850  Biso   1.000  H
  H12      1.0000 0.66570  0.33330  0.58850  Biso   1.000  H
  H13      1.0000 0.26810  0.08130  0.30800  Biso   1.000  H
  H14      1.0000 0.26810  0.91870  0.80800  Biso   1.000  H
  H15      1.0000 0.76810  0.58130  0.30800  Biso   1.000  H
  H16      1.0000 0.76810  0.41870  0.80800  Biso   1.000  H
  H17      1.0000 0.21980  0.00430  0.47890  Biso   1.000  H
  H18      1.0000 0.21980  0.99570  0.97890  Biso   1.000  H
  H19      1.0000 0.71980  0.50430  0.47890  Biso   1.000  H
  H20      1.0000 0.71980  0.49570  0.97890  Biso   1.000  H
  H21      1.0000 0.07010  0.00880  0.41950  Biso   1.000  H
  H22      1.0000 0.07010  0.99120  0.91950  Biso   1.000  H
  H23      1.0000 0.57010  0.50880  0.41950  Biso   1.000  H
  H24      1.0000 0.57010  0.49120  0.91950  Biso   1.000  H
  H25      1.0000 0.84280  0.12690  0.75750  Biso   1.000  H
  H26      1.0000 0.84280  0.87310  0.25750  Biso   1.000  H
  H27      1.0000 0.34280  0.62690  0.75750  Biso   1.000  H
  H28      1.0000 0.34280  0.37310  0.25750  Biso   1.000  H
  H29      1.0000 0.80440  0.22330  0.76000  Biso   1.000  H
  H30      1.0000 0.80440  0.77670  0.26000  Biso   1.000  H
  H31      1.0000 0.30440  0.72330  0.76000  Biso   1.000  H
  H32      1.0000 0.30440  0.27670  0.26000  Biso   1.000  H
  H33      1.0000 0.64560  0.15920  0.62160  Biso   1.000  H
  H34      1.0000 0.64560  0.84080  0.12160  Biso   1.000  H
  H35      1.0000 0.14560  0.65920  0.62160  Biso   1.000  H
  H36      1.0000 0.14560  0.34080  0.12160  Biso   1.000  H
  H37      1.0000 0.53530  0.08490  0.66640  Biso   1.000  H
  H38      1.0000 0.53530  0.91510  0.16640  Biso   1.000  H
  H39      1.0000 0.03530  0.58490  0.66640  Biso   1.000  H
  H40      1.0000 0.03530  0.41510  0.16640  Biso   1.000  H
  H41      1.0000 0.57400  0.01670  0.92360  Biso   1.000  H
  H42      1.0000 0.57400  0.98330  0.42360  Biso   1.000  H
  H43      1.0000 0.07400  0.51670  0.92360  Biso   1.000  H
  H44      1.0000 0.07400  0.48330  0.42360  Biso   1.000  H
  H45      1.0000 0.72230  0.01490  0.11920  Biso   1.000  H
  H46      1.0000 0.72230  0.98510  0.61920  Biso   1.000  H
  H47      1.0000 0.22230  0.51490  0.11920  Biso   1.000  H
  H48      1.0000 0.22230  0.48510  0.61920  Biso   1.000  H
  H49      1.0000 0.90680  0.31940  0.01300  Biso   1.000  H
  H50      1.0000 0.90680  0.68060  0.51300  Biso   1.000  H
  H51      1.0000 0.40680  0.81940  0.01300  Biso   1.000  H
  H52      1.0000 0.40680  0.18060  0.51300  Biso   1.000  H
  H53      1.0000 0.81950  0.27840  0.01560  Biso   1.000  H
  H54      1.0000 0.81950  0.72160  0.51560  Biso   1.000  H
  H55      1.0000 0.31950  0.77840  0.01560  Biso   1.000  H
  H56      1.0000 0.31950  0.22160  0.51560  Biso   1.000  H
  H57      1.0000 0.99450  0.26250  0.28580  Biso   1.000  H
  H58      1.0000 0.99450  0.73750  0.78580  Biso   1.000  H
  H59      1.0000 0.49450  0.76250  0.28580  Biso   1.000  H
  H60      1.0000 0.49450  0.23750  0.78580  Biso   1.000  H
  H61      1.0000 0.91930  0.32890  0.28450  Biso   1.000  H
  H62      1.0000 0.91930  0.67110  0.78450  Biso   1.000  H
  H63      1.0000 0.41930  0.82890  0.28450  Biso   1.000  H
  H64      1.0000 0.41930  0.17110  0.78450  Biso   1.000  H
  H65      1.0000 0.90100  0.21860  0.52010  Biso   1.000  H
  H66      1.0000 0.90100  0.78140  0.02010  Biso   1.000  H
  H67      1.0000 0.40100  0.71860  0.52010  Biso   1.000  H
  H68      1.0000 0.40100  0.28140  0.02010  Biso   1.000  H
  H69      1.0000 0.99320  0.19280  0.51680  Biso   1.000  H
  H70      1.0000 0.99320  0.80720  0.01680  Biso   1.000  H
  H71      1.0000 0.49320  0.69280  0.51680  Biso   1.000  H
  H72      1.0000 0.49320  0.30720  0.01680  Biso   1.000  H
  H73      1.0000 0.22230  0.23100  0.82890  Biso   1.000  H
  H74      1.0000 0.22230  0.76900  0.32890  Biso   1.000  H
  H75      1.0000 0.72230  0.73100  0.82890  Biso   1.000  H
  H76      1.0000 0.72230  0.26900  0.32890  Biso   1.000  H
  H77      1.0000 0.21720  0.33620  0.82810  Biso   1.000  H
  H78      1.0000 0.21720  0.66380  0.32810  Biso   1.000  H
  H79      1.0000 0.71720  0.83620  0.82810  Biso   1.000  H
  H80      1.0000 0.71720  0.16380  0.32810  Biso   1.000  H
  H81      1.0000 0.15550  0.28180  0.66420  Biso   1.000  H
  H82      1.0000 0.15550  0.71820  0.16420  Biso   1.000  H
  H83      1.0000 0.65550  0.78180  0.66420  Biso   1.000  H
  H84      1.0000 0.65550  0.21820  0.16420  Biso   1.000  H
