data_image0
_cell_length_a       11.977
_cell_length_b       8.926
_cell_length_c       17.987
_cell_angle_alpha    90
_cell_angle_beta     90.7567
_cell_angle_gamma    90

_symmetry_space_group_name_H-M    "P 1"
_symmetry_int_tables_number       1

loop_
  _symmetry_equiv_pos_as_xyz
  'x, y, z'

loop_
  _atom_site_label
  _atom_site_occupancy
  _atom_site_fract_x
  _atom_site_fract_y
  _atom_site_fract_z
  _atom_site_thermal_displace_type
  _atom_site_B_iso_or_equiv
  _atom_site_type_symbol
  Cu1      1.0000 0.73567  0.98193  0.68504  Biso   1.000  Cu
  Cu2      1.0000 0.76433  0.48193  0.81496  Biso   1.000  Cu
  Cu3      1.0000 0.26433  0.01807  0.31496  Biso   1.000  Cu
  Cu4      1.0000 0.23567  0.51807  0.18504  Biso   1.000  Cu
  Cl1      1.0000 0.17190  0.06270  0.90146  Biso   1.000  Cl
  Cl2      1.0000 0.32810  0.56270  0.59854  Biso   1.000  Cl
  Cl3      1.0000 0.82810  0.93730  0.09854  Biso   1.000  Cl
  Cl4      1.0000 0.67190  0.43730  0.40146  Biso   1.000  Cl
  O1       1.0000 0.70816  0.81982  0.57812  Biso   1.000  O
  O2       1.0000 0.79184  0.31982  0.92188  Biso   1.000  O
  O3       1.0000 0.29184  0.18018  0.42188  Biso   1.000  O
  O4       1.0000 0.20816  0.68018  0.07812  Biso   1.000  O
  O5       1.0000 0.75395  0.75654  0.71881  Biso   1.000  O
  O6       1.0000 0.74605  0.25654  0.78119  Biso   1.000  O
  O7       1.0000 0.24605  0.24346  0.28119  Biso   1.000  O
  O8       1.0000 0.25395  0.74346  0.21881  Biso   1.000  O
  O9       1.0000 0.71783  0.51510  0.70200  Biso   1.000  O
  O10      1.0000 0.78217  0.01510  0.79800  Biso   1.000  O
  O11      1.0000 0.28217  0.48490  0.29800  Biso   1.000  O
  O12      1.0000 0.21783  0.98490  0.20200  Biso   1.000  O
  O13      1.0000 0.10920  0.04680  0.83389  Biso   1.000  O
  O14      1.0000 0.39080  0.54680  0.66611  Biso   1.000  O
  O15      1.0000 0.89080  0.95320  0.16611  Biso   1.000  O
  O16      1.0000 0.60920  0.45320  0.33389  Biso   1.000  O
  O17      1.0000 0.25710  0.17350  0.89301  Biso   1.000  O
  O18      1.0000 0.24290  0.67350  0.60699  Biso   1.000  O
  O19      1.0000 0.74290  0.82650  0.10699  Biso   1.000  O
  O20      1.0000 0.75710  0.32650  0.39301  Biso   1.000  O
  O21      1.0000 0.10158  0.10480  0.96151  Biso   1.000  O
  O22      1.0000 0.39842  0.60480  0.53849  Biso   1.000  O
  O23      1.0000 0.89842  0.89520  0.03849  Biso   1.000  O
  O24      1.0000 0.60158  0.39520  0.46151  Biso   1.000  O
  O25      1.0000 0.22370  0.92150  0.91839  Biso   1.000  O
  O26      1.0000 0.27630  0.42150  0.58161  Biso   1.000  O
  O27      1.0000 0.77630  0.07850  0.08161  Biso   1.000  O
  O28      1.0000 0.72370  0.57850  0.41839  Biso   1.000  O
  O29      1.0000 0.54360  0.09380  0.92100  Biso   1.000  O
  O30      1.0000 0.95640  0.59380  0.57900  Biso   1.000  O
  O31      1.0000 0.45640  0.90620  0.07900  Biso   1.000  O
  O32      1.0000 0.04360  0.40620  0.42100  Biso   1.000  O
  N1       1.0000 0.69755  0.13554  0.60067  Biso   1.000  N
  N2       1.0000 0.80245  0.63554  0.89933  Biso   1.000  N
  N3       1.0000 0.30245  0.86446  0.39933  Biso   1.000  N
  N4       1.0000 0.19755  0.36446  0.10067  Biso   1.000  N
  N5       1.0000 0.88927  0.02000  0.65218  Biso   1.000  N
  N6       1.0000 0.61073  0.52000  0.84782  Biso   1.000  N
  N7       1.0000 0.11073  0.98000  0.34782  Biso   1.000  N
  N8       1.0000 0.38927  0.48000  0.15218  Biso   1.000  N
  N9       1.0000 0.57294  0.99659  0.70234  Biso   1.000  N
  N10      1.0000 0.92706  0.49659  0.79766  Biso   1.000  N
  N11      1.0000 0.42706  0.00341  0.29766  Biso   1.000  N
  N12      1.0000 0.07294  0.50341  0.20234  Biso   1.000  N
  C1       1.0000 0.79690  0.23480  0.59690  Biso   1.000  C
  C2       1.0000 0.70310  0.73480  0.90310  Biso   1.000  C
  C3       1.0000 0.20310  0.76520  0.40310  Biso   1.000  C
  C4       1.0000 0.29690  0.26520  0.09690  Biso   1.000  C
  C5       1.0000 0.90144  0.14250  0.60932  Biso   1.000  C
  C6       1.0000 0.59856  0.64250  0.89068  Biso   1.000  C
  C7       1.0000 0.09856  0.85750  0.39068  Biso   1.000  C
  C8       1.0000 0.40144  0.35750  0.10932  Biso   1.000  C
  C9       1.0000 0.00430  0.18410  0.58276  Biso   1.000  C
  C10      1.0000 0.49570  0.68410  0.91724  Biso   1.000  C
  C11      1.0000 0.99570  0.81590  0.41724  Biso   1.000  C
  C12      1.0000 0.50430  0.31590  0.08276  Biso   1.000  C
  C13      1.0000 0.09670  0.09800  0.60015  Biso   1.000  C
  C14      1.0000 0.40330  0.59800  0.89985  Biso   1.000  C
  C15      1.0000 0.90330  0.90200  0.39985  Biso   1.000  C
  C16      1.0000 0.59670  0.40200  0.10015  Biso   1.000  C
  C17      1.0000 0.08360  0.97040  0.64250  Biso   1.000  C
  C18      1.0000 0.41640  0.47040  0.85750  Biso   1.000  C
  C19      1.0000 0.91640  0.02960  0.35750  Biso   1.000  C
  C20      1.0000 0.58360  0.52960  0.14250  Biso   1.000  C
  C21      1.0000 0.97960  0.93510  0.66808  Biso   1.000  C
  C22      1.0000 0.52040  0.43510  0.83192  Biso   1.000  C
  C23      1.0000 0.02040  0.06490  0.33192  Biso   1.000  C
  C24      1.0000 0.47960  0.56490  0.16808  Biso   1.000  C
  C25      1.0000 0.59614  0.21650  0.62483  Biso   1.000  C
  C26      1.0000 0.90386  0.71650  0.87517  Biso   1.000  C
  C27      1.0000 0.40386  0.78350  0.37517  Biso   1.000  C
  C28      1.0000 0.09614  0.28350  0.12483  Biso   1.000  C
  C29      1.0000 0.52328  0.11740  0.67108  Biso   1.000  C
  C30      1.0000 0.97672  0.61740  0.82892  Biso   1.000  C
  C31      1.0000 0.47672  0.88260  0.32892  Biso   1.000  C
  C32      1.0000 0.02328  0.38260  0.17108  Biso   1.000  C
  C33      1.0000 0.41210  0.15090  0.68412  Biso   1.000  C
  C34      1.0000 0.08790  0.65090  0.81588  Biso   1.000  C
  C35      1.0000 0.58790  0.84910  0.31588  Biso   1.000  C
  C36      1.0000 0.91210  0.34910  0.18412  Biso   1.000  C
  C37      1.0000 0.35090  0.05880  0.72944  Biso   1.000  C
  C38      1.0000 0.14910  0.55880  0.77056  Biso   1.000  C
  C39      1.0000 0.64910  0.94120  0.27056  Biso   1.000  C
  C40      1.0000 0.85090  0.44120  0.22944  Biso   1.000  C
  C41      1.0000 0.40080  0.93230  0.75949  Biso   1.000  C
  C42      1.0000 0.09920  0.43230  0.74051  Biso   1.000  C
  C43      1.0000 0.59920  0.06770  0.24051  Biso   1.000  C
  C44      1.0000 0.90080  0.56770  0.25949  Biso   1.000  C
  C45      1.0000 0.51160  0.90510  0.74490  Biso   1.000  C
  C46      1.0000 0.98840  0.40510  0.75510  Biso   1.000  C
  C47      1.0000 0.48840  0.09490  0.25510  Biso   1.000  C
  C48      1.0000 0.01160  0.59490  0.24490  Biso   1.000  C
  C49      1.0000 0.68130  0.05750  0.52774  Biso   1.000  C
  C50      1.0000 0.81870  0.55750  0.97226  Biso   1.000  C
  C51      1.0000 0.31870  0.94250  0.47226  Biso   1.000  C
  C52      1.0000 0.18130  0.44250  0.02774  Biso   1.000  C
  C53      1.0000 0.63150  0.90340  0.53439  Biso   1.000  C
  C54      1.0000 0.86850  0.40340  0.96561  Biso   1.000  C
  C55      1.0000 0.36850  0.09660  0.46561  Biso   1.000  C
  C56      1.0000 0.13150  0.59660  0.03439  Biso   1.000  C
  C57      1.0000 0.67030  0.67740  0.60346  Biso   1.000  C
  C58      1.0000 0.82970  0.17740  0.89654  Biso   1.000  C
  C59      1.0000 0.32970  0.32260  0.39654  Biso   1.000  C
  C60      1.0000 0.17030  0.82260  0.10346  Biso   1.000  C
  C61      1.0000 0.71917  0.64880  0.68016  Biso   1.000  C
  C62      1.0000 0.78083  0.14880  0.81984  Biso   1.000  C
  C63      1.0000 0.28083  0.35120  0.31984  Biso   1.000  C
  C64      1.0000 0.21917  0.85120  0.18016  Biso   1.000  C
  C65      1.0000 0.45620  0.03470  0.96920  Biso   1.000  C
  C66      1.0000 0.04380  0.53470  0.53080  Biso   1.000  C
  C67      1.0000 0.54380  0.96530  0.03080  Biso   1.000  C
  C68      1.0000 0.95620  0.46530  0.46920  Biso   1.000  C
  H1       1.0000 0.79600  0.28700  0.55140  Biso   1.000  H
  H2       1.0000 0.70400  0.78700  0.94860  Biso   1.000  H
  H3       1.0000 0.20400  0.71300  0.44860  Biso   1.000  H
  H4       1.0000 0.29600  0.21300  0.05140  Biso   1.000  H
  H5       1.0000 0.79190  0.30700  0.63740  Biso   1.000  H
  H6       1.0000 0.70810  0.80700  0.86260  Biso   1.000  H
  H7       1.0000 0.20810  0.69300  0.36260  Biso   1.000  H
  H8       1.0000 0.29190  0.19300  0.13740  Biso   1.000  H
  H9       1.0000 0.00800  0.26600  0.55100  Biso   1.000  H
  H10      1.0000 0.49200  0.76600  0.94900  Biso   1.000  H
  H11      1.0000 0.99200  0.73400  0.44900  Biso   1.000  H
  H12      1.0000 0.50800  0.23400  0.05100  Biso   1.000  H
  H13      1.0000 0.16700  0.12600  0.58360  Biso   1.000  H
  H14      1.0000 0.33300  0.62600  0.91640  Biso   1.000  H
  H15      1.0000 0.83300  0.87400  0.41640  Biso   1.000  H
  H16      1.0000 0.66700  0.37400  0.08360  Biso   1.000  H
  H17      1.0000 0.14900  0.90700  0.65370  Biso   1.000  H
  H18      1.0000 0.35100  0.40700  0.84630  Biso   1.000  H
  H19      1.0000 0.85100  0.09300  0.34630  Biso   1.000  H
  H20      1.0000 0.64900  0.59300  0.15370  Biso   1.000  H
  H21      1.0000 0.96300  0.84600  0.69560  Biso   1.000  H
  H22      1.0000 0.53700  0.34600  0.80440  Biso   1.000  H
  H23      1.0000 0.03700  0.15400  0.30440  Biso   1.000  H
  H24      1.0000 0.46300  0.65400  0.19560  Biso   1.000  H
  H25      1.0000 0.55300  0.25500  0.58020  Biso   1.000  H
  H26      1.0000 0.94700  0.75500  0.91980  Biso   1.000  H
  H27      1.0000 0.44700  0.74500  0.41980  Biso   1.000  H
  H28      1.0000 0.05300  0.24500  0.08020  Biso   1.000  H
  H29      1.0000 0.61800  0.29400  0.65520  Biso   1.000  H
  H30      1.0000 0.88200  0.79400  0.84480  Biso   1.000  H
  H31      1.0000 0.38200  0.70600  0.34480  Biso   1.000  H
  H32      1.0000 0.11800  0.20600  0.15520  Biso   1.000  H
  H33      1.0000 0.38300  0.23200  0.66040  Biso   1.000  H
  H34      1.0000 0.11700  0.73200  0.83960  Biso   1.000  H
  H35      1.0000 0.61700  0.76800  0.33960  Biso   1.000  H
  H36      1.0000 0.88300  0.26800  0.16040  Biso   1.000  H
  H37      1.0000 0.28100  0.08000  0.73920  Biso   1.000  H
  H38      1.0000 0.21900  0.58000  0.76080  Biso   1.000  H
  H39      1.0000 0.71900  0.92000  0.26080  Biso   1.000  H
  H40      1.0000 0.78100  0.42000  0.23920  Biso   1.000  H
  H41      1.0000 0.36200  0.86800  0.78830  Biso   1.000  H
  H42      1.0000 0.13800  0.36800  0.71170  Biso   1.000  H
  H43      1.0000 0.63800  0.13200  0.21170  Biso   1.000  H
  H44      1.0000 0.86200  0.63200  0.28830  Biso   1.000  H
  H45      1.0000 0.54700  0.82500  0.76340  Biso   1.000  H
  H46      1.0000 0.95300  0.32500  0.73660  Biso   1.000  H
  H47      1.0000 0.45300  0.17500  0.23660  Biso   1.000  H
  H48      1.0000 0.04700  0.67500  0.26340  Biso   1.000  H
  H49      1.0000 0.63300  0.12300  0.49430  Biso   1.000  H
  H50      1.0000 0.86700  0.62300  0.00570  Biso   1.000  H
  H51      1.0000 0.36700  0.87700  0.50570  Biso   1.000  H
  H52      1.0000 0.13300  0.37700  0.99430  Biso   1.000  H
  H53      1.0000 0.75200  0.05300  0.50630  Biso   1.000  H
  H54      1.0000 0.74800  0.55300  0.99370  Biso   1.000  H
  H55      1.0000 0.24800  0.94700  0.49370  Biso   1.000  H
  H56      1.0000 0.25200  0.44700  0.00630  Biso   1.000  H
  H57      1.0000 0.61900  0.86300  0.48720  Biso   1.000  H
  H58      1.0000 0.88100  0.36300  0.01280  Biso   1.000  H
  H59      1.0000 0.38100  0.13700  0.51280  Biso   1.000  H
  H60      1.0000 0.11900  0.63700  0.98720  Biso   1.000  H
  H61      1.0000 0.55600  0.90400  0.55870  Biso   1.000  H
  H62      1.0000 0.94400  0.40400  0.94130  Biso   1.000  H
  H63      1.0000 0.44400  0.09600  0.44130  Biso   1.000  H
  H64      1.0000 0.05600  0.59600  0.05870  Biso   1.000  H
  H65      1.0000 0.58300  0.67400  0.60560  Biso   1.000  H
  H66      1.0000 0.91700  0.17400  0.89440  Biso   1.000  H
  H67      1.0000 0.41700  0.32600  0.39440  Biso   1.000  H
  H68      1.0000 0.08300  0.82600  0.10560  Biso   1.000  H
  H69      1.0000 0.70100  0.60500  0.57100  Biso   1.000  H
  H70      1.0000 0.79900  0.10500  0.92900  Biso   1.000  H
  H71      1.0000 0.29900  0.39500  0.42900  Biso   1.000  H
  H72      1.0000 0.20100  0.89500  0.07100  Biso   1.000  H
