data_image0
_cell_length_a       24.6
_cell_length_b       33.412
_cell_length_c       18.478
_cell_angle_alpha    90
_cell_angle_beta     90
_cell_angle_gamma    90

_symmetry_space_group_name_H-M    "P 1"
_symmetry_int_tables_number       1

loop_
  _symmetry_equiv_pos_as_xyz
  'x, y, z'

loop_
  _atom_site_label
  _atom_site_occupancy
  _atom_site_fract_x
  _atom_site_fract_y
  _atom_site_fract_z
  _atom_site_thermal_displace_type
  _atom_site_B_iso_or_equiv
  _atom_site_type_symbol
  Cu1      1.0000 0.00000  0.06040  0.01468  Biso   1.000  Cu
  Cu2      1.0000 0.00000  0.93960  0.51468  Biso   1.000  Cu
  Cu3      1.0000 0.50000  0.56040  0.01468  Biso   1.000  Cu
  Cu4      1.0000 0.50000  0.43960  0.51468  Biso   1.000  Cu
  Cu5      1.0000 0.20107  0.26035  0.25222  Biso   1.000  Cu
  Cu6      1.0000 0.79893  0.73965  0.75222  Biso   1.000  Cu
  Cu7      1.0000 0.79893  0.26035  0.25222  Biso   1.000  Cu
  Cu8      1.0000 0.20107  0.73965  0.75222  Biso   1.000  Cu
  Cu9      1.0000 0.70107  0.76035  0.25222  Biso   1.000  Cu
  Cu10     1.0000 0.29893  0.23965  0.75222  Biso   1.000  Cu
  Cu11     1.0000 0.29893  0.76035  0.25222  Biso   1.000  Cu
  Cu12     1.0000 0.70107  0.23965  0.75222  Biso   1.000  Cu
  Cu13     1.0000 0.00000  0.13934  0.02380  Biso   1.000  Cu
  Cu14     1.0000 0.00000  0.86066  0.52380  Biso   1.000  Cu
  Cu15     1.0000 0.50000  0.63934  0.02380  Biso   1.000  Cu
  Cu16     1.0000 0.50000  0.36066  0.52380  Biso   1.000  Cu
  Cu17     1.0000 0.28134  0.22551  0.32528  Biso   1.000  Cu
  Cu18     1.0000 0.71866  0.77448  0.82528  Biso   1.000  Cu
  Cu19     1.0000 0.71866  0.22551  0.32528  Biso   1.000  Cu
  Cu20     1.0000 0.28134  0.77448  0.82528  Biso   1.000  Cu
  Cu21     1.0000 0.78134  0.72552  0.32528  Biso   1.000  Cu
  Cu22     1.0000 0.21866  0.27448  0.82528  Biso   1.000  Cu
  Cu23     1.0000 0.21866  0.72552  0.32528  Biso   1.000  Cu
  Cu24     1.0000 0.78134  0.27448  0.82528  Biso   1.000  Cu
  O1       1.0000 0.05687  0.06285  0.09200  Biso   1.000  O
  O2       1.0000 0.94313  0.93715  0.59200  Biso   1.000  O
  O3       1.0000 0.94313  0.06285  0.09200  Biso   1.000  O
  O4       1.0000 0.05687  0.93715  0.59200  Biso   1.000  O
  O5       1.0000 0.55687  0.56285  0.09200  Biso   1.000  O
  O6       1.0000 0.44313  0.43715  0.59200  Biso   1.000  O
  O7       1.0000 0.44313  0.56285  0.09200  Biso   1.000  O
  O8       1.0000 0.55687  0.43715  0.59200  Biso   1.000  O
  O9       1.0000 0.05469  0.12988  0.09810  Biso   1.000  O
  O10      1.0000 0.94531  0.87012  0.59810  Biso   1.000  O
  O11      1.0000 0.94531  0.12988  0.09810  Biso   1.000  O
  O12      1.0000 0.05469  0.87012  0.59810  Biso   1.000  O
  O13      1.0000 0.55469  0.62988  0.09810  Biso   1.000  O
  O14      1.0000 0.44531  0.37012  0.59810  Biso   1.000  O
  O15      1.0000 0.44531  0.62988  0.09810  Biso   1.000  O
  O16      1.0000 0.55469  0.37012  0.59810  Biso   1.000  O
  O17      1.0000 0.17413  0.20613  0.24310  Biso   1.000  O
  O18      1.0000 0.82587  0.79387  0.74310  Biso   1.000  O
  O19      1.0000 0.82587  0.20613  0.24310  Biso   1.000  O
  O20      1.0000 0.17413  0.79387  0.74310  Biso   1.000  O
  O21      1.0000 0.67413  0.70613  0.24310  Biso   1.000  O
  O22      1.0000 0.32587  0.29387  0.74310  Biso   1.000  O
  O23      1.0000 0.32587  0.70613  0.24310  Biso   1.000  O
  O24      1.0000 0.67413  0.29387  0.74310  Biso   1.000  O
  O25      1.0000 0.24243  0.17689  0.30400  Biso   1.000  O
  O26      1.0000 0.75757  0.82311  0.80400  Biso   1.000  O
  O27      1.0000 0.75757  0.17689  0.30400  Biso   1.000  O
  O28      1.0000 0.24243  0.82311  0.80400  Biso   1.000  O
  O29      1.0000 0.74243  0.67689  0.30400  Biso   1.000  O
  O30      1.0000 0.25757  0.32311  0.80400  Biso   1.000  O
  O31      1.0000 0.25757  0.67689  0.30400  Biso   1.000  O
  O32      1.0000 0.74243  0.32311  0.80400  Biso   1.000  O
  O33      1.0000 0.25732  0.80896  0.27320  Biso   1.000  O
  O34      1.0000 0.74268  0.19104  0.77320  Biso   1.000  O
  O35      1.0000 0.74268  0.80896  0.27320  Biso   1.000  O
  O36      1.0000 0.25732  0.19104  0.77320  Biso   1.000  O
  O37      1.0000 0.75732  0.30896  0.27320  Biso   1.000  O
  O38      1.0000 0.24268  0.69104  0.77320  Biso   1.000  O
  O39      1.0000 0.24268  0.30896  0.27320  Biso   1.000  O
  O40      1.0000 0.75732  0.69104  0.77320  Biso   1.000  O
  O41      1.0000 0.19024  0.78042  0.33500  Biso   1.000  O
  O42      1.0000 0.80976  0.21958  0.83500  Biso   1.000  O
  O43      1.0000 0.80976  0.78042  0.33500  Biso   1.000  O
  O44      1.0000 0.19024  0.21958  0.83500  Biso   1.000  O
  O45      1.0000 0.69024  0.28042  0.33500  Biso   1.000  O
  O46      1.0000 0.30976  0.71958  0.83500  Biso   1.000  O
  O47      1.0000 0.30976  0.28042  0.33500  Biso   1.000  O
  O48      1.0000 0.69024  0.71958  0.83500  Biso   1.000  O
  O49      1.0000 0.05484  0.86278  0.45280  Biso   1.000  O
  O50      1.0000 0.94516  0.13722  0.95280  Biso   1.000  O
  O51      1.0000 0.94516  0.86278  0.45280  Biso   1.000  O
  O52      1.0000 0.05484  0.13722  0.95280  Biso   1.000  O
  O53      1.0000 0.55484  0.36278  0.45280  Biso   1.000  O
  O54      1.0000 0.44516  0.63722  0.95280  Biso   1.000  O
  O55      1.0000 0.44516  0.36278  0.45280  Biso   1.000  O
  O56      1.0000 0.55484  0.63722  0.95280  Biso   1.000  O
  O57      1.0000 0.05688  0.92849  0.44100  Biso   1.000  O
  O58      1.0000 0.94312  0.07151  0.94100  Biso   1.000  O
  O59      1.0000 0.94312  0.92849  0.44100  Biso   1.000  O
  O60      1.0000 0.05688  0.07151  0.94100  Biso   1.000  O
  O61      1.0000 0.55688  0.42849  0.44100  Biso   1.000  O
  O62      1.0000 0.44312  0.57151  0.94100  Biso   1.000  O
  O63      1.0000 0.44312  0.42849  0.44100  Biso   1.000  O
  O64      1.0000 0.55688  0.57151  0.94100  Biso   1.000  O
  O65      1.0000 0.31517  0.22113  0.22940  Biso   1.000  O
  O66      1.0000 0.68483  0.77887  0.72940  Biso   1.000  O
  O67      1.0000 0.68483  0.22113  0.22940  Biso   1.000  O
  O68      1.0000 0.31517  0.77887  0.72940  Biso   1.000  O
  O69      1.0000 0.81517  0.72113  0.22940  Biso   1.000  O
  O70      1.0000 0.18483  0.27887  0.72940  Biso   1.000  O
  O71      1.0000 0.18483  0.72113  0.22940  Biso   1.000  O
  O72      1.0000 0.81517  0.27887  0.72940  Biso   1.000  O
  O73      1.0000 0.24767  0.24989  0.16690  Biso   1.000  O
  O74      1.0000 0.75233  0.75011  0.66690  Biso   1.000  O
  O75      1.0000 0.75233  0.24989  0.16690  Biso   1.000  O
  O76      1.0000 0.24767  0.75011  0.66690  Biso   1.000  O
  O77      1.0000 0.74767  0.74989  0.16690  Biso   1.000  O
  O78      1.0000 0.25233  0.25011  0.66690  Biso   1.000  O
  O79      1.0000 0.25233  0.74989  0.16690  Biso   1.000  O
  O80      1.0000 0.74767  0.25011  0.66690  Biso   1.000  O
  O81      1.0000 0.26347  0.26438  0.90950  Biso   1.000  O
  O82      1.0000 0.73653  0.73562  0.40950  Biso   1.000  O
  O83      1.0000 0.73653  0.26438  0.90950  Biso   1.000  O
  O84      1.0000 0.26347  0.73562  0.40950  Biso   1.000  O
  O85      1.0000 0.76347  0.76438  0.90950  Biso   1.000  O
  O86      1.0000 0.23653  0.23562  0.40950  Biso   1.000  O
  O87      1.0000 0.23653  0.76438  0.90950  Biso   1.000  O
  O88      1.0000 0.76347  0.23562  0.40950  Biso   1.000  O
  O89      1.0000 0.33268  0.23416  0.84830  Biso   1.000  O
  O90      1.0000 0.66732  0.76584  0.34830  Biso   1.000  O
  O91      1.0000 0.66732  0.23416  0.84830  Biso   1.000  O
  O92      1.0000 0.33268  0.76584  0.34830  Biso   1.000  O
  O93      1.0000 0.83268  0.73416  0.84830  Biso   1.000  O
  O94      1.0000 0.16732  0.26584  0.34830  Biso   1.000  O
  O95      1.0000 0.16732  0.73416  0.84830  Biso   1.000  O
  O96      1.0000 0.83268  0.26584  0.34830  Biso   1.000  O
  O97      1.0000 0.00000  0.99675  0.00150  Biso   1.000  O
  O98      1.0000 0.00000  0.00325  0.50150  Biso   1.000  O
  O99      1.0000 0.50000  0.49675  0.00150  Biso   1.000  O
  O100     1.0000 0.50000  0.50325  0.50150  Biso   1.000  O
  O101     1.0000 0.13757  0.29212  0.19970  Biso   1.000  O
  O102     1.0000 0.86243  0.70788  0.69970  Biso   1.000  O
  O103     1.0000 0.86243  0.29212  0.19970  Biso   1.000  O
  O104     1.0000 0.13757  0.70788  0.69970  Biso   1.000  O
  O105     1.0000 0.63757  0.79212  0.19970  Biso   1.000  O
  O106     1.0000 0.36243  0.20788  0.69970  Biso   1.000  O
  O107     1.0000 0.36243  0.79212  0.19970  Biso   1.000  O
  O108     1.0000 0.63757  0.20788  0.69970  Biso   1.000  O
  O109     1.0000 0.34504  0.19241  0.37520  Biso   1.000  O
  O110     1.0000 0.65496  0.80759  0.87520  Biso   1.000  O
  O111     1.0000 0.65496  0.19241  0.37520  Biso   1.000  O
  O112     1.0000 0.34504  0.80759  0.87520  Biso   1.000  O
  O113     1.0000 0.84504  0.69241  0.37520  Biso   1.000  O
  O114     1.0000 0.15496  0.30759  0.87520  Biso   1.000  O
  O115     1.0000 0.15496  0.69241  0.37520  Biso   1.000  O
  O116     1.0000 0.84504  0.30759  0.87520  Biso   1.000  O
  N1       1.0000 0.36636  0.99539  0.26160  Biso   1.000  N
  N2       1.0000 0.63364  0.00461  0.76160  Biso   1.000  N
  N3       1.0000 0.63364  0.99539  0.26160  Biso   1.000  N
  N4       1.0000 0.36636  0.00461  0.76160  Biso   1.000  N
  N5       1.0000 0.86636  0.49539  0.26160  Biso   1.000  N
  N6       1.0000 0.13364  0.50461  0.76160  Biso   1.000  N
  N7       1.0000 0.13364  0.49539  0.26160  Biso   1.000  N
  N8       1.0000 0.86636  0.50461  0.76160  Biso   1.000  N
  H1       1.0000 0.37650  0.99760  0.30760  Biso   1.000  H
  H2       1.0000 0.62350  0.00240  0.80760  Biso   1.000  H
  H3       1.0000 0.62350  0.99760  0.30760  Biso   1.000  H
  H4       1.0000 0.37650  0.00240  0.80760  Biso   1.000  H
  H5       1.0000 0.87650  0.49760  0.30760  Biso   1.000  H
  H6       1.0000 0.12350  0.50240  0.80760  Biso   1.000  H
  H7       1.0000 0.12350  0.49760  0.30760  Biso   1.000  H
  H8       1.0000 0.87650  0.50240  0.80760  Biso   1.000  H
  H9       1.0000 0.37990  0.97290  0.24300  Biso   1.000  H
  H10      1.0000 0.62010  0.02710  0.74300  Biso   1.000  H
  H11      1.0000 0.62010  0.97290  0.24300  Biso   1.000  H
  H12      1.0000 0.37990  0.02710  0.74300  Biso   1.000  H
  H13      1.0000 0.87990  0.47290  0.24300  Biso   1.000  H
  H14      1.0000 0.12010  0.52710  0.74300  Biso   1.000  H
  H15      1.0000 0.12010  0.47290  0.24300  Biso   1.000  H
  H16      1.0000 0.87990  0.52710  0.74300  Biso   1.000  H
  N9       1.0000 0.50000  0.08160  0.13240  Biso   1.000  N
  N10      1.0000 0.50000  0.91840  0.63240  Biso   1.000  N
  N11      1.0000 0.00000  0.58160  0.13240  Biso   1.000  N
  N12      1.0000 0.00000  0.41840  0.63240  Biso   1.000  N
  H17      1.0000 0.46700  0.07080  0.12910  Biso   1.000  H
  H18      1.0000 0.53300  0.92920  0.62910  Biso   1.000  H
  H19      1.0000 0.53300  0.07080  0.12910  Biso   1.000  H
  H20      1.0000 0.46700  0.92920  0.62910  Biso   1.000  H
  H21      1.0000 0.96700  0.57080  0.12910  Biso   1.000  H
  H22      1.0000 0.03300  0.42920  0.62910  Biso   1.000  H
  H23      1.0000 0.03300  0.57080  0.12910  Biso   1.000  H
  H24      1.0000 0.96700  0.42920  0.62910  Biso   1.000  H
  O117     1.0000 0.00000  0.20322  0.03790  Biso   1.000  O
  O118     1.0000 0.00000  0.79678  0.53790  Biso   1.000  O
  O119     1.0000 0.50000  0.70322  0.03790  Biso   1.000  O
  O120     1.0000 0.50000  0.29678  0.53790  Biso   1.000  O
  C1       1.0000 0.11740  0.09650  0.16780  Biso   1.000  C
  C2       1.0000 0.88260  0.90350  0.66780  Biso   1.000  C
  C3       1.0000 0.88260  0.09650  0.16780  Biso   1.000  C
  C4       1.0000 0.11740  0.90350  0.66780  Biso   1.000  C
  C5       1.0000 0.61740  0.59650  0.16780  Biso   1.000  C
  C6       1.0000 0.38260  0.40350  0.66780  Biso   1.000  C
  C7       1.0000 0.38260  0.59650  0.16780  Biso   1.000  C
  C8       1.0000 0.61740  0.40350  0.66780  Biso   1.000  C
  C9       1.0000 0.13420  0.13280  0.19570  Biso   1.000  C
  C10      1.0000 0.86580  0.86720  0.69570  Biso   1.000  C
  C11      1.0000 0.86580  0.13280  0.19570  Biso   1.000  C
  C12      1.0000 0.13420  0.86720  0.69570  Biso   1.000  C
  C13      1.0000 0.63420  0.63280  0.19570  Biso   1.000  C
  C14      1.0000 0.36580  0.36720  0.69570  Biso   1.000  C
  C15      1.0000 0.36580  0.63280  0.19570  Biso   1.000  C
  C16      1.0000 0.63420  0.36720  0.69570  Biso   1.000  C
  H25      1.0000 0.11400  0.15580  0.18640  Biso   1.000  H
  H26      1.0000 0.88600  0.84420  0.68640  Biso   1.000  H
  H27      1.0000 0.88600  0.15580  0.18640  Biso   1.000  H
  H28      1.0000 0.11400  0.84420  0.68640  Biso   1.000  H
  H29      1.0000 0.61400  0.65580  0.18640  Biso   1.000  H
  H30      1.0000 0.38600  0.34420  0.68640  Biso   1.000  H
  H31      1.0000 0.38600  0.65580  0.18640  Biso   1.000  H
  H32      1.0000 0.61400  0.34420  0.68640  Biso   1.000  H
  C17      1.0000 0.18200  0.13536  0.23840  Biso   1.000  C
  C18      1.0000 0.81800  0.86464  0.73840  Biso   1.000  C
  C19      1.0000 0.81800  0.13536  0.23840  Biso   1.000  C
  C20      1.0000 0.18200  0.86464  0.73840  Biso   1.000  C
  C21      1.0000 0.68200  0.63536  0.23840  Biso   1.000  C
  C22      1.0000 0.31800  0.36464  0.73840  Biso   1.000  C
  C23      1.0000 0.31800  0.63536  0.23840  Biso   1.000  C
  C24      1.0000 0.68200  0.36464  0.73840  Biso   1.000  C
  C25      1.0000 0.20870  0.10161  0.25620  Biso   1.000  C
  C26      1.0000 0.79130  0.89839  0.75620  Biso   1.000  C
  C27      1.0000 0.79130  0.10161  0.25620  Biso   1.000  C
  C28      1.0000 0.20870  0.89839  0.75620  Biso   1.000  C
  C29      1.0000 0.70870  0.60161  0.25620  Biso   1.000  C
  C30      1.0000 0.29130  0.39839  0.75620  Biso   1.000  C
  C31      1.0000 0.29130  0.60161  0.25620  Biso   1.000  C
  C32      1.0000 0.70870  0.39839  0.75620  Biso   1.000  C
  H33      1.0000 0.23830  0.10300  0.28730  Biso   1.000  H
  H34      1.0000 0.76170  0.89700  0.78730  Biso   1.000  H
  H35      1.0000 0.76170  0.10300  0.28730  Biso   1.000  H
  H36      1.0000 0.23830  0.89700  0.78730  Biso   1.000  H
  H37      1.0000 0.73830  0.60300  0.28730  Biso   1.000  H
  H38      1.0000 0.26170  0.39700  0.78730  Biso   1.000  H
  H39      1.0000 0.26170  0.60300  0.28730  Biso   1.000  H
  H40      1.0000 0.73830  0.39700  0.78730  Biso   1.000  H
  C33      1.0000 0.19250  0.06459  0.22880  Biso   1.000  C
  C34      1.0000 0.80750  0.93541  0.72880  Biso   1.000  C
  C35      1.0000 0.80750  0.06459  0.22880  Biso   1.000  C
  C36      1.0000 0.19250  0.93541  0.72880  Biso   1.000  C
  C37      1.0000 0.69250  0.56459  0.22880  Biso   1.000  C
  C38      1.0000 0.30750  0.43541  0.72880  Biso   1.000  C
  C39      1.0000 0.30750  0.56459  0.22880  Biso   1.000  C
  C40      1.0000 0.69250  0.43541  0.72880  Biso   1.000  C
  C41      1.0000 0.14700  0.06252  0.18470  Biso   1.000  C
  C42      1.0000 0.85300  0.93748  0.68470  Biso   1.000  C
  C43      1.0000 0.85300  0.06252  0.18470  Biso   1.000  C
  C44      1.0000 0.14700  0.93748  0.68470  Biso   1.000  C
  C45      1.0000 0.64700  0.56252  0.18470  Biso   1.000  C
  C46      1.0000 0.35300  0.43748  0.68470  Biso   1.000  C
  C47      1.0000 0.35300  0.56252  0.18470  Biso   1.000  C
  C48      1.0000 0.64700  0.43748  0.68470  Biso   1.000  C
  H41      1.0000 0.13610  0.03790  0.16630  Biso   1.000  H
  H42      1.0000 0.86390  0.96210  0.66630  Biso   1.000  H
  H43      1.0000 0.86390  0.03790  0.16630  Biso   1.000  H
  H44      1.0000 0.13610  0.96210  0.66630  Biso   1.000  H
  H45      1.0000 0.63610  0.53790  0.16630  Biso   1.000  H
  H46      1.0000 0.36390  0.46210  0.66630  Biso   1.000  H
  H47      1.0000 0.36390  0.53790  0.16630  Biso   1.000  H
  H48      1.0000 0.63610  0.46210  0.66630  Biso   1.000  H
  C49      1.0000 0.07430  0.09568  0.11600  Biso   1.000  C
  C50      1.0000 0.92570  0.90432  0.61600  Biso   1.000  C
  C51      1.0000 0.92570  0.09568  0.11600  Biso   1.000  C
  C52      1.0000 0.07430  0.90432  0.61600  Biso   1.000  C
  C53      1.0000 0.57430  0.59568  0.11600  Biso   1.000  C
  C54      1.0000 0.42570  0.40432  0.61600  Biso   1.000  C
  C55      1.0000 0.42570  0.59568  0.11600  Biso   1.000  C
  C56      1.0000 0.57430  0.40432  0.61600  Biso   1.000  C
  C57      1.0000 0.20130  0.17660  0.26760  Biso   1.000  C
  C58      1.0000 0.79870  0.82340  0.76760  Biso   1.000  C
  C59      1.0000 0.79870  0.17660  0.26760  Biso   1.000  C
  C60      1.0000 0.20130  0.82340  0.76760  Biso   1.000  C
  C61      1.0000 0.70130  0.67660  0.26760  Biso   1.000  C
  C62      1.0000 0.29870  0.32340  0.76760  Biso   1.000  C
  C63      1.0000 0.29870  0.67660  0.26760  Biso   1.000  C
  C64      1.0000 0.70130  0.32340  0.76760  Biso   1.000  C
  C65      1.0000 0.22373  0.02736  0.24910  Biso   1.000  C
  C66      1.0000 0.77627  0.97264  0.74910  Biso   1.000  C
  C67      1.0000 0.77627  0.02736  0.24910  Biso   1.000  C
  C68      1.0000 0.22373  0.97264  0.74910  Biso   1.000  C
  C69      1.0000 0.72373  0.52736  0.24910  Biso   1.000  C
  C70      1.0000 0.27627  0.47264  0.74910  Biso   1.000  C
  C71      1.0000 0.27627  0.52736  0.24910  Biso   1.000  C
  C72      1.0000 0.72373  0.47264  0.74910  Biso   1.000  C
  C73      1.0000 0.28150  0.02777  0.24410  Biso   1.000  C
  C74      1.0000 0.71850  0.97223  0.74410  Biso   1.000  C
  C75      1.0000 0.71850  0.02777  0.24410  Biso   1.000  C
  C76      1.0000 0.28150  0.97223  0.74410  Biso   1.000  C
  C77      1.0000 0.78150  0.52777  0.24410  Biso   1.000  C
  C78      1.0000 0.21850  0.47223  0.74410  Biso   1.000  C
  C79      1.0000 0.21850  0.52777  0.24410  Biso   1.000  C
  C80      1.0000 0.78150  0.47223  0.74410  Biso   1.000  C
  H49      1.0000 0.30000  0.05100  0.23150  Biso   1.000  H
  H50      1.0000 0.70000  0.94900  0.73150  Biso   1.000  H
  H51      1.0000 0.70000  0.05100  0.23150  Biso   1.000  H
  H52      1.0000 0.30000  0.94900  0.73150  Biso   1.000  H
  H53      1.0000 0.80000  0.55100  0.23150  Biso   1.000  H
  H54      1.0000 0.20000  0.44900  0.73150  Biso   1.000  H
  H55      1.0000 0.20000  0.55100  0.23150  Biso   1.000  H
  H56      1.0000 0.80000  0.44900  0.73150  Biso   1.000  H
  C81      1.0000 0.30860  0.99388  0.25800  Biso   1.000  C
  C82      1.0000 0.69140  0.00612  0.75800  Biso   1.000  C
  C83      1.0000 0.69140  0.99388  0.25800  Biso   1.000  C
  C84      1.0000 0.30860  0.00612  0.75800  Biso   1.000  C
  C85      1.0000 0.80860  0.49388  0.25800  Biso   1.000  C
  C86      1.0000 0.19140  0.50612  0.75800  Biso   1.000  C
  C87      1.0000 0.19140  0.49388  0.25800  Biso   1.000  C
  C88      1.0000 0.80860  0.50612  0.75800  Biso   1.000  C
  C89      1.0000 0.28330  0.95978  0.28380  Biso   1.000  C
  C90      1.0000 0.71670  0.04022  0.78380  Biso   1.000  C
  C91      1.0000 0.71670  0.95978  0.28380  Biso   1.000  C
  C92      1.0000 0.28330  0.04022  0.78380  Biso   1.000  C
  C93      1.0000 0.78330  0.45978  0.28380  Biso   1.000  C
  C94      1.0000 0.21670  0.54022  0.78380  Biso   1.000  C
  C95      1.0000 0.21670  0.45978  0.28380  Biso   1.000  C
  C96      1.0000 0.78330  0.54022  0.78380  Biso   1.000  C
  H57      1.0000 0.30390  0.93780  0.29800  Biso   1.000  H
  H58      1.0000 0.69610  0.06220  0.79800  Biso   1.000  H
  H59      1.0000 0.69610  0.93780  0.29800  Biso   1.000  H
  H60      1.0000 0.30390  0.06220  0.79800  Biso   1.000  H
  H61      1.0000 0.80390  0.43780  0.29800  Biso   1.000  H
  H62      1.0000 0.19610  0.56220  0.79800  Biso   1.000  H
  H63      1.0000 0.19610  0.43780  0.29800  Biso   1.000  H
  H64      1.0000 0.80390  0.56220  0.79800  Biso   1.000  H
  C97      1.0000 0.22580  0.95868  0.28850  Biso   1.000  C
  C98      1.0000 0.77420  0.04132  0.78850  Biso   1.000  C
  C99      1.0000 0.77420  0.95868  0.28850  Biso   1.000  C
  C100     1.0000 0.22580  0.04132  0.78850  Biso   1.000  C
  C101     1.0000 0.72580  0.45868  0.28850  Biso   1.000  C
  C102     1.0000 0.27420  0.54132  0.78850  Biso   1.000  C
  C103     1.0000 0.27420  0.45868  0.28850  Biso   1.000  C
  C104     1.0000 0.72580  0.54132  0.78850  Biso   1.000  C
  C105     1.0000 0.19754  0.99387  0.26780  Biso   1.000  C
  C106     1.0000 0.80246  0.00613  0.76780  Biso   1.000  C
  C107     1.0000 0.80246  0.99387  0.26780  Biso   1.000  C
  C108     1.0000 0.19754  0.00613  0.76780  Biso   1.000  C
  C109     1.0000 0.69754  0.49387  0.26780  Biso   1.000  C
  C110     1.0000 0.30246  0.50613  0.76780  Biso   1.000  C
  C111     1.0000 0.30246  0.49387  0.26780  Biso   1.000  C
  C112     1.0000 0.69754  0.50613  0.76780  Biso   1.000  C
  H65      1.0000 0.15970  0.99360  0.26720  Biso   1.000  H
  H66      1.0000 0.84030  0.00640  0.76720  Biso   1.000  H
  H67      1.0000 0.84030  0.99360  0.26720  Biso   1.000  H
  H68      1.0000 0.15970  0.00640  0.76720  Biso   1.000  H
  H69      1.0000 0.65970  0.49360  0.26720  Biso   1.000  H
  H70      1.0000 0.34030  0.50640  0.76720  Biso   1.000  H
  H71      1.0000 0.34030  0.49360  0.26720  Biso   1.000  H
  H72      1.0000 0.65970  0.50640  0.76720  Biso   1.000  H
  C113     1.0000 0.19730  0.92361  0.31590  Biso   1.000  C
  C114     1.0000 0.80270  0.07639  0.81590  Biso   1.000  C
  C115     1.0000 0.80270  0.92361  0.31590  Biso   1.000  C
  C116     1.0000 0.19730  0.07639  0.81590  Biso   1.000  C
  C117     1.0000 0.69730  0.42361  0.31590  Biso   1.000  C
  C118     1.0000 0.30270  0.57639  0.81590  Biso   1.000  C
  C119     1.0000 0.30270  0.42361  0.31590  Biso   1.000  C
  C120     1.0000 0.69730  0.57639  0.81590  Biso   1.000  C
  C121     1.0000 0.21690  0.88383  0.29840  Biso   1.000  C
  C122     1.0000 0.78310  0.11617  0.79840  Biso   1.000  C
  C123     1.0000 0.78310  0.88383  0.29840  Biso   1.000  C
  C124     1.0000 0.21690  0.11617  0.79840  Biso   1.000  C
  C125     1.0000 0.71690  0.38383  0.29840  Biso   1.000  C
  C126     1.0000 0.28310  0.61617  0.79840  Biso   1.000  C
  C127     1.0000 0.28310  0.38383  0.29840  Biso   1.000  C
  C128     1.0000 0.71690  0.61617  0.79840  Biso   1.000  C
  H73      1.0000 0.24740  0.88110  0.26900  Biso   1.000  H
  H74      1.0000 0.75260  0.11890  0.76900  Biso   1.000  H
  H75      1.0000 0.75260  0.88110  0.26900  Biso   1.000  H
  H76      1.0000 0.24740  0.11890  0.76900  Biso   1.000  H
  H77      1.0000 0.74740  0.38110  0.26900  Biso   1.000  H
  H78      1.0000 0.25260  0.61890  0.76900  Biso   1.000  H
  H79      1.0000 0.25260  0.38110  0.26900  Biso   1.000  H
  H80      1.0000 0.74740  0.61890  0.76900  Biso   1.000  H
  C129     1.0000 0.19210  0.85070  0.32370  Biso   1.000  C
  C130     1.0000 0.80790  0.14930  0.82370  Biso   1.000  C
  C131     1.0000 0.80790  0.85070  0.32370  Biso   1.000  C
  C132     1.0000 0.19210  0.14930  0.82370  Biso   1.000  C
  C133     1.0000 0.69210  0.35070  0.32370  Biso   1.000  C
  C134     1.0000 0.30790  0.64930  0.82370  Biso   1.000  C
  C135     1.0000 0.30790  0.35070  0.32370  Biso   1.000  C
  C136     1.0000 0.69210  0.64930  0.82370  Biso   1.000  C
  C137     1.0000 0.14340  0.85395  0.36490  Biso   1.000  C
  C138     1.0000 0.85660  0.14605  0.86490  Biso   1.000  C
  C139     1.0000 0.85660  0.85395  0.36490  Biso   1.000  C
  C140     1.0000 0.14340  0.14605  0.86490  Biso   1.000  C
  C141     1.0000 0.64340  0.35395  0.36490  Biso   1.000  C
  C142     1.0000 0.35660  0.64605  0.86490  Biso   1.000  C
  C143     1.0000 0.35660  0.35395  0.36490  Biso   1.000  C
  C144     1.0000 0.64340  0.64605  0.86490  Biso   1.000  C
  H81      1.0000 0.12560  0.83140  0.38240  Biso   1.000  H
  H82      1.0000 0.87440  0.16860  0.88240  Biso   1.000  H
  H83      1.0000 0.87440  0.83140  0.38240  Biso   1.000  H
  H84      1.0000 0.12560  0.16860  0.88240  Biso   1.000  H
  H85      1.0000 0.62560  0.33140  0.38240  Biso   1.000  H
  H86      1.0000 0.37440  0.66860  0.88240  Biso   1.000  H
  H87      1.0000 0.37440  0.33140  0.38240  Biso   1.000  H
  H88      1.0000 0.62560  0.66860  0.88240  Biso   1.000  H
  C145     1.0000 0.12400  0.89131  0.37760  Biso   1.000  C
  C146     1.0000 0.87600  0.10869  0.87760  Biso   1.000  C
  C147     1.0000 0.87600  0.89131  0.37760  Biso   1.000  C
  C148     1.0000 0.12400  0.10869  0.87760  Biso   1.000  C
  C149     1.0000 0.62400  0.39131  0.37760  Biso   1.000  C
  C150     1.0000 0.37600  0.60869  0.87760  Biso   1.000  C
  C151     1.0000 0.37600  0.39131  0.37760  Biso   1.000  C
  C152     1.0000 0.62400  0.60869  0.87760  Biso   1.000  C
  C153     1.0000 0.14970  0.92518  0.35320  Biso   1.000  C
  C154     1.0000 0.85030  0.07482  0.85320  Biso   1.000  C
  C155     1.0000 0.85030  0.92518  0.35320  Biso   1.000  C
  C156     1.0000 0.14970  0.07482  0.85320  Biso   1.000  C
  C157     1.0000 0.64970  0.42518  0.35320  Biso   1.000  C
  C158     1.0000 0.35030  0.57482  0.85320  Biso   1.000  C
  C159     1.0000 0.35030  0.42518  0.35320  Biso   1.000  C
  C160     1.0000 0.64970  0.57482  0.85320  Biso   1.000  C
  H89      1.0000 0.13410  0.95000  0.36250  Biso   1.000  H
  H90      1.0000 0.86590  0.05000  0.86250  Biso   1.000  H
  H91      1.0000 0.86590  0.95000  0.36250  Biso   1.000  H
  H92      1.0000 0.13410  0.05000  0.86250  Biso   1.000  H
  H93      1.0000 0.63410  0.45000  0.36250  Biso   1.000  H
  H94      1.0000 0.36590  0.55000  0.86250  Biso   1.000  H
  H95      1.0000 0.36590  0.45000  0.36250  Biso   1.000  H
  H96      1.0000 0.63410  0.55000  0.86250  Biso   1.000  H
  C161     1.0000 0.21440  0.80987  0.30870  Biso   1.000  C
  C162     1.0000 0.78560  0.19013  0.80870  Biso   1.000  C
  C163     1.0000 0.78560  0.80987  0.30870  Biso   1.000  C
  C164     1.0000 0.21440  0.19013  0.80870  Biso   1.000  C
  C165     1.0000 0.71440  0.30987  0.30870  Biso   1.000  C
  C166     1.0000 0.28560  0.69013  0.80870  Biso   1.000  C
  C167     1.0000 0.28560  0.30987  0.30870  Biso   1.000  C
  C168     1.0000 0.71440  0.69013  0.80870  Biso   1.000  C
  C169     1.0000 0.07270  0.89437  0.42560  Biso   1.000  C
  C170     1.0000 0.92730  0.10563  0.92560  Biso   1.000  C
  C171     1.0000 0.92730  0.89437  0.42560  Biso   1.000  C
  C172     1.0000 0.07270  0.10563  0.92560  Biso   1.000  C
  C173     1.0000 0.57270  0.39437  0.42560  Biso   1.000  C
  C174     1.0000 0.42730  0.60563  0.92560  Biso   1.000  C
  C175     1.0000 0.42730  0.39437  0.42560  Biso   1.000  C
  C176     1.0000 0.57270  0.60563  0.92560  Biso   1.000  C
  C177     1.0000 0.32301  0.22501  0.10660  Biso   1.000  C
  C178     1.0000 0.67699  0.77499  0.60660  Biso   1.000  C
  C179     1.0000 0.67699  0.22501  0.10660  Biso   1.000  C
  C180     1.0000 0.32301  0.77499  0.60660  Biso   1.000  C
  C181     1.0000 0.82301  0.72501  0.10660  Biso   1.000  C
  C182     1.0000 0.17699  0.27499  0.60660  Biso   1.000  C
  C183     1.0000 0.17699  0.72501  0.10660  Biso   1.000  C
  C184     1.0000 0.82301  0.27499  0.60660  Biso   1.000  C
  C185     1.0000 0.36950  0.20244  0.10690  Biso   1.000  C
  C186     1.0000 0.63050  0.79756  0.60690  Biso   1.000  C
  C187     1.0000 0.63050  0.20244  0.10690  Biso   1.000  C
  C188     1.0000 0.36950  0.79756  0.60690  Biso   1.000  C
  C189     1.0000 0.86950  0.70244  0.10690  Biso   1.000  C
  C190     1.0000 0.13050  0.29756  0.60690  Biso   1.000  C
  C191     1.0000 0.13050  0.70244  0.10690  Biso   1.000  C
  C192     1.0000 0.86950  0.29756  0.60690  Biso   1.000  C
  H97      1.0000 0.38200  0.19190  0.15040  Biso   1.000  H
  H98      1.0000 0.61800  0.80810  0.65040  Biso   1.000  H
  H99      1.0000 0.61800  0.19190  0.15040  Biso   1.000  H
  H100     1.0000 0.38200  0.80810  0.65040  Biso   1.000  H
  H101     1.0000 0.88200  0.69190  0.15040  Biso   1.000  H
  H102     1.0000 0.11800  0.30810  0.65040  Biso   1.000  H
  H103     1.0000 0.11800  0.69190  0.15040  Biso   1.000  H
  H104     1.0000 0.88200  0.30810  0.65040  Biso   1.000  H
  C193     1.0000 0.39831  0.19495  0.04440  Biso   1.000  C
  C194     1.0000 0.60169  0.80505  0.54440  Biso   1.000  C
  C195     1.0000 0.60169  0.19495  0.04440  Biso   1.000  C
  C196     1.0000 0.39831  0.80505  0.54440  Biso   1.000  C
  C197     1.0000 0.89831  0.69495  0.04440  Biso   1.000  C
  C198     1.0000 0.10169  0.30505  0.54440  Biso   1.000  C
  C199     1.0000 0.10169  0.69495  0.04440  Biso   1.000  C
  C200     1.0000 0.89831  0.30505  0.54440  Biso   1.000  C
  C201     1.0000 0.38010  0.21082  0.98190  Biso   1.000  C
  C202     1.0000 0.61990  0.78918  0.48190  Biso   1.000  C
  C203     1.0000 0.61990  0.21082  0.98190  Biso   1.000  C
  C204     1.0000 0.38010  0.78918  0.48190  Biso   1.000  C
  C205     1.0000 0.88010  0.71082  0.98190  Biso   1.000  C
  C206     1.0000 0.11990  0.28918  0.48190  Biso   1.000  C
  C207     1.0000 0.11990  0.71082  0.98190  Biso   1.000  C
  C208     1.0000 0.88010  0.28918  0.48190  Biso   1.000  C
  H105     1.0000 0.40100  0.20700  0.94060  Biso   1.000  H
  H106     1.0000 0.59900  0.79300  0.44060  Biso   1.000  H
  H107     1.0000 0.59900  0.20700  0.94060  Biso   1.000  H
  H108     1.0000 0.40100  0.79300  0.44060  Biso   1.000  H
  H109     1.0000 0.90100  0.70700  0.94060  Biso   1.000  H
  H110     1.0000 0.09900  0.29300  0.44060  Biso   1.000  H
  H111     1.0000 0.09900  0.70700  0.94060  Biso   1.000  H
  H112     1.0000 0.90100  0.29300  0.44060  Biso   1.000  H
  C209     1.0000 0.33330  0.23189  0.97500  Biso   1.000  C
  C210     1.0000 0.66670  0.76811  0.47500  Biso   1.000  C
  C211     1.0000 0.66670  0.23189  0.97500  Biso   1.000  C
  C212     1.0000 0.33330  0.76811  0.47500  Biso   1.000  C
  C213     1.0000 0.83330  0.73189  0.97500  Biso   1.000  C
  C214     1.0000 0.16670  0.26811  0.47500  Biso   1.000  C
  C215     1.0000 0.16670  0.73189  0.97500  Biso   1.000  C
  C216     1.0000 0.83330  0.26811  0.47500  Biso   1.000  C
  C217     1.0000 0.30380  0.23919  0.04000  Biso   1.000  C
  C218     1.0000 0.69620  0.76081  0.54000  Biso   1.000  C
  C219     1.0000 0.69620  0.23919  0.04000  Biso   1.000  C
  C220     1.0000 0.30380  0.76081  0.54000  Biso   1.000  C
  C221     1.0000 0.80380  0.73919  0.04000  Biso   1.000  C
  C222     1.0000 0.19620  0.26081  0.54000  Biso   1.000  C
  C223     1.0000 0.19620  0.73919  0.04000  Biso   1.000  C
  C224     1.0000 0.80380  0.26081  0.54000  Biso   1.000  C
  H113     1.0000 0.27140  0.25350  0.03830  Biso   1.000  H
  H114     1.0000 0.72860  0.74650  0.53830  Biso   1.000  H
  H115     1.0000 0.72860  0.25350  0.03830  Biso   1.000  H
  H116     1.0000 0.27140  0.74650  0.53830  Biso   1.000  H
  H117     1.0000 0.77140  0.75350  0.03830  Biso   1.000  H
  H118     1.0000 0.22860  0.24650  0.53830  Biso   1.000  H
  H119     1.0000 0.22860  0.75350  0.03830  Biso   1.000  H
  H120     1.0000 0.77140  0.24650  0.53830  Biso   1.000  H
  C225     1.0000 0.29300  0.23356  0.17180  Biso   1.000  C
  C226     1.0000 0.70700  0.76644  0.67180  Biso   1.000  C
  C227     1.0000 0.70700  0.23356  0.17180  Biso   1.000  C
  C228     1.0000 0.29300  0.76644  0.67180  Biso   1.000  C
  C229     1.0000 0.79300  0.73356  0.17180  Biso   1.000  C
  C230     1.0000 0.20700  0.26644  0.67180  Biso   1.000  C
  C231     1.0000 0.20700  0.73356  0.17180  Biso   1.000  C
  C232     1.0000 0.79300  0.26644  0.67180  Biso   1.000  C
  C233     1.0000 0.30720  0.24457  0.90490  Biso   1.000  C
  C234     1.0000 0.69280  0.75543  0.40490  Biso   1.000  C
  C235     1.0000 0.69280  0.24457  0.90490  Biso   1.000  C
  C236     1.0000 0.30720  0.75543  0.40490  Biso   1.000  C
  C237     1.0000 0.80720  0.74457  0.90490  Biso   1.000  C
  C238     1.0000 0.19280  0.25543  0.40490  Biso   1.000  C
  C239     1.0000 0.19280  0.74457  0.90490  Biso   1.000  C
  C240     1.0000 0.80720  0.25543  0.40490  Biso   1.000  C
  C241     1.0000 0.44934  0.17223  0.04970  Biso   1.000  C
  C242     1.0000 0.55066  0.82777  0.54970  Biso   1.000  C
  C243     1.0000 0.55066  0.17223  0.04970  Biso   1.000  C
  C244     1.0000 0.44934  0.82777  0.54970  Biso   1.000  C
  C245     1.0000 0.94934  0.67223  0.04970  Biso   1.000  C
  C246     1.0000 0.05066  0.32777  0.54970  Biso   1.000  C
  C247     1.0000 0.05066  0.67223  0.04970  Biso   1.000  C
  C248     1.0000 0.94934  0.32777  0.54970  Biso   1.000  C
  C249     1.0000 0.45100  0.13373  0.08590  Biso   1.000  C
  C250     1.0000 0.54900  0.86627  0.58590  Biso   1.000  C
  C251     1.0000 0.54900  0.13373  0.08590  Biso   1.000  C
  C252     1.0000 0.45100  0.86627  0.58590  Biso   1.000  C
  C253     1.0000 0.95100  0.63373  0.08590  Biso   1.000  C
  C254     1.0000 0.04900  0.36627  0.58590  Biso   1.000  C
  C255     1.0000 0.04900  0.63373  0.08590  Biso   1.000  C
  C256     1.0000 0.95100  0.36627  0.58590  Biso   1.000  C
  H121     1.0000 0.41870  0.12080  0.09770  Biso   1.000  H
  H122     1.0000 0.58130  0.87920  0.59770  Biso   1.000  H
  H123     1.0000 0.58130  0.12080  0.09770  Biso   1.000  H
  H124     1.0000 0.41870  0.87920  0.59770  Biso   1.000  H
  H125     1.0000 0.91870  0.62080  0.09770  Biso   1.000  H
  H126     1.0000 0.08130  0.37920  0.59770  Biso   1.000  H
  H127     1.0000 0.08130  0.62080  0.09770  Biso   1.000  H
  H128     1.0000 0.91870  0.37920  0.59770  Biso   1.000  H
  C257     1.0000 0.50000  0.11609  0.10300  Biso   1.000  C
  C258     1.0000 0.50000  0.88391  0.60300  Biso   1.000  C
  C259     1.0000 0.00000  0.61609  0.10300  Biso   1.000  C
  C260     1.0000 0.00000  0.38391  0.60300  Biso   1.000  C
  C261     1.0000 0.50000  0.18990  0.03320  Biso   1.000  C
  C262     1.0000 0.50000  0.81010  0.53320  Biso   1.000  C
  C263     1.0000 0.00000  0.68990  0.03320  Biso   1.000  C
  C264     1.0000 0.00000  0.31010  0.53320  Biso   1.000  C
  H129     1.0000 0.50000  0.21470  0.01010  Biso   1.000  H
  H130     1.0000 0.50000  0.78530  0.51010  Biso   1.000  H
  H131     1.0000 0.00000  0.71470  0.01010  Biso   1.000  H
  H132     1.0000 0.00000  0.28530  0.51010  Biso   1.000  H
  H133     1.0000 0.49100  0.08430  0.17880  Biso   1.000  H
  H134     1.0000 0.50900  0.91570  0.67880  Biso   1.000  H
  H135     1.0000 0.50900  0.08430  0.17880  Biso   1.000  H
  H136     1.0000 0.49100  0.91570  0.67880  Biso   1.000  H
  H137     1.0000 0.99100  0.58430  0.17880  Biso   1.000  H
  H138     1.0000 0.00900  0.41570  0.67880  Biso   1.000  H
  H139     1.0000 0.00900  0.58430  0.17880  Biso   1.000  H
  H140     1.0000 0.99100  0.41570  0.67880  Biso   1.000  H
