data_image0
_cell_length_a       24.6748
_cell_length_b       33.5109
_cell_length_c       18.4547
_cell_angle_alpha    90
_cell_angle_beta     90
_cell_angle_gamma    90

_symmetry_space_group_name_H-M    "P 1"
_symmetry_int_tables_number       1

loop_
  _symmetry_equiv_pos_as_xyz
  'x, y, z'

loop_
  _atom_site_label
  _atom_site_occupancy
  _atom_site_fract_x
  _atom_site_fract_y
  _atom_site_fract_z
  _atom_site_thermal_displace_type
  _atom_site_B_iso_or_equiv
  _atom_site_type_symbol
  Cu1      1.0000 0.71015  0.73271  0.46324  Biso   1.000  Cu
  Cu2      1.0000 0.28985  0.26729  0.96324  Biso   1.000  Cu
  Cu3      1.0000 0.71015  0.26729  0.53676  Biso   1.000  Cu
  Cu4      1.0000 0.28985  0.73271  0.03676  Biso   1.000  Cu
  Cu5      1.0000 0.21015  0.23271  0.46324  Biso   1.000  Cu
  Cu6      1.0000 0.78985  0.76729  0.96324  Biso   1.000  Cu
  Cu7      1.0000 0.21015  0.76729  0.53676  Biso   1.000  Cu
  Cu8      1.0000 0.78985  0.23271  0.03676  Biso   1.000  Cu
  Cu9      1.0000 0.28985  0.26729  0.53676  Biso   1.000  Cu
  Cu10     1.0000 0.71015  0.73271  0.03676  Biso   1.000  Cu
  Cu11     1.0000 0.28985  0.73271  0.46324  Biso   1.000  Cu
  Cu12     1.0000 0.71015  0.26729  0.96324  Biso   1.000  Cu
  Cu13     1.0000 0.78985  0.76729  0.53676  Biso   1.000  Cu
  Cu14     1.0000 0.21015  0.23271  0.03676  Biso   1.000  Cu
  Cu15     1.0000 0.78985  0.23271  0.46324  Biso   1.000  Cu
  Cu16     1.0000 0.21015  0.76729  0.96324  Biso   1.000  Cu
  O1       1.0000 0.67526  0.72702  0.55824  Biso   1.000  O
  O2       1.0000 0.32474  0.27298  0.05824  Biso   1.000  O
  O3       1.0000 0.67526  0.27298  0.44176  Biso   1.000  O
  O4       1.0000 0.32474  0.72702  0.94176  Biso   1.000  O
  O5       1.0000 0.17526  0.22702  0.55824  Biso   1.000  O
  O6       1.0000 0.82474  0.77298  0.05824  Biso   1.000  O
  O7       1.0000 0.17526  0.77298  0.44176  Biso   1.000  O
  O8       1.0000 0.82474  0.22702  0.94176  Biso   1.000  O
  O9       1.0000 0.32474  0.27298  0.44176  Biso   1.000  O
  O10      1.0000 0.67526  0.72702  0.94176  Biso   1.000  O
  O11      1.0000 0.32474  0.72702  0.55824  Biso   1.000  O
  O12      1.0000 0.67526  0.27298  0.05824  Biso   1.000  O
  O13      1.0000 0.82474  0.77298  0.44176  Biso   1.000  O
  O14      1.0000 0.17526  0.22702  0.94176  Biso   1.000  O
  O15      1.0000 0.82474  0.22702  0.55824  Biso   1.000  O
  O16      1.0000 0.17526  0.77298  0.05824  Biso   1.000  O
  O17      1.0000 0.75071  0.68451  0.48345  Biso   1.000  O
  O18      1.0000 0.24929  0.31549  0.98345  Biso   1.000  O
  O19      1.0000 0.75071  0.31549  0.51655  Biso   1.000  O
  O20      1.0000 0.24929  0.68451  0.01655  Biso   1.000  O
  O21      1.0000 0.25071  0.18451  0.48345  Biso   1.000  O
  O22      1.0000 0.74929  0.81549  0.98345  Biso   1.000  O
  O23      1.0000 0.25071  0.81549  0.51655  Biso   1.000  O
  O24      1.0000 0.74929  0.18451  0.01655  Biso   1.000  O
  O25      1.0000 0.24929  0.31549  0.51655  Biso   1.000  O
  O26      1.0000 0.75071  0.68451  0.01655  Biso   1.000  O
  O27      1.0000 0.24929  0.68451  0.48345  Biso   1.000  O
  O28      1.0000 0.75071  0.31549  0.98345  Biso   1.000  O
  O29      1.0000 0.74929  0.81549  0.51655  Biso   1.000  O
  O30      1.0000 0.25071  0.18451  0.01655  Biso   1.000  O
  O31      1.0000 0.74929  0.18451  0.48345  Biso   1.000  O
  O32      1.0000 0.25071  0.81549  0.98345  Biso   1.000  O
  O33      1.0000 0.64835  0.70005  0.40871  Biso   1.000  O
  O34      1.0000 0.35165  0.29995  0.90871  Biso   1.000  O
  O35      1.0000 0.64835  0.29995  0.59129  Biso   1.000  O
  O36      1.0000 0.35165  0.70005  0.09129  Biso   1.000  O
  O37      1.0000 0.14835  0.20005  0.40871  Biso   1.000  O
  O38      1.0000 0.85165  0.79995  0.90871  Biso   1.000  O
  O39      1.0000 0.14835  0.79995  0.59129  Biso   1.000  O
  O40      1.0000 0.85165  0.20005  0.09129  Biso   1.000  O
  O41      1.0000 0.35165  0.29995  0.59129  Biso   1.000  O
  O42      1.0000 0.64835  0.70005  0.09129  Biso   1.000  O
  O43      1.0000 0.35165  0.70005  0.40871  Biso   1.000  O
  O44      1.0000 0.64835  0.29995  0.90871  Biso   1.000  O
  O45      1.0000 0.85165  0.79995  0.59129  Biso   1.000  O
  O46      1.0000 0.14835  0.20005  0.09129  Biso   1.000  O
  O47      1.0000 0.85165  0.20005  0.40871  Biso   1.000  O
  O48      1.0000 0.14835  0.79995  0.90871  Biso   1.000  O
  O49      1.0000 0.81846  0.71394  0.54517  Biso   1.000  O
  O50      1.0000 0.18154  0.28606  0.04517  Biso   1.000  O
  O51      1.0000 0.81846  0.28606  0.45483  Biso   1.000  O
  O52      1.0000 0.18154  0.71394  0.95483  Biso   1.000  O
  O53      1.0000 0.31846  0.21394  0.54517  Biso   1.000  O
  O54      1.0000 0.68154  0.78606  0.04517  Biso   1.000  O
  O55      1.0000 0.31846  0.78606  0.45483  Biso   1.000  O
  O56      1.0000 0.68154  0.21394  0.95483  Biso   1.000  O
  O57      1.0000 0.18154  0.28606  0.45483  Biso   1.000  O
  O58      1.0000 0.81846  0.71394  0.95483  Biso   1.000  O
  O59      1.0000 0.18154  0.71394  0.54517  Biso   1.000  O
  O60      1.0000 0.81846  0.28606  0.04517  Biso   1.000  O
  O61      1.0000 0.68154  0.78606  0.45483  Biso   1.000  O
  O62      1.0000 0.31846  0.21394  0.95483  Biso   1.000  O
  O63      1.0000 0.68154  0.21394  0.54517  Biso   1.000  O
  O64      1.0000 0.31846  0.78606  0.04517  Biso   1.000  O
  O65      1.0000 0.74331  0.75603  0.61917  Biso   1.000  O
  O66      1.0000 0.25669  0.24397  0.11917  Biso   1.000  O
  O67      1.0000 0.74331  0.24397  0.38083  Biso   1.000  O
  O68      1.0000 0.25669  0.75603  0.88083  Biso   1.000  O
  O69      1.0000 0.24331  0.25603  0.61917  Biso   1.000  O
  O70      1.0000 0.75669  0.74397  0.11917  Biso   1.000  O
  O71      1.0000 0.24331  0.74397  0.38083  Biso   1.000  O
  O72      1.0000 0.75669  0.25603  0.88083  Biso   1.000  O
  O73      1.0000 0.25669  0.24397  0.38083  Biso   1.000  O
  O74      1.0000 0.74331  0.75603  0.88083  Biso   1.000  O
  O75      1.0000 0.25669  0.75603  0.61917  Biso   1.000  O
  O76      1.0000 0.74331  0.24397  0.11917  Biso   1.000  O
  O77      1.0000 0.75669  0.74397  0.38083  Biso   1.000  O
  O78      1.0000 0.24331  0.25603  0.88083  Biso   1.000  O
  O79      1.0000 0.75669  0.25603  0.61917  Biso   1.000  O
  O80      1.0000 0.24331  0.74397  0.11917  Biso   1.000  O
  C1       1.0000 0.69785  0.73851  0.61754  Biso   1.000  C
  C2       1.0000 0.30215  0.26149  0.11754  Biso   1.000  C
  C3       1.0000 0.69785  0.26149  0.38246  Biso   1.000  C
  C4       1.0000 0.30215  0.73851  0.88246  Biso   1.000  C
  C5       1.0000 0.19785  0.23851  0.61754  Biso   1.000  C
  C6       1.0000 0.80215  0.76149  0.11754  Biso   1.000  C
  C7       1.0000 0.19785  0.76149  0.38246  Biso   1.000  C
  C8       1.0000 0.80215  0.23851  0.88246  Biso   1.000  C
  C9       1.0000 0.30215  0.26149  0.38246  Biso   1.000  C
  C10      1.0000 0.69785  0.73851  0.88246  Biso   1.000  C
  C11      1.0000 0.30215  0.73851  0.61754  Biso   1.000  C
  C12      1.0000 0.69785  0.26149  0.11754  Biso   1.000  C
  C13      1.0000 0.80215  0.76149  0.38246  Biso   1.000  C
  C14      1.0000 0.19785  0.23851  0.88246  Biso   1.000  C
  C15      1.0000 0.80215  0.23851  0.61754  Biso   1.000  C
  C16      1.0000 0.19785  0.76149  0.11754  Biso   1.000  C
  C17      1.0000 0.79382  0.68325  0.52024  Biso   1.000  C
  C18      1.0000 0.20618  0.31675  0.02024  Biso   1.000  C
  C19      1.0000 0.79382  0.31675  0.47976  Biso   1.000  C
  C20      1.0000 0.20618  0.68325  0.97976  Biso   1.000  C
  C21      1.0000 0.29382  0.18325  0.52024  Biso   1.000  C
  C22      1.0000 0.70618  0.81675  0.02024  Biso   1.000  C
  C23      1.0000 0.29382  0.81675  0.47976  Biso   1.000  C
  C24      1.0000 0.70618  0.18325  0.97976  Biso   1.000  C
  C25      1.0000 0.20618  0.31675  0.47976  Biso   1.000  C
  C26      1.0000 0.79382  0.68325  0.97976  Biso   1.000  C
  C27      1.0000 0.20618  0.68325  0.52024  Biso   1.000  C
  C28      1.0000 0.79382  0.31675  0.02024  Biso   1.000  C
  C29      1.0000 0.70618  0.81675  0.47976  Biso   1.000  C
  C30      1.0000 0.29382  0.18325  0.97976  Biso   1.000  C
  C31      1.0000 0.70618  0.18325  0.52024  Biso   1.000  C
  C32      1.0000 0.29382  0.81675  0.02024  Biso   1.000  C
  C33      1.0000 0.67227  0.72787  0.68492  Biso   1.000  C
  C34      1.0000 0.32773  0.27213  0.18492  Biso   1.000  C
  C35      1.0000 0.67227  0.27213  0.31508  Biso   1.000  C
  C36      1.0000 0.32773  0.72787  0.81508  Biso   1.000  C
  C37      1.0000 0.17227  0.22787  0.68492  Biso   1.000  C
  C38      1.0000 0.82773  0.77213  0.18492  Biso   1.000  C
  C39      1.0000 0.17227  0.77213  0.31508  Biso   1.000  C
  C40      1.0000 0.82773  0.22787  0.81508  Biso   1.000  C
  C41      1.0000 0.32773  0.27213  0.31508  Biso   1.000  C
  C42      1.0000 0.67227  0.72787  0.81508  Biso   1.000  C
  C43      1.0000 0.32773  0.72787  0.68492  Biso   1.000  C
  C44      1.0000 0.67227  0.27213  0.18492  Biso   1.000  C
  C45      1.0000 0.82773  0.77213  0.31508  Biso   1.000  C
  C46      1.0000 0.17227  0.22787  0.81508  Biso   1.000  C
  C47      1.0000 0.82773  0.22787  0.68492  Biso   1.000  C
  C48      1.0000 0.17227  0.77213  0.18492  Biso   1.000  C
  C49      1.0000 0.81545  0.64320  0.54000  Biso   1.000  C
  C50      1.0000 0.18455  0.35680  0.04000  Biso   1.000  C
  C51      1.0000 0.81545  0.35680  0.46000  Biso   1.000  C
  C52      1.0000 0.18455  0.64320  0.96000  Biso   1.000  C
  C53      1.0000 0.31545  0.14320  0.54000  Biso   1.000  C
  C54      1.0000 0.68455  0.85680  0.04000  Biso   1.000  C
  C55      1.0000 0.31545  0.85680  0.46000  Biso   1.000  C
  C56      1.0000 0.68455  0.14320  0.96000  Biso   1.000  C
  C57      1.0000 0.18455  0.35680  0.46000  Biso   1.000  C
  C58      1.0000 0.81545  0.64320  0.96000  Biso   1.000  C
  C59      1.0000 0.18455  0.64320  0.54000  Biso   1.000  C
  C60      1.0000 0.81545  0.35680  0.04000  Biso   1.000  C
  C61      1.0000 0.68455  0.85680  0.46000  Biso   1.000  C
  C62      1.0000 0.31545  0.14320  0.96000  Biso   1.000  C
  C63      1.0000 0.68455  0.14320  0.54000  Biso   1.000  C
  C64      1.0000 0.31545  0.85680  0.04000  Biso   1.000  C
  C65      1.0000 0.62320  0.70492  0.68662  Biso   1.000  C
  C66      1.0000 0.37680  0.29508  0.18662  Biso   1.000  C
  C67      1.0000 0.62320  0.29508  0.31338  Biso   1.000  C
  C68      1.0000 0.37680  0.70492  0.81338  Biso   1.000  C
  C69      1.0000 0.12320  0.20492  0.68662  Biso   1.000  C
  C70      1.0000 0.87680  0.79508  0.18662  Biso   1.000  C
  C71      1.0000 0.12320  0.79508  0.31338  Biso   1.000  C
  C72      1.0000 0.87680  0.20492  0.81338  Biso   1.000  C
  C73      1.0000 0.37680  0.29508  0.31338  Biso   1.000  C
  C74      1.0000 0.62320  0.70492  0.81338  Biso   1.000  C
  C75      1.0000 0.37680  0.70492  0.68662  Biso   1.000  C
  C76      1.0000 0.62320  0.29508  0.18662  Biso   1.000  C
  C77      1.0000 0.87680  0.79508  0.31338  Biso   1.000  C
  C78      1.0000 0.12320  0.20492  0.81338  Biso   1.000  C
  C79      1.0000 0.87680  0.20492  0.68662  Biso   1.000  C
  C80      1.0000 0.12320  0.79508  0.18662  Biso   1.000  C
  C81      1.0000 0.69446  0.73843  0.75000  Biso   1.000  C
  C82      1.0000 0.30554  0.26157  0.25000  Biso   1.000  C
  C83      1.0000 0.69446  0.26157  0.25000  Biso   1.000  C
  C84      1.0000 0.30554  0.73843  0.75000  Biso   1.000  C
  C85      1.0000 0.19446  0.23843  0.75000  Biso   1.000  C
  C86      1.0000 0.80554  0.76157  0.25000  Biso   1.000  C
  C87      1.0000 0.19446  0.76157  0.25000  Biso   1.000  C
  C88      1.0000 0.80554  0.23843  0.75000  Biso   1.000  C
  C89      1.0000 0.86176  0.63986  0.58230  Biso   1.000  C
  C90      1.0000 0.13824  0.36014  0.08230  Biso   1.000  C
  C91      1.0000 0.86176  0.36014  0.41770  Biso   1.000  C
  C92      1.0000 0.13824  0.63986  0.91770  Biso   1.000  C
  C93      1.0000 0.36176  0.13986  0.58230  Biso   1.000  C
  C94      1.0000 0.63824  0.86014  0.08230  Biso   1.000  C
  C95      1.0000 0.36176  0.86014  0.41770  Biso   1.000  C
  C96      1.0000 0.63824  0.13986  0.91770  Biso   1.000  C
  C97      1.0000 0.13824  0.36014  0.41770  Biso   1.000  C
  C98      1.0000 0.86176  0.63986  0.91770  Biso   1.000  C
  C99      1.0000 0.13824  0.63986  0.58230  Biso   1.000  C
  C100     1.0000 0.86176  0.36014  0.08230  Biso   1.000  C
  C101     1.0000 0.63824  0.86014  0.41770  Biso   1.000  C
  C102     1.0000 0.36176  0.13986  0.91770  Biso   1.000  C
  C103     1.0000 0.63824  0.13986  0.58230  Biso   1.000  C
  C104     1.0000 0.36176  0.86014  0.08230  Biso   1.000  C
  C105     1.0000 0.78828  0.60927  0.51826  Biso   1.000  C
  C106     1.0000 0.21172  0.39073  0.01826  Biso   1.000  C
  C107     1.0000 0.78828  0.39073  0.48174  Biso   1.000  C
  C108     1.0000 0.21172  0.60927  0.98174  Biso   1.000  C
  C109     1.0000 0.28828  0.10927  0.51826  Biso   1.000  C
  C110     1.0000 0.71172  0.89073  0.01826  Biso   1.000  C
  C111     1.0000 0.28828  0.89073  0.48174  Biso   1.000  C
  C112     1.0000 0.71172  0.10927  0.98174  Biso   1.000  C
  C113     1.0000 0.21172  0.39073  0.48174  Biso   1.000  C
  C114     1.0000 0.78828  0.60927  0.98174  Biso   1.000  C
  C115     1.0000 0.21172  0.60927  0.51826  Biso   1.000  C
  C116     1.0000 0.78828  0.39073  0.01826  Biso   1.000  C
  C117     1.0000 0.71172  0.89073  0.48174  Biso   1.000  C
  C118     1.0000 0.28828  0.10927  0.98174  Biso   1.000  C
  C119     1.0000 0.71172  0.10927  0.51826  Biso   1.000  C
  C120     1.0000 0.28828  0.89073  0.01826  Biso   1.000  C
  C121     1.0000 0.60103  0.69369  0.75000  Biso   1.000  C
  C122     1.0000 0.39897  0.30631  0.25000  Biso   1.000  C
  C123     1.0000 0.60103  0.30631  0.25000  Biso   1.000  C
  C124     1.0000 0.39897  0.69369  0.75000  Biso   1.000  C
  C125     1.0000 0.10103  0.19369  0.75000  Biso   1.000  C
  C126     1.0000 0.89897  0.80631  0.25000  Biso   1.000  C
  C127     1.0000 0.10103  0.80631  0.25000  Biso   1.000  C
  C128     1.0000 0.89897  0.19369  0.75000  Biso   1.000  C
  H1       1.0000 0.60620  0.69760  0.64240  Biso   1.000  H
  H2       1.0000 0.39380  0.30240  0.14240  Biso   1.000  H
  H3       1.0000 0.60620  0.30240  0.35760  Biso   1.000  H
  H4       1.0000 0.39380  0.69760  0.85760  Biso   1.000  H
  H5       1.0000 0.10620  0.19760  0.64240  Biso   1.000  H
  H6       1.0000 0.89380  0.80240  0.14240  Biso   1.000  H
  H7       1.0000 0.10620  0.80240  0.35760  Biso   1.000  H
  H8       1.0000 0.89380  0.19760  0.85760  Biso   1.000  H
  H9       1.0000 0.39380  0.30240  0.35760  Biso   1.000  H
  H10      1.0000 0.60620  0.69760  0.85760  Biso   1.000  H
  H11      1.0000 0.39380  0.69760  0.64240  Biso   1.000  H
  H12      1.0000 0.60620  0.30240  0.14240  Biso   1.000  H
  H13      1.0000 0.89380  0.80240  0.35760  Biso   1.000  H
  H14      1.0000 0.10620  0.19760  0.85760  Biso   1.000  H
  H15      1.0000 0.89380  0.19760  0.64240  Biso   1.000  H
  H16      1.0000 0.10620  0.80240  0.14240  Biso   1.000  H
  H17      1.0000 0.72680  0.75380  0.75000  Biso   1.000  H
  H18      1.0000 0.27320  0.24620  0.25000  Biso   1.000  H
  H19      1.0000 0.72680  0.24620  0.25000  Biso   1.000  H
  H20      1.0000 0.27320  0.75380  0.75000  Biso   1.000  H
  H21      1.0000 0.22680  0.25380  0.75000  Biso   1.000  H
  H22      1.0000 0.77320  0.74620  0.25000  Biso   1.000  H
  H23      1.0000 0.22680  0.74620  0.25000  Biso   1.000  H
  H24      1.0000 0.77320  0.25380  0.75000  Biso   1.000  H
  H25      1.0000 0.88120  0.66320  0.59560  Biso   1.000  H
  H26      1.0000 0.11880  0.33680  0.09560  Biso   1.000  H
  H27      1.0000 0.88120  0.33680  0.40440  Biso   1.000  H
  H28      1.0000 0.11880  0.66320  0.90440  Biso   1.000  H
  H29      1.0000 0.38120  0.16320  0.59560  Biso   1.000  H
  H30      1.0000 0.61880  0.83680  0.09560  Biso   1.000  H
  H31      1.0000 0.38120  0.83680  0.40440  Biso   1.000  H
  H32      1.0000 0.61880  0.16320  0.90440  Biso   1.000  H
  H33      1.0000 0.11880  0.33680  0.40440  Biso   1.000  H
  H34      1.0000 0.88120  0.66320  0.90440  Biso   1.000  H
  H35      1.0000 0.11880  0.66320  0.59560  Biso   1.000  H
  H36      1.0000 0.88120  0.33680  0.09560  Biso   1.000  H
  H37      1.0000 0.61880  0.83680  0.40440  Biso   1.000  H
  H38      1.0000 0.38120  0.16320  0.90440  Biso   1.000  H
  H39      1.0000 0.61880  0.16320  0.59560  Biso   1.000  H
  H40      1.0000 0.38120  0.83680  0.09560  Biso   1.000  H
  C129     1.0000 0.88004  0.60287  0.60560  Biso   1.000  C
  C130     1.0000 0.11996  0.39713  0.10560  Biso   1.000  C
  C131     1.0000 0.88004  0.39713  0.39440  Biso   1.000  C
  C132     1.0000 0.11996  0.60287  0.89440  Biso   1.000  C
  C133     1.0000 0.38004  0.10287  0.60560  Biso   1.000  C
  C134     1.0000 0.61996  0.89713  0.10560  Biso   1.000  C
  C135     1.0000 0.38004  0.89713  0.39440  Biso   1.000  C
  C136     1.0000 0.61996  0.10287  0.89440  Biso   1.000  C
  C137     1.0000 0.11996  0.39713  0.39440  Biso   1.000  C
  C138     1.0000 0.88004  0.60287  0.89440  Biso   1.000  C
  C139     1.0000 0.11996  0.60287  0.60560  Biso   1.000  C
  C140     1.0000 0.88004  0.39713  0.10560  Biso   1.000  C
  C141     1.0000 0.61996  0.89713  0.39440  Biso   1.000  C
  C142     1.0000 0.38004  0.10287  0.89440  Biso   1.000  C
  C143     1.0000 0.61996  0.10287  0.60560  Biso   1.000  C
  C144     1.0000 0.38004  0.89713  0.10560  Biso   1.000  C
  C145     1.0000 0.80516  0.57081  0.54090  Biso   1.000  C
  C146     1.0000 0.19484  0.42919  0.04090  Biso   1.000  C
  C147     1.0000 0.80516  0.42919  0.45910  Biso   1.000  C
  C148     1.0000 0.19484  0.57081  0.95910  Biso   1.000  C
  C149     1.0000 0.30516  0.07081  0.54090  Biso   1.000  C
  C150     1.0000 0.69484  0.92919  0.04090  Biso   1.000  C
  C151     1.0000 0.30516  0.92919  0.45910  Biso   1.000  C
  C152     1.0000 0.69484  0.07081  0.95910  Biso   1.000  C
  C153     1.0000 0.19484  0.42919  0.45910  Biso   1.000  C
  C154     1.0000 0.80516  0.57081  0.95910  Biso   1.000  C
  C155     1.0000 0.19484  0.57081  0.54090  Biso   1.000  C
  C156     1.0000 0.80516  0.42919  0.04090  Biso   1.000  C
  C157     1.0000 0.69484  0.92919  0.45910  Biso   1.000  C
  C158     1.0000 0.30516  0.07081  0.95910  Biso   1.000  C
  C159     1.0000 0.69484  0.07081  0.54090  Biso   1.000  C
  C160     1.0000 0.30516  0.92919  0.04090  Biso   1.000  C
  H41      1.0000 0.75760  0.61170  0.48750  Biso   1.000  H
  H42      1.0000 0.24240  0.38830  0.98750  Biso   1.000  H
  H43      1.0000 0.75760  0.38830  0.51250  Biso   1.000  H
  H44      1.0000 0.24240  0.61170  0.01250  Biso   1.000  H
  H45      1.0000 0.25760  0.11170  0.48750  Biso   1.000  H
  H46      1.0000 0.74240  0.88830  0.98750  Biso   1.000  H
  H47      1.0000 0.25760  0.88830  0.51250  Biso   1.000  H
  H48      1.0000 0.74240  0.11170  0.01250  Biso   1.000  H
  H49      1.0000 0.24240  0.38830  0.51250  Biso   1.000  H
  H50      1.0000 0.75760  0.61170  0.01250  Biso   1.000  H
  H51      1.0000 0.24240  0.61170  0.48750  Biso   1.000  H
  H52      1.0000 0.75760  0.38830  0.98750  Biso   1.000  H
  H53      1.0000 0.74240  0.88830  0.51250  Biso   1.000  H
  H54      1.0000 0.25760  0.11170  0.01250  Biso   1.000  H
  H55      1.0000 0.74240  0.11170  0.48750  Biso   1.000  H
  H56      1.0000 0.25760  0.88830  0.98750  Biso   1.000  H
  C161     1.0000 0.54820  0.67005  0.75000  Biso   1.000  C
  C162     1.0000 0.45180  0.32995  0.25000  Biso   1.000  C
  C163     1.0000 0.54820  0.32995  0.25000  Biso   1.000  C
  C164     1.0000 0.45180  0.67005  0.75000  Biso   1.000  C
  C165     1.0000 0.04820  0.17005  0.75000  Biso   1.000  C
  C166     1.0000 0.95180  0.82995  0.25000  Biso   1.000  C
  C167     1.0000 0.04820  0.82995  0.25000  Biso   1.000  C
  C168     1.0000 0.95180  0.17005  0.75000  Biso   1.000  C
  C169     1.0000 0.85239  0.56892  0.58470  Biso   1.000  C
  C170     1.0000 0.14761  0.43108  0.08470  Biso   1.000  C
  C171     1.0000 0.85239  0.43108  0.41530  Biso   1.000  C
  C172     1.0000 0.14761  0.56892  0.91530  Biso   1.000  C
  C173     1.0000 0.35239  0.06892  0.58470  Biso   1.000  C
  C174     1.0000 0.64761  0.93108  0.08470  Biso   1.000  C
  C175     1.0000 0.35239  0.93108  0.41530  Biso   1.000  C
  C176     1.0000 0.64761  0.06892  0.91530  Biso   1.000  C
  C177     1.0000 0.14761  0.43108  0.41530  Biso   1.000  C
  C178     1.0000 0.85239  0.56892  0.91530  Biso   1.000  C
  C179     1.0000 0.14761  0.56892  0.58470  Biso   1.000  C
  C180     1.0000 0.85239  0.43108  0.08470  Biso   1.000  C
  C181     1.0000 0.64761  0.93108  0.41530  Biso   1.000  C
  C182     1.0000 0.35239  0.06892  0.91530  Biso   1.000  C
  C183     1.0000 0.64761  0.06892  0.58470  Biso   1.000  C
  C184     1.0000 0.35239  0.93108  0.08470  Biso   1.000  C
  C185     1.0000 0.92598  0.60108  0.65490  Biso   1.000  C
  C186     1.0000 0.07402  0.39892  0.15490  Biso   1.000  C
  C187     1.0000 0.92598  0.39892  0.34510  Biso   1.000  C
  C188     1.0000 0.07402  0.60108  0.84510  Biso   1.000  C
  C189     1.0000 0.42598  0.10108  0.65490  Biso   1.000  C
  C190     1.0000 0.57402  0.89892  0.15490  Biso   1.000  C
  C191     1.0000 0.42598  0.89892  0.34510  Biso   1.000  C
  C192     1.0000 0.57402  0.10108  0.84510  Biso   1.000  C
  C193     1.0000 0.07402  0.39892  0.34510  Biso   1.000  C
  C194     1.0000 0.92598  0.60108  0.84510  Biso   1.000  C
  C195     1.0000 0.07402  0.60108  0.65490  Biso   1.000  C
  C196     1.0000 0.92598  0.39892  0.15490  Biso   1.000  C
  C197     1.0000 0.57402  0.89892  0.34510  Biso   1.000  C
  C198     1.0000 0.42598  0.10108  0.84510  Biso   1.000  C
  C199     1.0000 0.57402  0.10108  0.65490  Biso   1.000  C
  C200     1.0000 0.42598  0.89892  0.15490  Biso   1.000  C
  C201     1.0000 0.77602  0.53491  0.51900  Biso   1.000  C
  C202     1.0000 0.22398  0.46509  0.01900  Biso   1.000  C
  C203     1.0000 0.77602  0.46509  0.48100  Biso   1.000  C
  C204     1.0000 0.22398  0.53491  0.98100  Biso   1.000  C
  C205     1.0000 0.27602  0.03491  0.51900  Biso   1.000  C
  C206     1.0000 0.72398  0.96509  0.01900  Biso   1.000  C
  C207     1.0000 0.27602  0.96509  0.48100  Biso   1.000  C
  C208     1.0000 0.72398  0.03491  0.98100  Biso   1.000  C
  C209     1.0000 0.22398  0.46509  0.48100  Biso   1.000  C
  C210     1.0000 0.77602  0.53491  0.98100  Biso   1.000  C
  C211     1.0000 0.22398  0.53491  0.51900  Biso   1.000  C
  C212     1.0000 0.77602  0.46509  0.01900  Biso   1.000  C
  C213     1.0000 0.72398  0.96509  0.48100  Biso   1.000  C
  C214     1.0000 0.27602  0.03491  0.98100  Biso   1.000  C
  C215     1.0000 0.72398  0.03491  0.51900  Biso   1.000  C
  C216     1.0000 0.27602  0.96509  0.01900  Biso   1.000  C
  C217     1.0000 0.50000  0.68720  0.75000  Biso   1.000  C
  C218     1.0000 0.50000  0.31280  0.25000  Biso   1.000  C
  C219     1.0000 0.00000  0.18720  0.75000  Biso   1.000  C
  C220     1.0000 0.00000  0.81280  0.25000  Biso   1.000  C
  H57      1.0000 0.86530  0.54360  0.60010  Biso   1.000  H
  H58      1.0000 0.13470  0.45640  0.10010  Biso   1.000  H
  H59      1.0000 0.86530  0.45640  0.39990  Biso   1.000  H
  H60      1.0000 0.13470  0.54360  0.89990  Biso   1.000  H
  H61      1.0000 0.36530  0.04360  0.60010  Biso   1.000  H
  H62      1.0000 0.63470  0.95640  0.10010  Biso   1.000  H
  H63      1.0000 0.36530  0.95640  0.39990  Biso   1.000  H
  H64      1.0000 0.63470  0.04360  0.89990  Biso   1.000  H
  H65      1.0000 0.13470  0.45640  0.39990  Biso   1.000  H
  H66      1.0000 0.86530  0.54360  0.89990  Biso   1.000  H
  H67      1.0000 0.13470  0.54360  0.60010  Biso   1.000  H
  H68      1.0000 0.86530  0.45640  0.10010  Biso   1.000  H
  H69      1.0000 0.63470  0.95640  0.39990  Biso   1.000  H
  H70      1.0000 0.36530  0.04360  0.89990  Biso   1.000  H
  H71      1.0000 0.63470  0.04360  0.60010  Biso   1.000  H
  H72      1.0000 0.36530  0.95640  0.10010  Biso   1.000  H
  O81      1.0000 0.94578  0.63323  0.67567  Biso   1.000  O
  O82      1.0000 0.05422  0.36677  0.17567  Biso   1.000  O
  O83      1.0000 0.94578  0.36677  0.32433  Biso   1.000  O
  O84      1.0000 0.05422  0.63323  0.82433  Biso   1.000  O
  O85      1.0000 0.44578  0.13323  0.67567  Biso   1.000  O
  O86      1.0000 0.55422  0.86677  0.17567  Biso   1.000  O
  O87      1.0000 0.44578  0.86677  0.32433  Biso   1.000  O
  O88      1.0000 0.55422  0.13323  0.82433  Biso   1.000  O
  O89      1.0000 0.05422  0.36677  0.32433  Biso   1.000  O
  O90      1.0000 0.94578  0.63323  0.82433  Biso   1.000  O
  O91      1.0000 0.05422  0.63323  0.67567  Biso   1.000  O
  O92      1.0000 0.94578  0.36677  0.17567  Biso   1.000  O
  O93      1.0000 0.55422  0.86677  0.32433  Biso   1.000  O
  O94      1.0000 0.44578  0.13323  0.82433  Biso   1.000  O
  O95      1.0000 0.55422  0.13323  0.67567  Biso   1.000  O
  O96      1.0000 0.44578  0.86677  0.17567  Biso   1.000  O
  O97      1.0000 0.94334  0.56667  0.67504  Biso   1.000  O
  O98      1.0000 0.05666  0.43333  0.17504  Biso   1.000  O
  O99      1.0000 0.94334  0.43333  0.32496  Biso   1.000  O
  O100     1.0000 0.05666  0.56667  0.82496  Biso   1.000  O
  O101     1.0000 0.44334  0.06667  0.67504  Biso   1.000  O
  O102     1.0000 0.55666  0.93333  0.17504  Biso   1.000  O
  O103     1.0000 0.44334  0.93333  0.32496  Biso   1.000  O
  O104     1.0000 0.55666  0.06667  0.82496  Biso   1.000  O
  O105     1.0000 0.05666  0.43333  0.32496  Biso   1.000  O
  O106     1.0000 0.94334  0.56667  0.82496  Biso   1.000  O
  O107     1.0000 0.05666  0.56667  0.67504  Biso   1.000  O
  O108     1.0000 0.94334  0.43333  0.17504  Biso   1.000  O
  O109     1.0000 0.55666  0.93333  0.32496  Biso   1.000  O
  O110     1.0000 0.44334  0.06667  0.82496  Biso   1.000  O
  O111     1.0000 0.55666  0.06667  0.67504  Biso   1.000  O
  O112     1.0000 0.44334  0.93333  0.17504  Biso   1.000  O
  C221     1.0000 0.71911  0.53460  0.52120  Biso   1.000  C
  C222     1.0000 0.28089  0.46540  0.02120  Biso   1.000  C
  C223     1.0000 0.71911  0.46540  0.47880  Biso   1.000  C
  C224     1.0000 0.28089  0.53460  0.97880  Biso   1.000  C
  C225     1.0000 0.21911  0.03460  0.52120  Biso   1.000  C
  C226     1.0000 0.78089  0.96540  0.02120  Biso   1.000  C
  C227     1.0000 0.21911  0.96540  0.47880  Biso   1.000  C
  C228     1.0000 0.78089  0.03460  0.97880  Biso   1.000  C
  C229     1.0000 0.28089  0.46540  0.47880  Biso   1.000  C
  C230     1.0000 0.71911  0.53460  0.97880  Biso   1.000  C
  C231     1.0000 0.28089  0.53460  0.52120  Biso   1.000  C
  C232     1.0000 0.71911  0.46540  0.02120  Biso   1.000  C
  C233     1.0000 0.78089  0.96540  0.47880  Biso   1.000  C
  C234     1.0000 0.21911  0.03460  0.97880  Biso   1.000  C
  C235     1.0000 0.78089  0.03460  0.52120  Biso   1.000  C
  C236     1.0000 0.21911  0.96540  0.02120  Biso   1.000  C
  C237     1.0000 0.80230  0.50000  0.50000  Biso   1.000  C
  C238     1.0000 0.19770  0.50000  0.00000  Biso   1.000  C
  C239     1.0000 0.30230  0.00000  0.50000  Biso   1.000  C
  C240     1.0000 0.69770  0.00000  0.00000  Biso   1.000  C
  C241     1.0000 0.19770  0.50000  0.50000  Biso   1.000  C
  C242     1.0000 0.80230  0.50000  0.00000  Biso   1.000  C
  C243     1.0000 0.69770  0.00000  0.50000  Biso   1.000  C
  C244     1.0000 0.30230  0.00000  0.00000  Biso   1.000  C
  H73      1.0000 0.50000  0.71560  0.75000  Biso   1.000  H
  H74      1.0000 0.50000  0.28440  0.25000  Biso   1.000  H
  H75      1.0000 0.00000  0.21560  0.75000  Biso   1.000  H
  H76      1.0000 0.00000  0.78440  0.25000  Biso   1.000  H
  Cu17     1.0000 0.00000  0.63933  0.75000  Biso   1.000  Cu
  Cu18     1.0000 0.00000  0.36067  0.25000  Biso   1.000  Cu
  Cu19     1.0000 0.50000  0.13933  0.75000  Biso   1.000  Cu
  Cu20     1.0000 0.50000  0.86067  0.25000  Biso   1.000  Cu
  Cu21     1.0000 0.00000  0.56029  0.75000  Biso   1.000  Cu
  Cu22     1.0000 0.00000  0.43971  0.25000  Biso   1.000  Cu
  Cu23     1.0000 0.50000  0.06029  0.75000  Biso   1.000  Cu
  Cu24     1.0000 0.50000  0.93971  0.25000  Biso   1.000  Cu
  H77      1.0000 0.69970  0.55750  0.53680  Biso   1.000  H
  H78      1.0000 0.30030  0.44250  0.03680  Biso   1.000  H
  H79      1.0000 0.69970  0.44250  0.46320  Biso   1.000  H
  H80      1.0000 0.30030  0.55750  0.96320  Biso   1.000  H
  H81      1.0000 0.19970  0.05750  0.53680  Biso   1.000  H
  H82      1.0000 0.80030  0.94250  0.03680  Biso   1.000  H
  H83      1.0000 0.19970  0.94250  0.46320  Biso   1.000  H
  H84      1.0000 0.80030  0.05750  0.96320  Biso   1.000  H
  H85      1.0000 0.30030  0.44250  0.46320  Biso   1.000  H
  H86      1.0000 0.69970  0.55750  0.96320  Biso   1.000  H
  H87      1.0000 0.30030  0.55750  0.53680  Biso   1.000  H
  H88      1.0000 0.69970  0.44250  0.03680  Biso   1.000  H
  H89      1.0000 0.80030  0.94250  0.46320  Biso   1.000  H
  H90      1.0000 0.19970  0.05750  0.96320  Biso   1.000  H
  H91      1.0000 0.80030  0.05750  0.53680  Biso   1.000  H
  H92      1.0000 0.19970  0.94250  0.03680  Biso   1.000  H
  C245     1.0000 0.69141  0.50000  0.50000  Biso   1.000  C
  C246     1.0000 0.30859  0.50000  0.00000  Biso   1.000  C
  C247     1.0000 0.19141  0.00000  0.50000  Biso   1.000  C
  C248     1.0000 0.80859  0.00000  0.00000  Biso   1.000  C
  C249     1.0000 0.30859  0.50000  0.50000  Biso   1.000  C
  C250     1.0000 0.69141  0.50000  0.00000  Biso   1.000  C
  C251     1.0000 0.80859  0.00000  0.50000  Biso   1.000  C
  C252     1.0000 0.19141  0.00000  0.00000  Biso   1.000  C
  H93      1.0000 0.84080  0.50000  0.50000  Biso   1.000  H
  H94      1.0000 0.15920  0.50000  0.00000  Biso   1.000  H
  H95      1.0000 0.34080  0.00000  0.50000  Biso   1.000  H
  H96      1.0000 0.65920  0.00000  0.00000  Biso   1.000  H
  H97      1.0000 0.15920  0.50000  0.50000  Biso   1.000  H
  H98      1.0000 0.84080  0.50000  0.00000  Biso   1.000  H
  H99      1.0000 0.65920  0.00000  0.50000  Biso   1.000  H
  H100     1.0000 0.34080  0.00000  0.00000  Biso   1.000  H
  O113     1.0000 0.00000  0.70386  0.75000  Biso   1.000  O
  O114     1.0000 0.00000  0.29614  0.25000  Biso   1.000  O
  O115     1.0000 0.50000  0.20386  0.75000  Biso   1.000  O
  O116     1.0000 0.50000  0.79614  0.25000  Biso   1.000  O
  O117     1.0000 0.00000  0.49655  0.75000  Biso   1.000  O
  O118     1.0000 0.00000  0.50345  0.25000  Biso   1.000  O
  O119     1.0000 0.50000  0.99655  0.75000  Biso   1.000  O
  O120     1.0000 0.50000  0.00345  0.25000  Biso   1.000  O
  O121     1.0000 0.63522  0.50000  0.50000  Biso   1.000  O
  O122     1.0000 0.36478  0.50000  0.00000  Biso   1.000  O
  O123     1.0000 0.13522  0.00000  0.50000  Biso   1.000  O
  O124     1.0000 0.86478  0.00000  0.00000  Biso   1.000  O
  O125     1.0000 0.36478  0.50000  0.50000  Biso   1.000  O
  O126     1.0000 0.63522  0.50000  0.00000  Biso   1.000  O
  O127     1.0000 0.86478  0.00000  0.50000  Biso   1.000  O
  O128     1.0000 0.13522  0.00000  0.00000  Biso   1.000  O
  H101     1.0000 0.62390  0.50620  0.54140  Biso   1.000  H
  H102     1.0000 0.37610  0.49380  0.04140  Biso   1.000  H
  H103     1.0000 0.62390  0.49380  0.45860  Biso   1.000  H
  H104     1.0000 0.37610  0.50620  0.95860  Biso   1.000  H
  H105     1.0000 0.12390  0.00620  0.54140  Biso   1.000  H
  H106     1.0000 0.87610  0.99380  0.04140  Biso   1.000  H
  H107     1.0000 0.12390  0.99380  0.45860  Biso   1.000  H
  H108     1.0000 0.87610  0.00620  0.95860  Biso   1.000  H
  H109     1.0000 0.37610  0.49380  0.45860  Biso   1.000  H
  H110     1.0000 0.62390  0.50620  0.95860  Biso   1.000  H
  H111     1.0000 0.37610  0.50620  0.54140  Biso   1.000  H
  H112     1.0000 0.62390  0.49380  0.04140  Biso   1.000  H
  H113     1.0000 0.87610  0.99380  0.45860  Biso   1.000  H
  H114     1.0000 0.12390  0.00620  0.95860  Biso   1.000  H
  H115     1.0000 0.87610  0.00620  0.54140  Biso   1.000  H
  H116     1.0000 0.12390  0.99380  0.04140  Biso   1.000  H
  O129     1.0000 0.50000  0.57940  0.65300  Biso   1.000  O
  O130     1.0000 0.50000  0.42060  0.15300  Biso   1.000  O
  O131     1.0000 0.50000  0.42060  0.34700  Biso   1.000  O
  O132     1.0000 0.50000  0.57940  0.84700  Biso   1.000  O
  O133     1.0000 0.00000  0.07940  0.65300  Biso   1.000  O
  O134     1.0000 0.00000  0.92060  0.15300  Biso   1.000  O
  O135     1.0000 0.00000  0.92060  0.34700  Biso   1.000  O
  O136     1.0000 0.00000  0.07940  0.84700  Biso   1.000  O
  H117     1.0000 0.46920  0.57510  0.63510  Biso   1.000  H
  H118     1.0000 0.53080  0.42490  0.13510  Biso   1.000  H
  H119     1.0000 0.46920  0.42490  0.36490  Biso   1.000  H
  H120     1.0000 0.53080  0.57510  0.86490  Biso   1.000  H
  H121     1.0000 0.96920  0.07510  0.63510  Biso   1.000  H
  H122     1.0000 0.03080  0.92490  0.13510  Biso   1.000  H
  H123     1.0000 0.96920  0.92490  0.36490  Biso   1.000  H
  H124     1.0000 0.03080  0.07510  0.86490  Biso   1.000  H
  H125     1.0000 0.53080  0.42490  0.36490  Biso   1.000  H
  H126     1.0000 0.46920  0.57510  0.86490  Biso   1.000  H
  H127     1.0000 0.53080  0.57510  0.63510  Biso   1.000  H
  H128     1.0000 0.46920  0.42490  0.13510  Biso   1.000  H
  H129     1.0000 0.03080  0.92490  0.36490  Biso   1.000  H
  H130     1.0000 0.96920  0.07510  0.86490  Biso   1.000  H
  H131     1.0000 0.03080  0.07510  0.63510  Biso   1.000  H
  H132     1.0000 0.96920  0.92490  0.13510  Biso   1.000  H
  C253     1.0000 0.54980  0.63430  0.70450  Biso   1.000  C
  C254     1.0000 0.45020  0.36570  0.20450  Biso   1.000  C
  C255     1.0000 0.54980  0.36570  0.29550  Biso   1.000  C
  C256     1.0000 0.45020  0.63430  0.79550  Biso   1.000  C
  C257     1.0000 0.04980  0.13430  0.70450  Biso   1.000  C
  C258     1.0000 0.95020  0.86570  0.20450  Biso   1.000  C
  C259     1.0000 0.04980  0.86570  0.29550  Biso   1.000  C
  C260     1.0000 0.95020  0.13430  0.79550  Biso   1.000  C
  C261     1.0000 0.45020  0.36570  0.29550  Biso   1.000  C
  C262     1.0000 0.54980  0.63430  0.79550  Biso   1.000  C
  C263     1.0000 0.45020  0.63430  0.70450  Biso   1.000  C
  C264     1.0000 0.54980  0.36570  0.20450  Biso   1.000  C
  C265     1.0000 0.95020  0.86570  0.29550  Biso   1.000  C
  C266     1.0000 0.04980  0.13430  0.79550  Biso   1.000  C
  C267     1.0000 0.95020  0.13430  0.70450  Biso   1.000  C
  C268     1.0000 0.04980  0.86570  0.20450  Biso   1.000  C
  H133     1.0000 0.58360  0.62450  0.68730  Biso   1.000  H
  H134     1.0000 0.41640  0.37550  0.18730  Biso   1.000  H
  H135     1.0000 0.58360  0.37550  0.31270  Biso   1.000  H
  H136     1.0000 0.41640  0.62450  0.81270  Biso   1.000  H
  H137     1.0000 0.08360  0.12450  0.68730  Biso   1.000  H
  H138     1.0000 0.91640  0.87550  0.18730  Biso   1.000  H
  H139     1.0000 0.08360  0.87550  0.31270  Biso   1.000  H
  H140     1.0000 0.91640  0.12450  0.81270  Biso   1.000  H
  H141     1.0000 0.41640  0.37550  0.31270  Biso   1.000  H
  H142     1.0000 0.58360  0.62450  0.81270  Biso   1.000  H
  H143     1.0000 0.41640  0.62450  0.68730  Biso   1.000  H
  H144     1.0000 0.58360  0.37550  0.18730  Biso   1.000  H
  H145     1.0000 0.91640  0.87550  0.31270  Biso   1.000  H
  H146     1.0000 0.08360  0.12450  0.81270  Biso   1.000  H
  H147     1.0000 0.91640  0.12450  0.68730  Biso   1.000  H
  H148     1.0000 0.08360  0.87550  0.18730  Biso   1.000  H
  C269     1.0000 0.50000  0.61370  0.68560  Biso   1.000  C
  C270     1.0000 0.50000  0.38630  0.18560  Biso   1.000  C
  C271     1.0000 0.50000  0.38630  0.31440  Biso   1.000  C
  C272     1.0000 0.50000  0.61370  0.81440  Biso   1.000  C
  C273     1.0000 0.00000  0.11370  0.68560  Biso   1.000  C
  C274     1.0000 0.00000  0.88630  0.18560  Biso   1.000  C
  C275     1.0000 0.00000  0.88630  0.31440  Biso   1.000  C
  C276     1.0000 0.00000  0.11370  0.81440  Biso   1.000  C
