data_image0
_cell_length_a       6.9652
_cell_length_b       15.046
_cell_length_c       19.065
_cell_angle_alpha    90
_cell_angle_beta     90
_cell_angle_gamma    90

_symmetry_space_group_name_H-M    "P 1"
_symmetry_int_tables_number       1

loop_
  _symmetry_equiv_pos_as_xyz
  'x, y, z'

loop_
  _atom_site_label
  _atom_site_occupancy
  _atom_site_fract_x
  _atom_site_fract_y
  _atom_site_fract_z
  _atom_site_thermal_displace_type
  _atom_site_B_iso_or_equiv
  _atom_site_type_symbol
  C1       1.0000 0.62420  0.49072  0.12854  Biso   1.000  C
  C2       1.0000 0.87580  0.50928  0.62854  Biso   1.000  C
  C3       1.0000 0.37580  0.99072  0.37146  Biso   1.000  C
  C4       1.0000 0.12420  0.00928  0.87146  Biso   1.000  C
  C5       1.0000 0.56960  0.39681  0.15281  Biso   1.000  C
  C6       1.0000 0.93040  0.60319  0.65281  Biso   1.000  C
  C7       1.0000 0.43040  0.89681  0.34719  Biso   1.000  C
  C8       1.0000 0.06960  0.10319  0.84719  Biso   1.000  C
  H1       1.0000 0.65720  0.35290  0.13230  Biso   1.000  H
  H2       1.0000 0.84280  0.64710  0.63230  Biso   1.000  H
  H3       1.0000 0.34280  0.85290  0.36770  Biso   1.000  H
  H4       1.0000 0.15720  0.14710  0.86770  Biso   1.000  H
  C9       1.0000 0.57830  0.39271  0.23238  Biso   1.000  C
  C10      1.0000 0.92170  0.60729  0.73238  Biso   1.000  C
  C11      1.0000 0.42170  0.89271  0.26762  Biso   1.000  C
  C12      1.0000 0.07830  0.10729  0.76762  Biso   1.000  C
  H5       1.0000 0.49090  0.43540  0.25180  Biso   1.000  H
  H6       1.0000 0.00910  0.56460  0.75180  Biso   1.000  H
  H7       1.0000 0.50910  0.93540  0.24820  Biso   1.000  H
  H8       1.0000 0.99090  0.06460  0.74820  Biso   1.000  H
  H9       1.0000 0.70650  0.40590  0.24770  Biso   1.000  H
  H10      1.0000 0.79350  0.59410  0.74770  Biso   1.000  H
  H11      1.0000 0.29350  0.90590  0.25230  Biso   1.000  H
  H12      1.0000 0.20650  0.09410  0.75230  Biso   1.000  H
  H13      1.0000 0.54310  0.33420  0.24780  Biso   1.000  H
  H14      1.0000 0.95690  0.66580  0.74780  Biso   1.000  H
  H15      1.0000 0.45690  0.83420  0.25220  Biso   1.000  H
  H16      1.0000 0.04310  0.16580  0.75220  Biso   1.000  H
  C13      1.0000 0.31970  0.37004  0.06626  Biso   1.000  C
  C14      1.0000 0.18030  0.62996  0.56626  Biso   1.000  C
  C15      1.0000 0.68030  0.87004  0.43374  Biso   1.000  C
  C16      1.0000 0.81970  0.12996  0.93374  Biso   1.000  C
  C17      1.0000 0.12550  0.38309  0.05480  Biso   1.000  C
  C18      1.0000 0.37450  0.61691  0.55480  Biso   1.000  C
  C19      1.0000 0.87450  0.88309  0.44520  Biso   1.000  C
  C20      1.0000 0.62550  0.11691  0.94520  Biso   1.000  C
  H17      1.0000 0.04540  0.39660  0.09230  Biso   1.000  H
  H18      1.0000 0.45460  0.60340  0.59230  Biso   1.000  H
  H19      1.0000 0.95460  0.89660  0.40770  Biso   1.000  H
  H20      1.0000 0.54540  0.10340  0.90770  Biso   1.000  H
  C21      1.0000 0.04940  0.37626  0.98791  Biso   1.000  C
  C22      1.0000 0.45060  0.62374  0.48791  Biso   1.000  C
  C23      1.0000 0.95060  0.87626  0.51209  Biso   1.000  C
  C24      1.0000 0.54940  0.12374  0.01209  Biso   1.000  C
  H21      1.0000 0.91890  0.38550  0.98080  Biso   1.000  H
  H22      1.0000 0.58110  0.61450  0.48080  Biso   1.000  H
  H23      1.0000 0.08110  0.88550  0.51920  Biso   1.000  H
  H24      1.0000 0.41890  0.11450  0.01920  Biso   1.000  H
  C25      1.0000 0.16670  0.35580  0.93178  Biso   1.000  C
  C26      1.0000 0.33330  0.64420  0.43178  Biso   1.000  C
  C27      1.0000 0.83330  0.85580  0.56822  Biso   1.000  C
  C28      1.0000 0.66670  0.14420  0.06822  Biso   1.000  C
  C29      1.0000 0.36190  0.34244  0.94356  Biso   1.000  C
  C30      1.0000 0.13810  0.65756  0.44356  Biso   1.000  C
  C31      1.0000 0.63810  0.84244  0.55644  Biso   1.000  C
  C32      1.0000 0.86190  0.15756  0.05644  Biso   1.000  C
  H25      1.0000 0.44220  0.32880  0.90610  Biso   1.000  H
  H26      1.0000 0.05780  0.67120  0.40610  Biso   1.000  H
  H27      1.0000 0.55780  0.82880  0.59390  Biso   1.000  H
  H28      1.0000 0.94220  0.17120  0.09390  Biso   1.000  H
  C33      1.0000 0.43750  0.34927  0.01042  Biso   1.000  C
  C34      1.0000 0.06250  0.65073  0.51042  Biso   1.000  C
  C35      1.0000 0.56250  0.84927  0.48958  Biso   1.000  C
  C36      1.0000 0.93750  0.15073  0.98958  Biso   1.000  C
  H29      1.0000 0.56790  0.33980  0.01780  Biso   1.000  H
  H30      1.0000 0.93210  0.66020  0.51780  Biso   1.000  H
  H31      1.0000 0.43210  0.83980  0.48220  Biso   1.000  H
  H32      1.0000 0.06790  0.16020  0.98220  Biso   1.000  H
  C37      1.0000 0.90910  0.36291  0.85063  Biso   1.000  C
  C38      1.0000 0.59090  0.63709  0.35063  Biso   1.000  C
  C39      1.0000 0.09090  0.86291  0.64937  Biso   1.000  C
  C40      1.0000 0.40910  0.13709  0.14937  Biso   1.000  C
  H33      1.0000 0.87470  0.42200  0.86660  Biso   1.000  H
  H34      1.0000 0.62530  0.57800  0.36660  Biso   1.000  H
  H35      1.0000 0.12530  0.92200  0.63340  Biso   1.000  H
  H36      1.0000 0.37470  0.07800  0.13340  Biso   1.000  H
  H37      1.0000 0.83350  0.32030  0.87700  Biso   1.000  H
  H38      1.0000 0.66650  0.67970  0.37700  Biso   1.000  H
  H39      1.0000 0.16650  0.82030  0.62300  Biso   1.000  H
  H40      1.0000 0.33350  0.17970  0.12300  Biso   1.000  H
  C41      1.0000 0.86450  0.35405  0.77304  Biso   1.000  C
  C42      1.0000 0.63550  0.64595  0.27304  Biso   1.000  C
  C43      1.0000 0.13550  0.85405  0.72696  Biso   1.000  C
  C44      1.0000 0.36450  0.14595  0.22696  Biso   1.000  C
  C45      1.0000 0.90860  0.82003  0.22322  Biso   1.000  C
  C46      1.0000 0.59140  0.17997  0.72322  Biso   1.000  C
  C47      1.0000 0.09140  0.32003  0.27678  Biso   1.000  C
  C48      1.0000 0.40860  0.67997  0.77678  Biso   1.000  C
  H41      1.0000 0.90330  0.79120  0.26630  Biso   1.000  H
  H42      1.0000 0.59670  0.20880  0.76630  Biso   1.000  H
  H43      1.0000 0.09670  0.29120  0.23370  Biso   1.000  H
  H44      1.0000 0.40330  0.70880  0.73370  Biso   1.000  H
  C49      1.0000 0.92140  0.91112  0.22268  Biso   1.000  C
  C50      1.0000 0.57860  0.08888  0.72268  Biso   1.000  C
  C51      1.0000 0.07860  0.41112  0.27732  Biso   1.000  C
  C52      1.0000 0.42140  0.58888  0.77732  Biso   1.000  C
  H45      1.0000 0.92780  0.94300  0.26440  Biso   1.000  H
  H46      1.0000 0.57220  0.05700  0.76440  Biso   1.000  H
  H47      1.0000 0.07220  0.44300  0.23560  Biso   1.000  H
  H48      1.0000 0.42780  0.55700  0.73560  Biso   1.000  H
  C53      1.0000 0.92470  0.95399  0.15905  Biso   1.000  C
  C54      1.0000 0.57530  0.04601  0.65905  Biso   1.000  C
  C55      1.0000 0.07530  0.45399  0.34095  Biso   1.000  C
  C56      1.0000 0.42470  0.54601  0.84095  Biso   1.000  C
  H49      1.0000 0.93110  0.01570  0.15710  Biso   1.000  H
  H50      1.0000 0.56890  0.98430  0.65710  Biso   1.000  H
  H51      1.0000 0.06890  0.51570  0.34290  Biso   1.000  H
  H52      1.0000 0.43110  0.48430  0.84290  Biso   1.000  H
  C57      1.0000 0.91850  0.90437  0.09793  Biso   1.000  C
  C58      1.0000 0.58150  0.09563  0.59793  Biso   1.000  C
  C59      1.0000 0.08150  0.40437  0.40207  Biso   1.000  C
  C60      1.0000 0.41850  0.59563  0.90207  Biso   1.000  C
  H53      1.0000 0.92050  0.93260  0.05450  Biso   1.000  H
  H54      1.0000 0.57950  0.06740  0.55450  Biso   1.000  H
  H55      1.0000 0.07950  0.43260  0.44550  Biso   1.000  H
  H56      1.0000 0.42050  0.56740  0.94550  Biso   1.000  H
  C61      1.0000 0.90930  0.81261  0.10178  Biso   1.000  C
  C62      1.0000 0.59070  0.18739  0.60178  Biso   1.000  C
  C63      1.0000 0.09070  0.31261  0.39822  Biso   1.000  C
  C64      1.0000 0.40930  0.68739  0.89822  Biso   1.000  C
  C65      1.0000 0.90660  0.75265  0.04088  Biso   1.000  C
  C66      1.0000 0.59340  0.24735  0.54088  Biso   1.000  C
  C67      1.0000 0.09340  0.25265  0.45912  Biso   1.000  C
  C68      1.0000 0.40660  0.74735  0.95912  Biso   1.000  C
  C69      1.0000 0.91760  0.78130  0.97161  Biso   1.000  C
  C70      1.0000 0.58240  0.21870  0.47161  Biso   1.000  C
  C71      1.0000 0.08240  0.28130  0.52839  Biso   1.000  C
  C72      1.0000 0.41760  0.71870  0.02839  Biso   1.000  C
  H57      1.0000 0.92350  0.84170  0.96130  Biso   1.000  H
  H58      1.0000 0.57650  0.15830  0.46130  Biso   1.000  H
  H59      1.0000 0.07650  0.34170  0.53870  Biso   1.000  H
  H60      1.0000 0.42350  0.65830  0.03870  Biso   1.000  H
  C73      1.0000 0.91970  0.71935  0.91841  Biso   1.000  C
  C74      1.0000 0.58030  0.28065  0.41841  Biso   1.000  C
  C75      1.0000 0.08030  0.21935  0.58159  Biso   1.000  C
  C76      1.0000 0.41970  0.78065  0.08159  Biso   1.000  C
  H61      1.0000 0.92750  0.73740  0.87180  Biso   1.000  H
  H62      1.0000 0.57250  0.26260  0.37180  Biso   1.000  H
  H63      1.0000 0.07250  0.23740  0.62820  Biso   1.000  H
  H64      1.0000 0.42750  0.76260  0.12820  Biso   1.000  H
  C77      1.0000 0.91020  0.63079  0.93499  Biso   1.000  C
  C78      1.0000 0.58980  0.36921  0.43499  Biso   1.000  C
  C79      1.0000 0.08980  0.13079  0.56501  Biso   1.000  C
  C80      1.0000 0.41020  0.86921  0.06501  Biso   1.000  C
  H65      1.0000 0.91210  0.58790  0.89980  Biso   1.000  H
  H66      1.0000 0.58790  0.41210  0.39980  Biso   1.000  H
  H67      1.0000 0.08790  0.08790  0.60020  Biso   1.000  H
  H68      1.0000 0.41210  0.91210  0.10020  Biso   1.000  H
  C81      1.0000 0.89770  0.60610  0.00456  Biso   1.000  C
  C82      1.0000 0.60230  0.39390  0.50456  Biso   1.000  C
  C83      1.0000 0.10230  0.10610  0.49544  Biso   1.000  C
  C84      1.0000 0.39770  0.89390  0.99544  Biso   1.000  C
  H69      1.0000 0.89110  0.54600  0.01560  Biso   1.000  H
  H70      1.0000 0.60890  0.45400  0.51560  Biso   1.000  H
  H71      1.0000 0.10890  0.04600  0.48440  Biso   1.000  H
  H72      1.0000 0.39110  0.95400  0.98440  Biso   1.000  H
  Cu1      1.0000 0.86847  0.63656  0.15876  Biso   1.000  Cu
  Cu2      1.0000 0.63153  0.36344  0.65876  Biso   1.000  Cu
  Cu3      1.0000 0.13153  0.13656  0.34124  Biso   1.000  Cu
  Cu4      1.0000 0.36847  0.86344  0.84124  Biso   1.000  Cu
  N1       1.0000 0.89470  0.66544  0.05666  Biso   1.000  N
  N2       1.0000 0.60530  0.33456  0.55666  Biso   1.000  N
  N3       1.0000 0.10530  0.16544  0.44334  Biso   1.000  N
  N4       1.0000 0.39470  0.83456  0.94334  Biso   1.000  N
  N5       1.0000 0.90318  0.77065  0.16467  Biso   1.000  N
  N6       1.0000 0.59682  0.22935  0.66467  Biso   1.000  N
  N7       1.0000 0.09682  0.27065  0.33533  Biso   1.000  N
  N8       1.0000 0.40318  0.72935  0.83533  Biso   1.000  N
  O1       1.0000 0.37564  0.37525  0.13579  Biso   1.000  O
  O2       1.0000 0.12436  0.62475  0.63579  Biso   1.000  O
  O3       1.0000 0.62436  0.87525  0.36421  Biso   1.000  O
  O4       1.0000 0.87564  0.12475  0.86421  Biso   1.000  O
  O5       1.0000 0.79745  0.51161  0.14322  Biso   1.000  O
  O6       1.0000 0.70255  0.48839  0.64322  Biso   1.000  O
  O7       1.0000 0.20255  0.01161  0.35678  Biso   1.000  O
  O8       1.0000 0.29745  0.98839  0.85678  Biso   1.000  O
  O9       1.0000 0.50524  0.53807  0.09944  Biso   1.000  O
  O10      1.0000 0.99476  0.46193  0.59944  Biso   1.000  O
  O11      1.0000 0.49476  0.03807  0.40056  Biso   1.000  O
  O12      1.0000 0.00524  0.96193  0.90056  Biso   1.000  O
  O13      1.0000 0.10681  0.34782  0.86309  Biso   1.000  O
  O14      1.0000 0.39319  0.65218  0.36309  Biso   1.000  O
  O15      1.0000 0.89319  0.84782  0.63691  Biso   1.000  O
  O16      1.0000 0.60681  0.15218  0.13691  Biso   1.000  O
  O17      1.0000 0.98550  0.32953  0.73070  Biso   1.000  O
  O18      1.0000 0.51450  0.67047  0.23070  Biso   1.000  O
  O19      1.0000 0.01450  0.82953  0.76930  Biso   1.000  O
  O20      1.0000 0.48550  0.17047  0.26930  Biso   1.000  O
  O21      1.0000 0.68975  0.37247  0.75891  Biso   1.000  O
  O22      1.0000 0.81025  0.62753  0.25891  Biso   1.000  O
  O23      1.0000 0.31025  0.87247  0.74109  Biso   1.000  O
  O24      1.0000 0.18975  0.12753  0.24109  Biso   1.000  O
  O25      1.0000 0.17779  0.59686  0.17735  Biso   1.000  O
  O26      1.0000 0.32221  0.40314  0.67735  Biso   1.000  O
  O27      1.0000 0.82221  0.09686  0.32265  Biso   1.000  O
  O28      1.0000 0.67779  0.90314  0.82265  Biso   1.000  O
  H73      1.0000 0.25400  0.56840  0.15070  Biso   1.000  H
  H74      1.0000 0.24600  0.43160  0.65070  Biso   1.000  H
  H75      1.0000 0.74600  0.06840  0.34930  Biso   1.000  H
  H76      1.0000 0.75400  0.93160  0.84930  Biso   1.000  H
  H77      1.0000 0.23990  0.62730  0.20730  Biso   1.000  H
  H78      1.0000 0.26010  0.37270  0.70730  Biso   1.000  H
  H79      1.0000 0.76010  0.12730  0.29270  Biso   1.000  H
  H80      1.0000 0.73990  0.87270  0.79270  Biso   1.000  H
