data_image0
_cell_length_a       11.5923
_cell_length_b       12.8139
_cell_length_c       13.0141
_cell_angle_alpha    64.79
_cell_angle_beta     79.938
_cell_angle_gamma    74.286

_symmetry_space_group_name_H-M    "P 1"
_symmetry_int_tables_number       1

loop_
  _symmetry_equiv_pos_as_xyz
  'x, y, z'

loop_
  _atom_site_label
  _atom_site_occupancy
  _atom_site_fract_x
  _atom_site_fract_y
  _atom_site_fract_z
  _atom_site_thermal_displace_type
  _atom_site_B_iso_or_equiv
  _atom_site_type_symbol
  Cu1      1.0000 0.94594  0.09017  0.32280  Biso   1.000  Cu
  Cu2      1.0000 0.18624  0.04578  0.44541  Biso   1.000  Cu
  Cu3      1.0000 0.12651  0.30251  0.02568  Biso   1.000  Cu
  Cu4      1.0000 0.36245  0.24538  0.17611  Biso   1.000  Cu
  P1       1.0000 0.20062  0.03840  0.20830  Biso   1.000  P
  P2       1.0000 0.10051  0.30312  0.26660  Biso   1.000  P
  O1       1.0000 0.25970  0.93670  0.16180  Biso   1.000  O
  O2       1.0000 0.39460  0.93860  0.96310  Biso   1.000  O
  O3       1.0000 0.45030  0.69080  0.00830  Biso   1.000  O
  O4       1.0000 0.32400  0.55830  0.23470  Biso   1.000  O
  O5       1.0000 0.41260  0.79260  0.27100  Biso   1.000  O
  O6       1.0000 0.50600  0.54870  0.42330  Biso   1.000  O
  O7       1.0000 0.25690  0.00550  0.31800  Biso   1.000  O
  O8       1.0000 0.06790  0.03680  0.22130  Biso   1.000  O
  O9       1.0000 0.22990  0.15340  0.11750  Biso   1.000  O
  O10      1.0000 0.02360  0.39570  0.31720  Biso   1.000  O
  O11      1.0000 0.14000  0.50120  0.40290  Biso   1.000  O
  O12      1.0000 0.93250  0.62360  0.49060  Biso   1.000  O
  O13      1.0000 0.70870  0.62880  0.42120  Biso   1.000  O
  O14      1.0000 0.92500  0.58100  0.19200  Biso   1.000  O
  O15      1.0000 0.69130  0.59070  0.12770  Biso   1.000  O
  O16      1.0000 0.05410  0.33860  0.15240  Biso   1.000  O
  O17      1.0000 0.07270  0.18580  0.35270  Biso   1.000  O
  O18      1.0000 0.23020  0.30580  0.26140  Biso   1.000  O
  O19      1.0000 0.30930  0.36200  0.02420  Biso   1.000  O
  O20      1.0000 0.39200  0.47800  0.06040  Biso   1.000  O
  O21      1.0000 0.93000  0.85850  0.42680  Biso   1.000  O
  O22      1.0000 0.02530  0.96640  0.46080  Biso   1.000  O
  O23      1.0000 0.67810  0.85320  0.90860  Biso   1.000  O
  O24      1.0000 0.73700  0.90040  0.73140  Biso   1.000  O
  O25      1.0000 0.56140  0.98240  0.77850  Biso   1.000  O
  O26      1.0000 0.68050  0.31770  0.77360  Biso   1.000  O
  O27      1.0000 0.62040  0.50120  0.71110  Biso   1.000  O
  O28      1.0000 0.76210  0.42560  0.62310  Biso   1.000  O
  O29      1.0000 0.96030  0.87800  0.18240  Biso   1.000  O
  N1       1.0000 0.84200  0.19580  0.19450  Biso   1.000  N
  N2       1.0000 0.81310  0.15940  0.40920  Biso   1.000  N
  N3       1.0000 0.31030  0.92270  0.54550  Biso   1.000  N
  N4       1.0000 0.14030  0.08340  0.58250  Biso   1.000  N
  N5       1.0000 0.17990  0.28490  0.87830  Biso   1.000  N
  N6       1.0000 0.00620  0.43770  0.92740  Biso   1.000  N
  N7       1.0000 0.50480  0.16070  0.10980  Biso   1.000  N
  N8       1.0000 0.45600  0.15170  0.31450  Biso   1.000  N
  N9       1.0000 0.66030  0.91240  0.80690  Biso   1.000  N
  N10      1.0000 0.68440  0.41630  0.70420  Biso   1.000  N
  C1       1.0000 0.38530  0.88690  0.16520  Biso   1.000  C
  C2       1.0000 0.42840  0.84410  0.06890  Biso   1.000  C
  C3       1.0000 0.38120  0.73780  0.08870  Biso   1.000  C
  C4       1.0000 0.39480  0.64380  0.20970  Biso   1.000  C
  C5       1.0000 0.35300  0.69750  0.29760  Biso   1.000  C
  C6       1.0000 0.38440  0.61140  0.41740  Biso   1.000  C
  C7       1.0000 0.02760  0.51770  0.25410  Biso   1.000  C
  C8       1.0000 0.03960  0.56910  0.33620  Biso   1.000  C
  C9       1.0000 0.92730  0.57140  0.41580  Biso   1.000  C
  C10      1.0000 0.81650  0.63530  0.34700  Biso   1.000  C
  C11      1.0000 0.81400  0.58370  0.26120  Biso   1.000  C
  C12      1.0000 0.71720  0.65830  0.18080  Biso   1.000  C
  C13      1.0000 0.85920  0.20220  0.08930  Biso   1.000  C
  C14      1.0000 0.78300  0.27850  0.00410  Biso   1.000  C
  C15      1.0000 0.68380  0.35410  0.03370  Biso   1.000  C
  C16      1.0000 0.66560  0.35020  0.14090  Biso   1.000  C
  C17      1.0000 0.74610  0.27010  0.22300  Biso   1.000  C
  C18      1.0000 0.73300  0.25370  0.34240  Biso   1.000  C
  C19      1.0000 0.64860  0.32350  0.38910  Biso   1.000  C
  C20      1.0000 0.64590  0.29800  0.50330  Biso   1.000  C
  C21      1.0000 0.72410  0.19920  0.57210  Biso   1.000  C
  C22      1.0000 0.80920  0.13220  0.52010  Biso   1.000  C
  C23      1.0000 0.40020  0.84790  0.51360  Biso   1.000  C
  C24      1.0000 0.48810  0.76960  0.58610  Biso   1.000  C
  C25      1.0000 0.48170  0.76900  0.69430  Biso   1.000  C
  C26      1.0000 0.38850  0.84460  0.72800  Biso   1.000  C
  C27      1.0000 0.30320  0.92090  0.65060  Biso   1.000  C
  C28      1.0000 0.20120  0.00790  0.67490  Biso   1.000  C
  C29      1.0000 0.17010  0.01440  0.77950  Biso   1.000  C
  C30      1.0000 0.07300  0.10010  0.78960  Biso   1.000  C
  C31      1.0000 0.00990  0.17810  0.69720  Biso   1.000  C
  C32      1.0000 0.04590  0.16890  0.59370  Biso   1.000  C
  C33      1.0000 0.27860  0.20880  0.86090  Biso   1.000  C
  C34      1.0000 0.32570  0.22060  0.75230  Biso   1.000  C
  C35      1.0000 0.26590  0.30900  0.65980  Biso   1.000  C
  C36      1.0000 0.16110  0.38330  0.67800  Biso   1.000  C
  C37      1.0000 0.12110  0.36940  0.78880  Biso   1.000  C
  C38      1.0000 0.01380  0.44720  0.81930  Biso   1.000  C
  C39      1.0000 0.92710  0.52490  0.74560  Biso   1.000  C
  C40      1.0000 0.83460  0.59720  0.78180  Biso   1.000  C
  C41      1.0000 0.83160  0.59240  0.88880  Biso   1.000  C
  C42      1.0000 0.91730  0.50940  0.96120  Biso   1.000  C
  C43      1.0000 0.52100  0.17110  0.00300  Biso   1.000  C
  C44      1.0000 0.61500  0.09370  0.96810  Biso   1.000  C
  C45      1.0000 0.68810  0.00850  0.04630  Biso   1.000  C
  C46      1.0000 0.67500  0.99830  0.15710  Biso   1.000  C
  C47      1.0000 0.58010  0.07630  0.18780  Biso   1.000  C
  C48      1.0000 0.55650  0.07420  0.30220  Biso   1.000  C
  C49      1.0000 0.62920  0.00400  0.39300  Biso   1.000  C
  C50      1.0000 0.59780  0.01410  0.49590  Biso   1.000  C
  C51      1.0000 0.49500  0.09510  0.50770  Biso   1.000  C
  C52      1.0000 0.42540  0.16280  0.41450  Biso   1.000  C
  C53      1.0000 0.35110  0.45400  0.99230  Biso   1.000  C
  C54      1.0000 0.35710  0.53090  0.86650  Biso   1.000  C
  C55      1.0000 0.23960  0.61710  0.82250  Biso   1.000  C
  C56      1.0000 0.15720  0.67030  0.88500  Biso   1.000  C
  C57      1.0000 0.05480  0.75340  0.83560  Biso   1.000  C
  C58      1.0000 0.03670  0.78420  0.72260  Biso   1.000  C
  C59      1.0000 0.11970  0.73270  0.65810  Biso   1.000  C
  C60      1.0000 0.22020  0.64820  0.70830  Biso   1.000  C
  C61      1.0000 0.10420  0.75860  0.53610  Biso   1.000  C
  C62      1.0000 0.01080  0.86490  0.47260  Biso   1.000  C
  C63      1.0000 0.01780  0.87330  0.08270  Biso   1.000  C
  H1       1.0000 0.05050  0.65010  0.29260  Biso   1.000  H
  H2       1.0000 0.92650  0.15240  0.07130  Biso   1.000  H
  H3       1.0000 0.79690  0.27970  0.93110  Biso   1.000  H
  H4       1.0000 0.63010  0.40730  0.97940  Biso   1.000  H
  H5       1.0000 0.59980  0.40060  0.16000  Biso   1.000  H
  H6       1.0000 0.59370  0.38760  0.34350  Biso   1.000  H
  H7       1.0000 0.59170  0.34690  0.53440  Biso   1.000  H
  H8       1.0000 0.72040  0.17810  0.65020  Biso   1.000  H
  H9       1.0000 0.86420  0.06710  0.56450  Biso   1.000  H
  H10      1.0000 0.40310  0.84910  0.44130  Biso   1.000  H
  H11      1.0000 0.55000  0.71870  0.56330  Biso   1.000  H
  H12      1.0000 0.54020  0.71760  0.74430  Biso   1.000  H
  H13      1.0000 0.38330  0.84420  0.80030  Biso   1.000  H
  H14      1.0000 0.21380  0.96180  0.84210  Biso   1.000  H
  H15      1.0000 0.05010  0.10500  0.85980  Biso   1.000  H
  H16      1.0000 0.94420  0.23610  0.70380  Biso   1.000  H
  H17      1.0000 0.00440  0.22260  0.53010  Biso   1.000  H
  H18      1.0000 0.31600  0.14680  0.92330  Biso   1.000  H
  H19      1.0000 0.39650  0.16980  0.74150  Biso   1.000  H
  H20      1.0000 0.29610  0.31820  0.58610  Biso   1.000  H
  H21      1.0000 0.11820  0.44160  0.61710  Biso   1.000  H
  H22      1.0000 0.93110  0.52830  0.67230  Biso   1.000  H
  H23      1.0000 0.77460  0.64910  0.73370  Biso   1.000  H
  H24      1.0000 0.77260  0.64430  0.91290  Biso   1.000  H
  H25      1.0000 0.91290  0.50340  0.03550  Biso   1.000  H
  H26      1.0000 0.46960  0.23050  0.94970  Biso   1.000  H
  H27      1.0000 0.62580  0.10170  0.89280  Biso   1.000  H
  H28      1.0000 0.74870  0.95530  0.02520  Biso   1.000  H
  H29      1.0000 0.72790  0.94110  0.21020  Biso   1.000  H
  H30      1.0000 0.69860  0.95060  0.38410  Biso   1.000  H
  H31      1.0000 0.64530  0.96690  0.55710  Biso   1.000  H
  H32      1.0000 0.47310  0.10410  0.57620  Biso   1.000  H
  H33      1.0000 0.35600  0.21710  0.42160  Biso   1.000  H
  H34      1.0000 0.16950  0.65100  0.96020  Biso   1.000  H
  H35      1.0000 0.99850  0.78820  0.87860  Biso   1.000  H
  H36      1.0000 0.96850  0.83970  0.69020  Biso   1.000  H
  H37      1.0000 0.27540  0.61190  0.66580  Biso   1.000  H
  H38      1.0000 0.03660  0.79330  0.08890  Biso   1.000  H
  H39      1.0000 0.09070  0.90090  0.06800  Biso   1.000  H
  H40      1.0000 0.96660  0.92260  0.02140  Biso   1.000  H
  H41      1.0000 0.09880  0.52240  0.20050  Biso   1.000  H
  H42      1.0000 0.92040  0.48950  0.46190  Biso   1.000  H
  H43      1.0000 0.81980  0.71870  0.30490  Biso   1.000  H
  H44      1.0000 0.80050  0.50330  0.30180  Biso   1.000  H
  H45      1.0000 0.64530  0.68450  0.22210  Biso   1.000  H
  H46      1.0000 0.74320  0.72770  0.12330  Biso   1.000  H
  H47      1.0000 0.36860  0.65450  0.46600  Biso   1.000  H
  H48      1.0000 0.33290  0.55520  0.44630  Biso   1.000  H
  H49      1.0000 0.42720  0.94830  0.15420  Biso   1.000  H
  H50      1.0000 0.51630  0.82090  0.06620  Biso   1.000  H
  H51      1.0000 0.29630  0.76310  0.07240  Biso   1.000  H
  H52      1.0000 0.47950  0.60310  0.21860  Biso   1.000  H
  H53      1.0000 0.26600  0.72860  0.29640  Biso   1.000  H
  H54      1.0000 0.38210  0.48020  0.82490  Biso   1.000  H
  H55      1.0000 0.41830  0.57560  0.85030  Biso   1.000  H
  H56      1.0000 0.18110  0.76730  0.49370  Biso   1.000  H
  H57      1.0000 0.08580  0.68960  0.53510  Biso   1.000  H
