data_image0
_cell_length_a       13.9873
_cell_length_b       14.5454
_cell_length_c       13.0262
_cell_angle_alpha    114.86
_cell_angle_beta     117.134
_cell_angle_gamma    67.444

_symmetry_space_group_name_H-M    "P 1"
_symmetry_int_tables_number       1

loop_
  _symmetry_equiv_pos_as_xyz
  'x, y, z'

loop_
  _atom_site_label
  _atom_site_occupancy
  _atom_site_fract_x
  _atom_site_fract_y
  _atom_site_fract_z
  _atom_site_thermal_displace_type
  _atom_site_B_iso_or_equiv
  _atom_site_type_symbol
  P1       1.0000 0.99290  0.18760  0.64930  Biso   1.000  P
  P2       1.0000 0.79040  0.42510  0.72080  Biso   1.000  P
  O1       1.0000 0.07640  0.11090  0.57890  Biso   1.000  O
  O2       1.0000 0.30410  0.07590  0.69010  Biso   1.000  O
  O3       1.0000 0.36030  0.95080  0.47820  Biso   1.000  O
  O4       1.0000 0.16670  0.90170  0.26480  Biso   1.000  O
  O5       1.0000 0.08450  0.93340  0.50560  Biso   1.000  O
  O6       1.0000 0.06250  0.74460  0.33460  Biso   1.000  O
  O7       1.0000 0.04200  0.17350  0.77290  Biso   1.000  O
  O8       1.0000 0.98340  0.29420  0.64670  Biso   1.000  O
  O9       1.0000 0.88280  0.15390  0.57300  Biso   1.000  O
  O10      1.0000 0.68860  0.50080  0.76460  Biso   1.000  O
  O11      1.0000 0.61040  0.60180  0.95560  Biso   1.000  O
  O12      1.0000 0.38540  0.65860  0.80810  Biso   1.000  O
  O13      1.0000 0.36100  0.63050  0.55560  Biso   1.000  O
  O14      1.0000 0.64140  0.66230  0.73190  Biso   1.000  O
  O15      1.0000 0.50280  0.81600  0.61150  Biso   1.000  O
  O16      1.0000 0.88630  0.47720  0.79450  Biso   1.000  O
  O17      1.0000 0.81150  0.32590  0.74920  Biso   1.000  O
  O18      1.0000 0.74840  0.41070  0.58490  Biso   1.000  O
  O19      1.0000 0.09960  0.36090  0.92340  Biso   1.000  O
  O20      1.0000 0.25940  0.39390  0.97030  Biso   1.000  O
  O21      1.0000 0.19210  0.22440  0.04520  Biso   1.000  O
  O22      1.0000 0.22130  0.40770  0.23590  Biso   1.000  O
  O23      1.0000 0.46980  0.43780  0.40900  Biso   1.000  O
  O24      1.0000 0.62760  0.26100  0.48270  Biso   1.000  O
  O25      1.0000 0.36000  0.20800  0.28200  Biso   1.000  O
  O26      1.0000 0.41070  0.05750  0.39070  Biso   1.000  O
  O27      1.0000 0.35340  0.86230  0.21370  Biso   1.000  O
  O28      1.0000 0.24780  0.93760  0.00930  Biso   1.000  O
  O29      1.0000 0.38410  0.08240  0.11300  Biso   1.000  O
  O30      1.0000 0.43920  0.02460  0.90080  Biso   1.000  O
  O31      1.0000 0.65850  0.44330  0.35450  Biso   1.000  O
  O32      1.0000 0.80340  0.23610  0.39280  Biso   1.000  O
  O33      1.0000 0.22260  0.82840  0.75860  Biso   1.000  O
  O34      1.0000 0.04520  0.86760  0.67100  Biso   1.000  O
  O35      1.0000 0.14520  0.73200  0.57730  Biso   1.000  O
  O36      1.0000 0.57690  0.52360  0.15010  Biso   1.000  O
  O37      1.0000 0.53200  0.66600  0.27300  Biso   1.000  O
  O38      1.0000 0.47900  0.65820  0.09800  Biso   1.000  O
  O39      1.0000 0.80240  0.83230  0.94700  Biso   1.000  O
  O40      1.0000 0.66890  0.89730  0.81040  Biso   1.000  O
  O41      1.0000 0.63830  0.88110  0.94980  Biso   1.000  O
  O42      1.0000 0.17340  0.59170  0.19870  Biso   1.000  O
  O43      1.0000 0.66090  0.21600  0.17390  Biso   1.000  O
  O44      1.0000 0.48380  0.35740  0.07850  Biso   1.000  O
  O45      1.0000 0.71720  0.78290  0.14160  Biso   1.000  O
  N1       1.0000 0.94890  0.18180  0.93070  Biso   1.000  N
  N2       1.0000 0.94930  0.37840  0.03760  Biso   1.000  N
  N3       1.0000 0.15180  0.39060  0.71090  Biso   1.000  N
  N4       1.0000 0.06230  0.56210  0.84690  Biso   1.000  N
  N5       1.0000 0.74490  0.05100  0.56950  Biso   1.000  N
  N6       1.0000 0.67260  0.21320  0.72750  Biso   1.000  N
  N7       1.0000 0.94680  0.33680  0.40450  Biso   1.000  N
  N8       1.0000 0.87260  0.51320  0.54600  Biso   1.000  N
  N9       1.0000 0.13540  0.81020  0.66910  Biso   1.000  N
  N10      1.0000 0.53100  0.61720  0.17300  Biso   1.000  N
  N11      1.0000 0.70510  0.86960  0.90410  Biso   1.000  N
  C1       1.0000 0.13670  0.01080  0.59910  Biso   1.000  C
  C2       1.0000 0.25490  0.99200  0.60340  Biso   1.000  C
  C3       1.0000 0.25140  0.97840  0.47880  Biso   1.000  C
  C4       1.0000 0.18740  0.89960  0.38070  Biso   1.000  C
  C5       1.0000 0.07370  0.92420  0.38670  Biso   1.000  C
  C6       1.0000 0.00960  0.84020  0.30320  Biso   1.000  C
  C7       1.0000 0.67180  0.61040  0.81850  Biso   1.000  C
  C8       1.0000 0.57970  0.64670  0.86540  Biso   1.000  C
  C9       1.0000 0.47400  0.62190  0.76180  Biso   1.000  C
  C10      1.0000 0.44550  0.66920  0.66480  Biso   1.000  C
  C11      1.0000 0.54450  0.64230  0.62830  Biso   1.000  C
  C12      1.0000 0.52700  0.70720  0.55230  Biso   1.000  C
  C13      1.0000 0.20570  0.34980  0.97960  Biso   1.000  C
  C14      1.0000 0.26610  0.27900  0.06240  Biso   1.000  C
  C15      1.0000 0.31220  0.34650  0.19320  Biso   1.000  C
  C16      1.0000 0.40020  0.28400  0.27920  Biso   1.000  C
  C17      1.0000 0.43370  0.35740  0.40790  Biso   1.000  C
  C18      1.0000 0.52410  0.30370  0.50040  Biso   1.000  C
  C19      1.0000 0.41230  0.10400  0.24000  Biso   1.000  C
  C20      1.0000 0.36720  0.03650  0.26250  Biso   1.000  C
  C21      1.0000 0.40030  0.92290  0.19310  Biso   1.000  C
  C22      1.0000 0.36470  0.90620  0.05820  Biso   1.000  C
  C23      1.0000 0.41870  0.97480  0.04700  Biso   1.000  C
  C24      1.0000 0.38300  0.96970  0.91740  Biso   1.000  C
  C25      1.0000 0.96230  0.07940  0.87610  Biso   1.000  C
  C26      1.0000 0.91180  0.02130  0.88960  Biso   1.000  C
  C27      1.0000 0.84730  0.07230  0.96050  Biso   1.000  C
  C28      1.0000 0.83600  0.17940  0.01930  Biso   1.000  C
  C29      1.0000 0.88790  0.23300  0.00260  Biso   1.000  C
  C30      1.0000 0.88480  0.34560  0.05940  Biso   1.000  C
  C31      1.0000 0.81960  0.41430  0.12950  Biso   1.000  C
  C32      1.0000 0.82450  0.51760  0.17850  Biso   1.000  C
  C33      1.0000 0.89420  0.54930  0.15970  Biso   1.000  C
  C34      1.0000 0.95450  0.47880  0.08660  Biso   1.000  C
  C35      1.0000 0.19190  0.29950  0.64330  Biso   1.000  C
  C36      1.0000 0.27750  0.28590  0.60660  Biso   1.000  C
  C37      1.0000 0.32070  0.37000  0.64310  Biso   1.000  C
  C38      1.0000 0.28170  0.46390  0.71670  Biso   1.000  C
  C39      1.0000 0.19670  0.47220  0.75070  Biso   1.000  C
  C40      1.0000 0.14730  0.56920  0.83100  Biso   1.000  C
  C41      1.0000 0.18800  0.65800  0.88820  Biso   1.000  C
  C42      1.0000 0.13560  0.74540  0.96130  Biso   1.000  C
  C43      1.0000 0.04510  0.73960  0.97420  Biso   1.000  C
  C44      1.0000 0.01270  0.64580  0.91550  Biso   1.000  C
  C45      1.0000 0.78500  0.97550  0.48810  Biso   1.000  C
  C46      1.0000 0.75210  0.88110  0.43030  Biso   1.000  C
  C47      1.0000 0.68000  0.86620  0.46320  Biso   1.000  C
  C48      1.0000 0.64080  0.94410  0.55210  Biso   1.000  C
  C49      1.0000 0.67330  0.03670  0.60220  Biso   1.000  C
  C50      1.0000 0.63310  0.12920  0.69350  Biso   1.000  C
  C51      1.0000 0.56010  0.13050  0.73970  Biso   1.000  C
  C52      1.0000 0.53010  0.22060  0.82440  Biso   1.000  C
  C53      1.0000 0.56910  0.30990  0.85880  Biso   1.000  C
  C54      1.0000 0.63990  0.30110  0.80810  Biso   1.000  C
  C55      1.0000 0.98510  0.24210  0.34100  Biso   1.000  C
  C56      1.0000 0.06650  0.22110  0.29340  Biso   1.000  C
  C57      1.0000 0.10600  0.30130  0.31340  Biso   1.000  C
  C58      1.0000 0.06860  0.40100  0.38120  Biso   1.000  C
  C59      1.0000 0.98900  0.41700  0.42950  Biso   1.000  C
  C60      1.0000 0.94350  0.51770  0.50340  Biso   1.000  C
  C61      1.0000 0.96750  0.61040  0.53190  Biso   1.000  C
  C62      1.0000 0.91840  0.70070  0.60400  Biso   1.000  C
  C63      1.0000 0.84560  0.69720  0.64560  Biso   1.000  C
  C64      1.0000 0.82310  0.60050  0.61270  Biso   1.000  C
  C65      1.0000 0.27180  0.61740  0.20450  Biso   1.000  C
  C66      1.0000 0.64230  0.11760  0.10800  Biso   1.000  C
  H1       1.0000 0.00620  0.04560  0.82470  Biso   1.000  H
  H2       1.0000 0.92430  0.94650  0.85260  Biso   1.000  H
  H3       1.0000 0.81050  0.03380  0.96850  Biso   1.000  H
  H4       1.0000 0.79170  0.21570  0.06930  Biso   1.000  H
  H5       1.0000 0.77250  0.38990  0.14250  Biso   1.000  H
  H6       1.0000 0.77880  0.56750  0.22430  Biso   1.000  H
  H7       1.0000 0.90180  0.61990  0.19660  Biso   1.000  H
  H8       1.0000 0.00100  0.50150  0.07100  Biso   1.000  H
  H9       1.0000 0.16150  0.24210  0.61880  Biso   1.000  H
  H10      1.0000 0.30690  0.21850  0.55820  Biso   1.000  H
  H11      1.0000 0.37740  0.36400  0.61700  Biso   1.000  H
  H12      1.0000 0.31200  0.52180  0.74330  Biso   1.000  H
  H13      1.0000 0.25190  0.65940  0.87900  Biso   1.000  H
  H14      1.0000 0.16090  0.80790  0.99960  Biso   1.000  H
  H15      1.0000 0.00780  0.79760  0.02430  Biso   1.000  H
  H16      1.0000 0.95140  0.64080  0.92460  Biso   1.000  H
  H17      1.0000 0.83790  0.98340  0.46630  Biso   1.000  H
  H18      1.0000 0.77910  0.82780  0.36850  Biso   1.000  H
  H19      1.0000 0.65760  0.80120  0.42520  Biso   1.000  H
  H20      1.0000 0.59130  0.93440  0.57670  Biso   1.000  H
  H21      1.0000 0.53230  0.07040  0.71350  Biso   1.000  H
  H22      1.0000 0.48300  0.22390  0.86230  Biso   1.000  H
  H23      1.0000 0.54640  0.37450  0.91430  Biso   1.000  H
  H24      1.0000 0.66770  0.36020  0.83130  Biso   1.000  H
  H25      1.0000 0.95590  0.18570  0.32530  Biso   1.000  H
  H26      1.0000 0.09390  0.15100  0.24870  Biso   1.000  H
  H27      1.0000 0.15920  0.28970  0.27930  Biso   1.000  H
  H28      1.0000 0.09550  0.45880  0.39640  Biso   1.000  H
  H29      1.0000 0.01710  0.61270  0.50110  Biso   1.000  H
  H30      1.0000 0.93430  0.76580  0.62480  Biso   1.000  H
  H31      1.0000 0.81140  0.75900  0.69490  Biso   1.000  H
  H32      1.0000 0.77100  0.59670  0.63820  Biso   1.000  H
  H33      1.0000 0.13990  0.01180  0.67450  Biso   1.000  H
  H34      1.0000 0.29910  0.92940  0.62490  Biso   1.000  H
  H35      1.0000 0.21450  0.04370  0.46330  Biso   1.000  H
  H36      1.0000 0.22800  0.83160  0.38870  Biso   1.000  H
  H37      1.0000 0.02910  0.98930  0.36860  Biso   1.000  H
  H38      1.0000 0.00400  0.82590  0.22250  Biso   1.000  H
  H39      1.0000 0.93780  0.86330  0.30700  Biso   1.000  H
  H40      1.0000 0.73770  0.62630  0.88280  Biso   1.000  H
  H41      1.0000 0.56730  0.72010  0.90040  Biso   1.000  H
  H42      1.0000 0.48540  0.54800  0.72730  Biso   1.000  H
  H43      1.0000 0.42180  0.74290  0.69370  Biso   1.000  H
  H44      1.0000 0.55910  0.56990  0.58450  Biso   1.000  H
  H45      1.0000 0.46730  0.69120  0.47660  Biso   1.000  H
  H46      1.0000 0.59250  0.68890  0.53360  Biso   1.000  H
  H47      1.0000 0.32680  0.22980  0.03920  Biso   1.000  H
  H48      1.0000 0.34460  0.39350  0.19310  Biso   1.000  H
  H49      1.0000 0.46430  0.24880  0.25500  Biso   1.000  H
  H50      1.0000 0.36970  0.38950  0.43070  Biso   1.000  H
  H51      1.0000 0.49050  0.09300  0.28060  Biso   1.000  H
  H52      1.0000 0.28820  0.05830  0.23520  Biso   1.000  H
  H53      1.0000 0.47920  0.89970  0.22520  Biso   1.000  H
  H54      1.0000 0.38940  0.83480  0.01780  Biso   1.000  H
  H55      1.0000 0.49730  0.95230  0.07980  Biso   1.000  H
  H56      1.0000 0.50110  0.24840  0.49690  Biso   1.000  H
  H57      1.0000 0.53540  0.35270  0.57920  Biso   1.000  H
  H58      1.0000 0.30630  0.99800  0.88890  Biso   1.000  H
  H59      1.0000 0.39940  0.89770  0.87170  Biso   1.000  H
  H60      1.0000 0.36000  0.07690  0.43790  Biso   1.000  H
  H61      1.0000 0.44000  0.86990  0.29740  Biso   1.000  H
  H62      1.0000 0.30000  0.11850  0.08310  Biso   1.000  H
  H63      1.0000 0.22000  0.90440  0.91900  Biso   1.000  H
  H64      1.0000 0.44000  0.46200  0.33450  Biso   1.000  H
  H65      1.0000 0.20000  0.46940  0.24040  Biso   1.000  H
  H66      1.0000 0.24000  0.17590  0.07430  Biso   1.000  H
  H67      1.0000 0.64000  0.28140  0.41940  Biso   1.000  H
  H68      1.0000 0.32000  0.07540  0.76180  Biso   1.000  H
  H69      1.0000 0.42000  0.89750  0.51540  Biso   1.000  H
  H70      1.0000 0.22000  0.89620  0.23560  Biso   1.000  H
  H71      1.0000 0.14000  0.72250  0.37980  Biso   1.000  H
  H72      1.0000 0.46000  0.83930  0.66720  Biso   1.000  H
  H73      1.0000 0.68000  0.59250  0.99850  Biso   1.000  H
  H74      1.0000 0.42000  0.66250  0.90080  Biso   1.000  H
  H75      1.0000 0.30000  0.65430  0.56420  Biso   1.000  H
  H76      1.0000 0.62000  0.49560  0.34100  Biso   1.000  H
  H77      1.0000 0.84000  0.20600  0.47480  Biso   1.000  H
  H78      1.0000 0.74000  0.21140  0.30530  Biso   1.000  H
  H79      1.0000 0.62000  0.42470  0.39750  Biso   1.000  H
  Cu1      1.0000 0.02158  0.27187  0.92029  Biso   1.000  Cu
  Cu2      1.0000 0.02738  0.42228  0.76667  Biso   1.000  Cu
  Cu3      1.0000 0.77271  0.19388  0.64568  Biso   1.000  Cu
  Cu4      1.0000 0.83548  0.37514  0.48347  Biso   1.000  Cu
