data_image0
_cell_length_a       14.1488
_cell_length_b       19.0043
_cell_length_c       14.4367
_cell_angle_alpha    90
_cell_angle_beta     96.038
_cell_angle_gamma    90

_symmetry_space_group_name_H-M    "P 1"
_symmetry_int_tables_number       1

loop_
  _symmetry_equiv_pos_as_xyz
  'x, y, z'

loop_
  _atom_site_label
  _atom_site_occupancy
  _atom_site_fract_x
  _atom_site_fract_y
  _atom_site_fract_z
  _atom_site_thermal_displace_type
  _atom_site_B_iso_or_equiv
  _atom_site_type_symbol
  Cu1      1.0000 0.82498  0.97262  0.04512  Biso   1.000  Cu
  Cu2      1.0000 0.17502  0.47262  0.95488  Biso   1.000  Cu
  Cu3      1.0000 0.91664  0.80571  0.07581  Biso   1.000  Cu
  Cu4      1.0000 0.08336  0.30571  0.92419  Biso   1.000  Cu
  Cu5      1.0000 0.55896  0.90778  0.11722  Biso   1.000  Cu
  Cu6      1.0000 0.44104  0.40778  0.88278  Biso   1.000  Cu
  Cu7      1.0000 0.66308  0.75246  0.14822  Biso   1.000  Cu
  Cu8      1.0000 0.33692  0.25246  0.85178  Biso   1.000  Cu
  P1       1.0000 0.79531  0.87963  0.21202  Biso   1.000  P
  P2       1.0000 0.20469  0.37963  0.78798  Biso   1.000  P
  P3       1.0000 0.68321  0.84366  0.97580  Biso   1.000  P
  P4       1.0000 0.31679  0.34366  0.02420  Biso   1.000  P
  O1       1.0000 0.80250  0.89020  0.32260  Biso   1.000  O
  O2       1.0000 0.19750  0.39020  0.67740  Biso   1.000  O
  O3       1.0000 0.93420  0.82720  0.44840  Biso   1.000  O
  O4       1.0000 0.06580  0.32720  0.55160  Biso   1.000  O
  O5       1.0000 0.84650  0.87340  0.60930  Biso   1.000  O
  O6       1.0000 0.15350  0.37340  0.39070  Biso   1.000  O
  O7       1.0000 0.69170  0.97240  0.56050  Biso   1.000  O
  O8       1.0000 0.30830  0.47240  0.43950  Biso   1.000  O
  O9       1.0000 0.85040  0.00120  0.37790  Biso   1.000  O
  O10      1.0000 0.14960  0.50120  0.62210  Biso   1.000  O
  O11      1.0000 0.81530  0.12460  0.47670  Biso   1.000  O
  O12      1.0000 0.18470  0.62460  0.52330  Biso   1.000  O
  O13      1.0000 0.80120  0.95160  0.16990  Biso   1.000  O
  O14      1.0000 0.19880  0.45160  0.83010  Biso   1.000  O
  O15      1.0000 0.87600  0.83150  0.19430  Biso   1.000  O
  O16      1.0000 0.12400  0.33150  0.80570  Biso   1.000  O
  O17      1.0000 0.69710  0.84658  0.19060  Biso   1.000  O
  O18      1.0000 0.30290  0.34658  0.80940  Biso   1.000  O
  O19      1.0000 0.67510  0.83310  0.86480  Biso   1.000  O
  O20      1.0000 0.32490  0.33310  0.13520  Biso   1.000  O
  O21      1.0000 0.73030  0.77520  0.69840  Biso   1.000  O
  O22      1.0000 0.26970  0.27520  0.30160  Biso   1.000  O
  O23      1.0000 0.59860  0.84830  0.57560  Biso   1.000  O
  O24      1.0000 0.40140  0.34830  0.42440  Biso   1.000  O
  O25      1.0000 0.45220  0.92130  0.66120  Biso   1.000  O
  O26      1.0000 0.54780  0.42130  0.33880  Biso   1.000  O
  O27      1.0000 0.52380  0.78250  0.83040  Biso   1.000  O
  O28      1.0000 0.47620  0.28250  0.16960  Biso   1.000  O
  O29      1.0000 0.33150  0.77860  0.76930  Biso   1.000  O
  O30      1.0000 0.66850  0.27860  0.23070  Biso   1.000  O
  O31      1.0000 0.68740  0.77146  0.02020  Biso   1.000  O
  O32      1.0000 0.31260  0.27146  0.97980  Biso   1.000  O
  O33      1.0000 0.59760  0.88640  0.99590  Biso   1.000  O
  O34      1.0000 0.40240  0.38640  0.00410  Biso   1.000  O
  O35      1.0000 0.77700  0.88210  0.99460  Biso   1.000  O
  O36      1.0000 0.22300  0.38210  0.00540  Biso   1.000  O
  O37      1.0000 0.96270  0.90300  0.05650  Biso   1.000  O
  O38      1.0000 0.03730  0.40300  0.94350  Biso   1.000  O
  O39      1.0000 0.03200  0.98910  0.14240  Biso   1.000  O
  O40      1.0000 0.96800  0.48910  0.85760  Biso   1.000  O
  O41      1.0000 0.07200  0.80510  0.15230  Biso   1.000  O
  O42      1.0000 0.92800  0.30510  0.84770  Biso   1.000  O
  O43      1.0000 0.22250  0.95100  0.09440  Biso   1.000  O
  O44      1.0000 0.77750  0.45100  0.90560  Biso   1.000  O
  O45      1.0000 0.30650  0.86340  0.24240  Biso   1.000  O
  O46      1.0000 0.69350  0.36340  0.75760  Biso   1.000  O
  O47      1.0000 0.39210  0.89650  0.06900  Biso   1.000  O
  O48      1.0000 0.60790  0.39650  0.93100  Biso   1.000  O
  O49      1.0000 0.41720  0.72440  0.16080  Biso   1.000  O
  O50      1.0000 0.58280  0.22440  0.83920  Biso   1.000  O
  O51      1.0000 0.52050  0.80950  0.14290  Biso   1.000  O
  O52      1.0000 0.47950  0.30950  0.85710  Biso   1.000  O
  O53      1.0000 0.74400  0.52290  0.73700  Biso   1.000  O
  O54      1.0000 0.25600  0.02290  0.26300  Biso   1.000  O
  O55      1.0000 0.72920  0.62610  0.67510  Biso   1.000  O
  O56      1.0000 0.27080  0.12610  0.32490  Biso   1.000  O
  O57      1.0000 0.67150  0.60540  0.80470  Biso   1.000  O
  O58      1.0000 0.32850  0.10540  0.19530  Biso   1.000  O
  O59      1.0000 0.85100  0.45730  0.31560  Biso   1.000  O
  O60      1.0000 0.14900  0.95730  0.68440  Biso   1.000  O
  O61      1.0000 0.82320  0.34730  0.32400  Biso   1.000  O
  O62      1.0000 0.17680  0.84730  0.67600  Biso   1.000  O
  O63      1.0000 0.86370  0.39030  0.19730  Biso   1.000  O
  O64      1.0000 0.13630  0.89030  0.80270  Biso   1.000  O
  O65      1.0000 0.00050  0.61950  0.56180  Biso   1.000  O
  O66      1.0000 0.99950  0.11950  0.43820  Biso   1.000  O
  O67      1.0000 0.04340  0.76460  0.32130  Biso   1.000  O
  O68      1.0000 0.95660  0.26460  0.67870  Biso   1.000  O
  O69      1.0000 0.61550  0.06540  0.74100  Biso   1.000  O
  O70      1.0000 0.38450  0.56540  0.25900  Biso   1.000  O
  O71      1.0000 0.71180  0.39840  0.45720  Biso   1.000  O
  O72      1.0000 0.28820  0.89840  0.54280  Biso   1.000  O
  O73      1.0000 0.07270  0.02830  0.32600  Biso   1.000  O
  O74      1.0000 0.92730  0.52830  0.67400  Biso   1.000  O
  O75      1.0000 0.03750  0.76220  0.59000  Biso   1.000  O
  O76      1.0000 0.96250  0.26220  0.41000  Biso   1.000  O
  O77      1.0000 0.36100  0.71800  0.34880  Biso   1.000  O
  O78      1.0000 0.63900  0.21800  0.65120  Biso   1.000  O
  N1       1.0000 0.83990  0.07430  0.08040  Biso   1.000  N
  N2       1.0000 0.16010  0.57430  0.91960  Biso   1.000  N
  N3       1.0000 0.84070  0.01310  0.92140  Biso   1.000  N
  N4       1.0000 0.15930  0.51310  0.07860  Biso   1.000  N
  N5       1.0000 0.93240  0.76970  0.95040  Biso   1.000  N
  N6       1.0000 0.06760  0.26970  0.04960  Biso   1.000  N
  N7       1.0000 0.89530  0.70360  0.09880  Biso   1.000  N
  N8       1.0000 0.10470  0.20360  0.90120  Biso   1.000  N
  N9       1.0000 0.57940  0.01070  0.09520  Biso   1.000  N
  N10      1.0000 0.42060  0.51070  0.90480  Biso   1.000  N
  N11      1.0000 0.53260  0.94600  0.24190  Biso   1.000  N
  N12      1.0000 0.46740  0.44600  0.75810  Biso   1.000  N
  N13      1.0000 0.66230  0.71270  0.27770  Biso   1.000  N
  N14      1.0000 0.33770  0.21270  0.72230  Biso   1.000  N
  N15      1.0000 0.64440  0.65150  0.11650  Biso   1.000  N
  N16      1.0000 0.35560  0.15150  0.88350  Biso   1.000  N
  N17      1.0000 0.71490  0.58560  0.73920  Biso   1.000  N
  N18      1.0000 0.28510  0.08560  0.26080  Biso   1.000  N
  N19      1.0000 0.84840  0.39950  0.28220  Biso   1.000  N
  N20      1.0000 0.15160  0.89950  0.71780  Biso   1.000  N
  C1       1.0000 0.87780  0.93100  0.36810  Biso   1.000  C
  C2       1.0000 0.12220  0.43100  0.63190  Biso   1.000  C
  C3       1.0000 0.90380  0.89650  0.46340  Biso   1.000  C
  C4       1.0000 0.09620  0.39650  0.53660  Biso   1.000  C
  C5       1.0000 0.81760  0.89930  0.51830  Biso   1.000  C
  C6       1.0000 0.18240  0.39930  0.48170  Biso   1.000  C
  C7       1.0000 0.78010  0.97360  0.52080  Biso   1.000  C
  C8       1.0000 0.21990  0.47360  0.47920  Biso   1.000  C
  C9       1.0000 0.76510  0.00730  0.42430  Biso   1.000  C
  C10      1.0000 0.23490  0.50730  0.57570  Biso   1.000  C
  C11      1.0000 0.74290  0.08560  0.42550  Biso   1.000  C
  C12      1.0000 0.25710  0.58560  0.57450  Biso   1.000  C
  C13      1.0000 0.62160  0.77810  0.81880  Biso   1.000  C
  C14      1.0000 0.37840  0.27810  0.18120  Biso   1.000  C
  C15      1.0000 0.63280  0.78090  0.71570  Biso   1.000  C
  C16      1.0000 0.36720  0.28090  0.28430  Biso   1.000  C
  C17      1.0000 0.59210  0.84890  0.67310  Biso   1.000  C
  C18      1.0000 0.40790  0.34890  0.32690  Biso   1.000  C
  C19      1.0000 0.48810  0.85430  0.69160  Biso   1.000  C
  C20      1.0000 0.51190  0.35430  0.30840  Biso   1.000  C
  C21      1.0000 0.47790  0.84510  0.79480  Biso   1.000  C
  C22      1.0000 0.52210  0.34510  0.20520  Biso   1.000  C
  C23      1.0000 0.37540  0.83850  0.81490  Biso   1.000  C
  C24      1.0000 0.62460  0.33850  0.18510  Biso   1.000  C
  C25      1.0000 0.88190  0.67330  0.18250  Biso   1.000  C
  C26      1.0000 0.11810  0.17330  0.81750  Biso   1.000  C
  C27      1.0000 0.87280  0.60170  0.19370  Biso   1.000  C
  C28      1.0000 0.12720  0.10170  0.80630  Biso   1.000  C
  C29      1.0000 0.87490  0.55840  0.11420  Biso   1.000  C
  C30      1.0000 0.12510  0.05840  0.88580  Biso   1.000  C
  C31      1.0000 0.88710  0.58850  0.02940  Biso   1.000  C
  C32      1.0000 0.11290  0.08850  0.97060  Biso   1.000  C
  C33      1.0000 0.89720  0.66110  0.02350  Biso   1.000  C
  C34      1.0000 0.10280  0.16110  0.97650  Biso   1.000  C
  C35      1.0000 0.91350  0.69960  0.93930  Biso   1.000  C
  C36      1.0000 0.08650  0.19960  0.06070  Biso   1.000  C
  C37      1.0000 0.91230  0.66850  0.85050  Biso   1.000  C
  C38      1.0000 0.08770  0.16850  0.14950  Biso   1.000  C
  C39      1.0000 0.92910  0.71030  0.77540  Biso   1.000  C
  C40      1.0000 0.07090  0.21030  0.22460  Biso   1.000  C
  C41      1.0000 0.94870  0.78080  0.78880  Biso   1.000  C
  C42      1.0000 0.05130  0.28080  0.21120  Biso   1.000  C
  C43      1.0000 0.95080  0.80740  0.87790  Biso   1.000  C
  C44      1.0000 0.04920  0.30740  0.12210  Biso   1.000  C
  C45      1.0000 0.84530  0.97460  0.84360  Biso   1.000  C
  C46      1.0000 0.15470  0.47460  0.15640  Biso   1.000  C
  C47      1.0000 0.86870  0.00540  0.76150  Biso   1.000  C
  C48      1.0000 0.13130  0.50540  0.23850  Biso   1.000  C
  C49      1.0000 0.88360  0.07780  0.75960  Biso   1.000  C
  C50      1.0000 0.11640  0.57780  0.24040  Biso   1.000  C
  C51      1.0000 0.87650  0.11670  0.83820  Biso   1.000  C
  C52      1.0000 0.12350  0.61670  0.16180  Biso   1.000  C
  C53      1.0000 0.85520  0.08360  0.91890  Biso   1.000  C
  C54      1.0000 0.14480  0.58360  0.08110  Biso   1.000  C
  C55      1.0000 0.84940  0.11840  0.00910  Biso   1.000  C
  C56      1.0000 0.15060  0.61840  0.99090  Biso   1.000  C
  C57      1.0000 0.84950  0.19090  0.02170  Biso   1.000  C
  C58      1.0000 0.15050  0.69090  0.97830  Biso   1.000  C
  C59      1.0000 0.84110  0.21820  0.10790  Biso   1.000  C
  C60      1.0000 0.15890  0.71820  0.89210  Biso   1.000  C
  C61      1.0000 0.83270  0.17270  0.18200  Biso   1.000  C
  C62      1.0000 0.16730  0.67270  0.81800  Biso   1.000  C
  C63      1.0000 0.83380  0.10100  0.16630  Biso   1.000  C
  C64      1.0000 0.16620  0.60100  0.83370  Biso   1.000  C
  C65      1.0000 0.64200  0.62480  0.03130  Biso   1.000  C
  C66      1.0000 0.35800  0.12480  0.96870  Biso   1.000  C
  C67      1.0000 0.62850  0.55480  0.01350  Biso   1.000  C
  C68      1.0000 0.37150  0.05480  0.98650  Biso   1.000  C
  C69      1.0000 0.61420  0.51020  0.08570  Biso   1.000  C
  C70      1.0000 0.38580  0.01020  0.91430  Biso   1.000  C
  C71      1.0000 0.61730  0.53690  0.17530  Biso   1.000  C
  C72      1.0000 0.38270  0.03690  0.82470  Biso   1.000  C
  C73      1.0000 0.63340  0.60750  0.18830  Biso   1.000  C
  C74      1.0000 0.36660  0.10750  0.81170  Biso   1.000  C
  C75      1.0000 0.64460  0.64320  0.28010  Biso   1.000  C
  C76      1.0000 0.35540  0.14320  0.71990  Biso   1.000  C
  C77      1.0000 0.64180  0.60790  0.36400  Biso   1.000  C
  C78      1.0000 0.35820  0.10790  0.63600  Biso   1.000  C
  C79      1.0000 0.65730  0.64440  0.44740  Biso   1.000  C
  C80      1.0000 0.34270  0.14440  0.55260  Biso   1.000  C
  C81      1.0000 0.67620  0.71690  0.44400  Biso   1.000  C
  C82      1.0000 0.32380  0.21690  0.55600  Biso   1.000  C
  C83      1.0000 0.67700  0.74850  0.35790  Biso   1.000  C
  C84      1.0000 0.32300  0.24850  0.64210  Biso   1.000  C
  C85      1.0000 0.51360  0.90600  0.31490  Biso   1.000  C
  C86      1.0000 0.48640  0.40600  0.68510  Biso   1.000  C
  C87      1.0000 0.49410  0.93730  0.39900  Biso   1.000  C
  C88      1.0000 0.50590  0.43730  0.60100  Biso   1.000  C
  C89      1.0000 0.49410  0.00980  0.40490  Biso   1.000  C
  C90      1.0000 0.50590  0.50980  0.59510  Biso   1.000  C
  C91      1.0000 0.51310  0.05030  0.33050  Biso   1.000  C
  C92      1.0000 0.48690  0.55030  0.66950  Biso   1.000  C
  C93      1.0000 0.53430  0.01620  0.24920  Biso   1.000  C
  C94      1.0000 0.46570  0.51620  0.75080  Biso   1.000  C
  C95      1.0000 0.56020  0.05410  0.16570  Biso   1.000  C
  C96      1.0000 0.43980  0.55410  0.83430  Biso   1.000  C
  C97      1.0000 0.56450  0.12630  0.15720  Biso   1.000  C
  C98      1.0000 0.43550  0.62630  0.84280  Biso   1.000  C
  C99      1.0000 0.58990  0.15490  0.07480  Biso   1.000  C
  C100     1.0000 0.41010  0.65490  0.92520  Biso   1.000  C
  C101     1.0000 0.60990  0.11170  0.00420  Biso   1.000  C
  C102     1.0000 0.39010  0.61170  0.99580  Biso   1.000  C
  C103     1.0000 0.60370  0.03850  0.01600  Biso   1.000  C
  C104     1.0000 0.39630  0.53850  0.98400  Biso   1.000  C
  C105     1.0000 0.02900  0.92810  0.11930  Biso   1.000  C
  C106     1.0000 0.97100  0.42810  0.88070  Biso   1.000  C
  C107     1.0000 0.10300  0.87550  0.15980  Biso   1.000  C
  C108     1.0000 0.89700  0.37550  0.84020  Biso   1.000  C
  C109     1.0000 0.19220  0.87990  0.10640  Biso   1.000  C
  C110     1.0000 0.80780  0.37990  0.89360  Biso   1.000  C
  C111     1.0000 0.27440  0.83510  0.15250  Biso   1.000  C
  C112     1.0000 0.72560  0.33510  0.84750  Biso   1.000  C
  C113     1.0000 0.35660  0.82950  0.09090  Biso   1.000  C
  C114     1.0000 0.64340  0.32950  0.90910  Biso   1.000  C
  C115     1.0000 0.43650  0.78390  0.13600  Biso   1.000  C
  C116     1.0000 0.56350  0.28390  0.86400  Biso   1.000  C
  C117     1.0000 0.93730  0.61710  0.47750  Biso   1.000  C
  C118     1.0000 0.06270  0.11710  0.52250  Biso   1.000  C
  C119     1.0000 0.13620  0.76260  0.37540  Biso   1.000  C
  C120     1.0000 0.86380  0.26260  0.62460  Biso   1.000  C
  C121     1.0000 0.65610  0.08460  0.65930  Biso   1.000  C
  C122     1.0000 0.34390  0.58460  0.34070  Biso   1.000  C
  C123     1.0000 0.75280  0.44370  0.52700  Biso   1.000  C
  C124     1.0000 0.24720  0.94370  0.47300  Biso   1.000  C
  C125     1.0000 0.41680  0.74930  0.43060  Biso   1.000  C
  C126     1.0000 0.58320  0.24930  0.56940  Biso   1.000  C
  H1       1.0000 0.62920  0.55880  0.36420  Biso   1.000  H
  H2       1.0000 0.37080  0.05880  0.63580  Biso   1.000  H
  H3       1.0000 0.86800  0.50890  0.11930  Biso   1.000  H
  H4       1.0000 0.13200  0.00890  0.88070  Biso   1.000  H
  H5       1.0000 0.87880  0.70300  0.23510  Biso   1.000  H
  H6       1.0000 0.12120  0.20300  0.76490  Biso   1.000  H
  H7       1.0000 0.82630  0.19060  0.24240  Biso   1.000  H
  H8       1.0000 0.17370  0.69060  0.75760  Biso   1.000  H
  H9       1.0000 0.70840  0.98330  0.39790  Biso   1.000  H
  H10      1.0000 0.29160  0.48330  0.60210  Biso   1.000  H
  H11      1.0000 0.40130  0.92040  0.61840  Biso   1.000  H
  H12      1.0000 0.59870  0.42040  0.38160  Biso   1.000  H
  H13      1.0000 0.51340  0.85620  0.30940  Biso   1.000  H
  H14      1.0000 0.48660  0.35620  0.69060  Biso   1.000  H
  H15      1.0000 0.48110  0.90920  0.45060  Biso   1.000  H
  H16      1.0000 0.51890  0.40920  0.54940  Biso   1.000  H
  H17      1.0000 0.48070  0.03190  0.46120  Biso   1.000  H
  H18      1.0000 0.51930  0.53190  0.53880  Biso   1.000  H
  H19      1.0000 0.51200  0.10020  0.33390  Biso   1.000  H
  H20      1.0000 0.48800  0.60020  0.66610  Biso   1.000  H
  H21      1.0000 0.59330  0.20450  0.06780  Biso   1.000  H
  H22      1.0000 0.40670  0.70450  0.93220  Biso   1.000  H
  H23      1.0000 0.62780  0.13080  0.94780  Biso   1.000  H
  H24      1.0000 0.37220  0.63080  0.05220  Biso   1.000  H
  H25      1.0000 0.90000  0.61960  0.84220  Biso   1.000  H
  H26      1.0000 0.10000  0.11960  0.15780  Biso   1.000  H
  H27      1.0000 0.86520  0.58200  0.25300  Biso   1.000  H
  H28      1.0000 0.13480  0.08200  0.74700  Biso   1.000  H
  H29      1.0000 0.84100  0.26760  0.11720  Biso   1.000  H
  H30      1.0000 0.15900  0.76760  0.88280  Biso   1.000  H
  H31      1.0000 0.88610  0.16620  0.83750  Biso   1.000  H
  H32      1.0000 0.11390  0.66620  0.16250  Biso   1.000  H
  H33      1.0000 0.96640  0.85570  0.88750  Biso   1.000  H
  H34      1.0000 0.03360  0.35570  0.11250  Biso   1.000  H
  H35      1.0000 0.96040  0.81030  0.73810  Biso   1.000  H
  H36      1.0000 0.03960  0.31030  0.26190  Biso   1.000  H
  H37      1.0000 0.83690  0.00660  0.57310  Biso   1.000  H
  H38      1.0000 0.16310  0.50660  0.42690  Biso   1.000  H
  H39      1.0000 0.60850  0.50700  0.22650  Biso   1.000  H
  H40      1.0000 0.39150  0.00700  0.77350  Biso   1.000  H
  H41      1.0000 0.62240  0.90640  0.70940  Biso   1.000  H
  H42      1.0000 0.37760  0.40640  0.29060  Biso   1.000  H
  H43      1.0000 0.52900  0.87660  0.84180  Biso   1.000  H
  H44      1.0000 0.47100  0.37660  0.15820  Biso   1.000  H
  H45      1.0000 0.33830  0.89120  0.78730  Biso   1.000  H
  H46      1.0000 0.66170  0.39120  0.21270  Biso   1.000  H
  H47      1.0000 0.24970  0.78650  0.16170  Biso   1.000  H
  H48      1.0000 0.75030  0.28650  0.83830  Biso   1.000  H
  H49      1.0000 0.88860  0.55990  0.97550  Biso   1.000  H
  H50      1.0000 0.11140  0.05990  0.02450  Biso   1.000  H
  H51      1.0000 0.83030  0.06970  0.21710  Biso   1.000  H
  H52      1.0000 0.16970  0.56970  0.78290  Biso   1.000  H
  H53      1.0000 0.96530  0.92920  0.47880  Biso   1.000  H
  H54      1.0000 0.03470  0.42920  0.52120  Biso   1.000  H
  H55      1.0000 0.89870  0.10000  0.70400  Biso   1.000  H
  H56      1.0000 0.10130  0.60000  0.29600  Biso   1.000  H
  H57      1.0000 0.36950  0.83000  0.89650  Biso   1.000  H
  H58      1.0000 0.63050  0.33000  0.10350  Biso   1.000  H
  H59      1.0000 0.27400  0.80100  0.74800  Biso   1.000  H
  H60      1.0000 0.72600  0.30100  0.25200  Biso   1.000  H
  H61      1.0000 0.73080  0.12170  0.34930  Biso   1.000  H
  H62      1.0000 0.26920  0.62170  0.65070  Biso   1.000  H
  H63      1.0000 0.10660  0.88660  0.22050  Biso   1.000  H
  H64      1.0000 0.89340  0.38660  0.77950  Biso   1.000  H
  H65      1.0000 0.19930  0.88030  0.04260  Biso   1.000  H
  H66      1.0000 0.80070  0.38030  0.95740  Biso   1.000  H
  H67      1.0000 0.34790  0.82090  0.03960  Biso   1.000  H
  H68      1.0000 0.65210  0.32090  0.96040  Biso   1.000  H
  H69      1.0000 0.36310  0.88810  0.30210  Biso   1.000  H
  H70      1.0000 0.63690  0.38810  0.69790  Biso   1.000  H
  H71      1.0000 0.76670  0.86800  0.48770  Biso   1.000  H
  H72      1.0000 0.23330  0.36800  0.51230  Biso   1.000  H
  H73      1.0000 0.94320  0.93300  0.33860  Biso   1.000  H
  H74      1.0000 0.05680  0.43300  0.66140  Biso   1.000  H
  H75      1.0000 0.87300  0.10230  0.43220  Biso   1.000  H
  H76      1.0000 0.12700  0.60230  0.56780  Biso   1.000  H
  H77      1.0000 0.65010  0.65560  0.98090  Biso   1.000  H
  H78      1.0000 0.34990  0.15560  0.01910  Biso   1.000  H
  H79      1.0000 0.62900  0.53710  0.95200  Biso   1.000  H
  H80      1.0000 0.37100  0.03710  0.04800  Biso   1.000  H
  H81      1.0000 0.60230  0.46160  0.07430  Biso   1.000  H
  H82      1.0000 0.39770  0.96160  0.92570  Biso   1.000  H
  H83      1.0000 0.75210  0.71450  0.69900  Biso   1.000  H
  H84      1.0000 0.24790  0.21450  0.30100  Biso   1.000  H
  H85      1.0000 0.67040  0.80290  0.34520  Biso   1.000  H
  H86      1.0000 0.32960  0.30290  0.65480  Biso   1.000  H
  H87      1.0000 0.68800  0.74360  0.49970  Biso   1.000  H
  H88      1.0000 0.31200  0.24360  0.50030  Biso   1.000  H
  H89      1.0000 0.55040  0.15590  0.20690  Biso   1.000  H
  H90      1.0000 0.44960  0.65590  0.79310  Biso   1.000  H
  H91      1.0000 0.61700  0.00820  0.96670  Biso   1.000  H
  H92      1.0000 0.38300  0.50820  0.03330  Biso   1.000  H
  H93      1.0000 0.95230  0.81480  0.49120  Biso   1.000  H
  H94      1.0000 0.04770  0.31480  0.50880  Biso   1.000  H
  H95      1.0000 0.06000  0.79900  0.18400  Biso   1.000  H
  H96      1.0000 0.94000  0.29900  0.81600  Biso   1.000  H
  H97      1.0000 0.67930  0.10380  0.44860  Biso   1.000  H
  H98      1.0000 0.32070  0.60380  0.55140  Biso   1.000  H
  H99      1.0000 0.61650  0.87790  0.57640  Biso   1.000  H
  H100     1.0000 0.38350  0.37790  0.42360  Biso   1.000  H
  H101     1.0000 0.59330  0.74000  0.69330  Biso   1.000  H
  H102     1.0000 0.40670  0.24000  0.30670  Biso   1.000  H
  H103     1.0000 0.65520  0.62100  0.50530  Biso   1.000  H
  H104     1.0000 0.34480  0.12100  0.49470  Biso   1.000  H
  H105     1.0000 0.65130  0.93930  0.56640  Biso   1.000  H
  H106     1.0000 0.34870  0.43930  0.43360  Biso   1.000  H
  H107     1.0000 0.22570  0.97710  0.15580  Biso   1.000  H
  H108     1.0000 0.77430  0.47710  0.84420  Biso   1.000  H
  H109     1.0000 0.83230  0.92560  0.84480  Biso   1.000  H
  H110     1.0000 0.16770  0.42560  0.15520  Biso   1.000  H
  H111     1.0000 0.87430  0.97750  0.70770  Biso   1.000  H
  H112     1.0000 0.12570  0.47750  0.29230  Biso   1.000  H
  H113     1.0000 0.92720  0.69050  0.71490  Biso   1.000  H
  H114     1.0000 0.07280  0.19050  0.28510  Biso   1.000  H
  H115     1.0000 0.85550  0.22130  0.97050  Biso   1.000  H
  H116     1.0000 0.14450  0.72130  0.02950  Biso   1.000  H
  H117     1.0000 0.34850  0.91490  0.06320  Biso   1.000  H
  H118     1.0000 0.65150  0.41490  0.93680  Biso   1.000  H
  H119     1.0000 0.45300  0.80200  0.64500  Biso   1.000  H
  H120     1.0000 0.54700  0.30200  0.35500  Biso   1.000  H
  H121     1.0000 0.79870  0.84760  0.62750  Biso   1.000  H
  H122     1.0000 0.20130  0.34760  0.37250  Biso   1.000  H
  H123     1.0000 0.64060  0.73160  0.82760  Biso   1.000  H
  H124     1.0000 0.35940  0.23160  0.17240  Biso   1.000  H
