data_image0
_cell_length_a       17.943
_cell_length_b       17.943
_cell_length_c       13.252
_cell_angle_alpha    90
_cell_angle_beta     90
_cell_angle_gamma    120

_symmetry_space_group_name_H-M    "P 1"
_symmetry_int_tables_number       1

loop_
  _symmetry_equiv_pos_as_xyz
  'x, y, z'

loop_
  _atom_site_label
  _atom_site_occupancy
  _atom_site_fract_x
  _atom_site_fract_y
  _atom_site_fract_z
  _atom_site_thermal_displace_type
  _atom_site_B_iso_or_equiv
  _atom_site_type_symbol
  Cu1      1.0000 0.73667  0.06689  0.35059  Biso   1.000  Cu
  Cu2      1.0000 0.93311  0.66978  0.68392  Biso   1.000  Cu
  Cu3      1.0000 0.33022  0.26333  0.01726  Biso   1.000  Cu
  O1       1.0000 0.73820  0.06870  0.53880  Biso   1.000  O
  O2       1.0000 0.93130  0.66950  0.87213  Biso   1.000  O
  O3       1.0000 0.33050  0.26180  0.20547  Biso   1.000  O
  O4       1.0000 0.72670  0.05660  0.17150  Biso   1.000  O
  O5       1.0000 0.94340  0.67010  0.50483  Biso   1.000  O
  O6       1.0000 0.32990  0.27330  0.83817  Biso   1.000  O
  N1       1.0000 0.69920  0.93970  0.35880  Biso   1.000  N
  N2       1.0000 0.06030  0.75950  0.69213  Biso   1.000  N
  N3       1.0000 0.24050  0.30080  0.02547  Biso   1.000  N
  O7       1.0000 0.65410  0.67120  0.52470  Biso   1.000  O
  O8       1.0000 0.32880  0.98290  0.85803  Biso   1.000  O
  O9       1.0000 0.01710  0.34590  0.19137  Biso   1.000  O
  C1       1.0000 0.66710  0.77190  0.39670  Biso   1.000  C
  C2       1.0000 0.22810  0.89520  0.73003  Biso   1.000  C
  C3       1.0000 0.10480  0.33290  0.06337  Biso   1.000  C
  C4       1.0000 0.63170  0.81090  0.46110  Biso   1.000  C
  C5       1.0000 0.18910  0.82080  0.79443  Biso   1.000  C
  C6       1.0000 0.17920  0.36830  0.12777  Biso   1.000  C
  H1       1.0000 0.59740  0.78080  0.51590  Biso   1.000  H
  H2       1.0000 0.21920  0.81660  0.84923  Biso   1.000  H
  H3       1.0000 0.18340  0.40260  0.18257  Biso   1.000  H
  C7       1.0000 0.64880  0.89150  0.44110  Biso   1.000  C
  C8       1.0000 0.10850  0.75730  0.77443  Biso   1.000  C
  C9       1.0000 0.24270  0.35120  0.10777  Biso   1.000  C
  H4       1.0000 0.62620  0.91650  0.48370  Biso   1.000  H
  H5       1.0000 0.08350  0.70970  0.81703  Biso   1.000  H
  H6       1.0000 0.29030  0.37380  0.15037  Biso   1.000  H
  C10      1.0000 0.73200  0.90480  0.29630  Biso   1.000  C
  C11      1.0000 0.09520  0.82720  0.62963  Biso   1.000  C
  C12      1.0000 0.17280  0.26800  0.96297  Biso   1.000  C
  H7       1.0000 0.76710  0.93580  0.24240  Biso   1.000  H
  H8       1.0000 0.06420  0.83130  0.57573  Biso   1.000  H
  H9       1.0000 0.16870  0.23290  0.90907  Biso   1.000  H
  C13      1.0000 0.71080  0.81690  0.31570  Biso   1.000  C
  C14      1.0000 0.18310  0.89390  0.64903  Biso   1.000  C
  C15      1.0000 0.10610  0.28920  0.98237  Biso   1.000  C
  H10      1.0000 0.72870  0.79020  0.26920  Biso   1.000  H
  H11      1.0000 0.20980  0.93850  0.60253  Biso   1.000  H
  H12      1.0000 0.06150  0.27130  0.93587  Biso   1.000  H
  C16      1.0000 0.65350  0.68510  0.42750  Biso   1.000  C
  C17      1.0000 0.31490  0.96840  0.76083  Biso   1.000  C
  C18      1.0000 0.03160  0.34650  0.09417  Biso   1.000  C
  N4       1.0000 0.77470  0.19540  0.34850  Biso   1.000  N
  N5       1.0000 0.80460  0.57930  0.68183  Biso   1.000  N
  N6       1.0000 0.42070  0.22530  0.01517  Biso   1.000  N
  O10      1.0000 0.88910  0.50800  0.41720  Biso   1.000  O
  O11      1.0000 0.49200  0.38110  0.75053  Biso   1.000  O
  O12      1.0000 0.61890  0.11090  0.08387  Biso   1.000  O
  C19      1.0000 0.82370  0.36660  0.34690  Biso   1.000  C
  C20      1.0000 0.63340  0.45710  0.68023  Biso   1.000  C
  C21      1.0000 0.54290  0.17630  0.01357  Biso   1.000  C
  C22      1.0000 0.86080  0.33650  0.40950  Biso   1.000  C
  C23      1.0000 0.66350  0.52430  0.74283  Biso   1.000  C
  C24      1.0000 0.47570  0.13920  0.07617  Biso   1.000  C
  H13      1.0000 0.90460  0.37440  0.45220  Biso   1.000  H
  H14      1.0000 0.62560  0.53020  0.78553  Biso   1.000  H
  H15      1.0000 0.46980  0.09540  0.11887  Biso   1.000  H
  C25      1.0000 0.83620  0.25340  0.41180  Biso   1.000  C
  C26      1.0000 0.74660  0.58280  0.74513  Biso   1.000  C
  C27      1.0000 0.41720  0.16380  0.07847  Biso   1.000  C
  H16      1.0000 0.86170  0.23420  0.45820  Biso   1.000  H
  H17      1.0000 0.76580  0.62750  0.79153  Biso   1.000  H
  H18      1.0000 0.37250  0.13830  0.12487  Biso   1.000  H
  C28      1.0000 0.73380  0.22360  0.28800  Biso   1.000  C
  C29      1.0000 0.77640  0.51020  0.62133  Biso   1.000  C
  C30      1.0000 0.48980  0.26620  0.95467  Biso   1.000  C
  H19      1.0000 0.68770  0.18450  0.24890  Biso   1.000  H
  H20      1.0000 0.81550  0.50320  0.58223  Biso   1.000  H
  H21      1.0000 0.49680  0.31230  0.91557  Biso   1.000  H
  C31      1.0000 0.75970  0.31060  0.28320  Biso   1.000  C
  C32      1.0000 0.68940  0.44910  0.61653  Biso   1.000  C
  C33      1.0000 0.55090  0.24030  0.94987  Biso   1.000  C
  H22      1.0000 0.73420  0.33050  0.23770  Biso   1.000  H
  H23      1.0000 0.66950  0.40370  0.57103  Biso   1.000  H
  H24      1.0000 0.59630  0.26580  0.90437  Biso   1.000  H
  C34      1.0000 0.85350  0.46450  0.34740  Biso   1.000  C
  C35      1.0000 0.53550  0.38900  0.68073  Biso   1.000  C
  C36      1.0000 0.61100  0.14650  0.01407  Biso   1.000  C
  N7       1.0000 0.64100  0.63140  0.35510  Biso   1.000  N
  N8       1.0000 0.36860  0.00960  0.68843  Biso   1.000  N
  N9       1.0000 0.99040  0.35900  0.02177  Biso   1.000  N
  H25      1.0000 0.63540  0.64370  0.29390  Biso   1.000  H
  H26      1.0000 0.35630  0.99170  0.62723  Biso   1.000  H
  H27      1.0000 0.00830  0.36460  0.96057  Biso   1.000  H
  N10      1.0000 0.83400  0.49300  0.26130  Biso   1.000  N
  N11      1.0000 0.50700  0.34100  0.59463  Biso   1.000  N
  N12      1.0000 0.65900  0.16600  0.92797  Biso   1.000  N
  H28      1.0000 0.81320  0.45850  0.21070  Biso   1.000  H
  H29      1.0000 0.54150  0.35470  0.54403  Biso   1.000  H
  H30      1.0000 0.64530  0.18680  0.87737  Biso   1.000  H
  C37      1.0000 0.63630  0.54620  0.38010  Biso   1.000  C
  C38      1.0000 0.45380  0.09010  0.71343  Biso   1.000  C
  C39      1.0000 0.90990  0.36370  0.04677  Biso   1.000  C
  H31      1.0000 0.59570  0.50120  0.33570  Biso   1.000  H
  H32      1.0000 0.49880  0.09450  0.66903  Biso   1.000  H
  H33      1.0000 0.90550  0.40430  0.00237  Biso   1.000  H
  H34      1.0000 0.61750  0.52980  0.44930  Biso   1.000  H
  H35      1.0000 0.47020  0.08770  0.78263  Biso   1.000  H
  H36      1.0000 0.91230  0.38250  0.11597  Biso   1.000  H
  C40      1.0000 0.73220  0.55980  0.36470  Biso   1.000  C
  C41      1.0000 0.44020  0.17240  0.69803  Biso   1.000  C
  C42      1.0000 0.82760  0.26780  0.03137  Biso   1.000  C
  H37      1.0000 0.77150  0.60600  0.40880  Biso   1.000  H
  H38      1.0000 0.39400  0.16550  0.74213  Biso   1.000  H
  H39      1.0000 0.83450  0.22850  0.07547  Biso   1.000  H
  H40      1.0000 0.73150  0.50780  0.38600  Biso   1.000  H
  H41      1.0000 0.49220  0.22370  0.71933  Biso   1.000  H
  H42      1.0000 0.77630  0.26850  0.05267  Biso   1.000  H
  C43      1.0000 0.76410  0.57910  0.26680  Biso   1.000  C
  C44      1.0000 0.42090  0.18500  0.60013  Biso   1.000  C
  C45      1.0000 0.81500  0.23590  0.93347  Biso   1.000  C
  H43      1.0000 0.77320  0.63540  0.24880  Biso   1.000  H
  H44      1.0000 0.36460  0.13780  0.58213  Biso   1.000  H
  H45      1.0000 0.86220  0.22680  0.91547  Biso   1.000  H
  H46      1.0000 0.72130  0.53750  0.22110  Biso   1.000  H
  H47      1.0000 0.46250  0.18380  0.55443  Biso   1.000  H
  H48      1.0000 0.81620  0.27870  0.88777  Biso   1.000  H
  C46      1.0000 0.84690  0.57870  0.25220  Biso   1.000  C
  C47      1.0000 0.42130  0.26820  0.58553  Biso   1.000  C
  C48      1.0000 0.73180  0.15310  0.91887  Biso   1.000  C
  H49      1.0000 0.87010  0.60150  0.18600  Biso   1.000  H
  H50      1.0000 0.39850  0.26860  0.51933  Biso   1.000  H
  H51      1.0000 0.73140  0.12990  0.85267  Biso   1.000  H
  H52      1.0000 0.88840  0.61570  0.30220  Biso   1.000  H
  H53      1.0000 0.38430  0.27270  0.63553  Biso   1.000  H
  H54      1.0000 0.72730  0.11160  0.96887  Biso   1.000  H
  N13      1.0000 0.60910  0.03230  0.35270  Biso   1.000  N
  N14      1.0000 0.96770  0.57680  0.68603  Biso   1.000  N
  N15      1.0000 0.42320  0.39090  0.01937  Biso   1.000  N
  O13      1.0000 0.32740  0.97480  0.47350  Biso   1.000  O
  O14      1.0000 0.02520  0.35260  0.80683  Biso   1.000  O
  O15      1.0000 0.64740  0.67260  0.14017  Biso   1.000  O
  C49      1.0000 0.43710  0.98090  0.37330  Biso   1.000  C
  C50      1.0000 0.01910  0.45620  0.70663  Biso   1.000  C
  C51      1.0000 0.54380  0.56290  0.03997  Biso   1.000  C
  C52      1.0000 0.49800  0.04730  0.42950  Biso   1.000  C
  C53      1.0000 0.95270  0.45070  0.76283  Biso   1.000  C
  C54      1.0000 0.54930  0.50200  0.09617  Biso   1.000  C
  H55      1.0000 0.48160  0.07650  0.47410  Biso   1.000  H
  H56      1.0000 0.92350  0.40510  0.80743  Biso   1.000  H
  H57      1.0000 0.59490  0.51840  0.14077  Biso   1.000  H
  C55      1.0000 0.58280  0.07100  0.42060  Biso   1.000  C
  C56      1.0000 0.92900  0.51180  0.75393  Biso   1.000  C
  C57      1.0000 0.48820  0.41720  0.08727  Biso   1.000  C
  H58      1.0000 0.62320  0.11440  0.46160  Biso   1.000  H
  H59      1.0000 0.88560  0.50880  0.79493  Biso   1.000  H
  H60      1.0000 0.49120  0.37680  0.12827  Biso   1.000  H
  C58      1.0000 0.55400  0.97560  0.29880  Biso   1.000  C
  C59      1.0000 0.02440  0.57840  0.63213  Biso   1.000  C
  C60      1.0000 0.42160  0.44600  0.96547  Biso   1.000  C
  H61      1.0000 0.57350  0.95190  0.25040  Biso   1.000  H
  H62      1.0000 0.04810  0.62160  0.58373  Biso   1.000  H
  H63      1.0000 0.37840  0.42650  0.91707  Biso   1.000  H
  C61      1.0000 0.46840  0.94440  0.30260  Biso   1.000  C
  C62      1.0000 0.05560  0.52400  0.63593  Biso   1.000  C
  C63      1.0000 0.47600  0.53160  0.96927  Biso   1.000  C
  H64      1.0000 0.43110  0.90020  0.26000  Biso   1.000  H
  H65      1.0000 0.09980  0.53090  0.59333  Biso   1.000  H
  H66      1.0000 0.46910  0.56890  0.92667  Biso   1.000  H
  C64      1.0000 0.34700  0.95660  0.39510  Biso   1.000  C
  C65      1.0000 0.04340  0.39040  0.72843  Biso   1.000  C
  C66      1.0000 0.60960  0.65300  0.06177  Biso   1.000  C
  N16      1.0000 0.86010  0.09380  0.35240  Biso   1.000  N
  N17      1.0000 0.90620  0.76630  0.68573  Biso   1.000  N
  N18      1.0000 0.23370  0.13990  0.01907  Biso   1.000  N
  O16      1.0000 0.17870  0.20330  0.31490  Biso   1.000  O
  O17      1.0000 0.79670  0.97540  0.64823  Biso   1.000  O
  O18      1.0000 0.02460  0.82130  0.98157  Biso   1.000  O
  C67      1.0000 0.02930  0.12180  0.35580  Biso   1.000  C
  C68      1.0000 0.87820  0.90750  0.68913  Biso   1.000  C
  C69      1.0000 0.09250  0.97070  0.02247  Biso   1.000  C
  C70      1.0000 0.96440  0.06160  0.41820  Biso   1.000  C
  C71      1.0000 0.93840  0.90280  0.75153  Biso   1.000  C
  C72      1.0000 0.09720  0.03560  0.08487  Biso   1.000  C
  H67      1.0000 0.97660  0.02810  0.46110  Biso   1.000  H
  H68      1.0000 0.97190  0.94850  0.79443  Biso   1.000  H
  H69      1.0000 0.05150  0.02340  0.12777  Biso   1.000  H
  C73      1.0000 0.88500  0.05100  0.41780  Biso   1.000  C
  C74      1.0000 0.94900  0.83400  0.75113  Biso   1.000  C
  C75      1.0000 0.16600  0.11500  0.08447  Biso   1.000  C
  H70      1.0000 0.84490  0.01290  0.46390  Biso   1.000  H
  H71      1.0000 0.98710  0.83200  0.79723  Biso   1.000  H
  H72      1.0000 0.16800  0.15510  0.13057  Biso   1.000  H
  C76      1.0000 0.92330  0.15070  0.28850  Biso   1.000  C
  C77      1.0000 0.84930  0.77260  0.62183  Biso   1.000  C
  C78      1.0000 0.22740  0.07670  0.95517  Biso   1.000  C
  H73      1.0000 0.90940  0.18110  0.24250  Biso   1.000  H
  H74      1.0000 0.81890  0.72830  0.57583  Biso   1.000  H
  H75      1.0000 0.27170  0.09060  0.90917  Biso   1.000  H
  C79      1.0000 0.00550  0.16480  0.28920  Biso   1.000  C
  C80      1.0000 0.83520  0.84070  0.62253  Biso   1.000  C
  C81      1.0000 0.15930  0.99450  0.95587  Biso   1.000  C
  H76      1.0000 0.04580  0.20400  0.24420  Biso   1.000  H
  H77      1.0000 0.79600  0.84180  0.57753  Biso   1.000  H
  H78      1.0000 0.15820  0.95420  0.91087  Biso   1.000  H
  C82      1.0000 0.12110  0.13560  0.35010  Biso   1.000  C
  C83      1.0000 0.86440  0.98550  0.68343  Biso   1.000  C
  C84      1.0000 0.01450  0.87890  0.01677  Biso   1.000  C
  N19      1.0000 0.28980  0.91430  0.31810  Biso   1.000  N
  N20      1.0000 0.08570  0.37550  0.65143  Biso   1.000  N
  N21      1.0000 0.62450  0.71020  0.98477  Biso   1.000  N
  H79      1.0000 0.30640  0.89720  0.26670  Biso   1.000  H
  H80      1.0000 0.10280  0.40920  0.60003  Biso   1.000  H
  H81      1.0000 0.59080  0.69360  0.93337  Biso   1.000  H
  N22      1.0000 0.13030  0.06950  0.38240  Biso   1.000  N
  N23      1.0000 0.93050  0.06080  0.71573  Biso   1.000  N
  N24      1.0000 0.93920  0.86970  0.04907  Biso   1.000  N
  H82      1.0000 0.08550  0.02140  0.39790  Biso   1.000  H
  H83      1.0000 0.97860  0.06410  0.73123  Biso   1.000  H
  H84      1.0000 0.93590  0.91450  0.06457  Biso   1.000  H
  C85      1.0000 0.20180  0.89800  0.32150  Biso   1.000  C
  C86      1.0000 0.10200  0.30380  0.65483  Biso   1.000  C
  C87      1.0000 0.69620  0.79820  0.98817  Biso   1.000  C
  H85      1.0000 0.18580  0.90040  0.39090  Biso   1.000  H
  H86      1.0000 0.09960  0.28540  0.72423  Biso   1.000  H
  H87      1.0000 0.71460  0.81420  0.05757  Biso   1.000  H
  H88      1.0000 0.16300  0.84070  0.29570  Biso   1.000  H
  H89      1.0000 0.15930  0.32230  0.62903  Biso   1.000  H
  H90      1.0000 0.67770  0.83700  0.96237  Biso   1.000  H
  C88      1.0000 0.19340  0.96110  0.26180  Biso   1.000  C
  C89      1.0000 0.03890  0.23230  0.59513  Biso   1.000  C
  C90      1.0000 0.76770  0.80660  0.92847  Biso   1.000  C
  H91      1.0000 0.13300  0.94450  0.26010  Biso   1.000  H
  H92      1.0000 0.05550  0.18850  0.59343  Biso   1.000  H
  H93      1.0000 0.81150  0.86700  0.92677  Biso   1.000  H
  H94      1.0000 0.21040  0.95810  0.19310  Biso   1.000  H
  H95      1.0000 0.04190  0.25230  0.52643  Biso   1.000  H
  H96      1.0000 0.74770  0.78960  0.85977  Biso   1.000  H
  C91      1.0000 0.24510  0.05610  0.29650  Biso   1.000  C
  C92      1.0000 0.94390  0.18900  0.62983  Biso   1.000  C
  C93      1.0000 0.81100  0.75490  0.96317  Biso   1.000  C
  H97      1.0000 0.30480  0.07110  0.30440  Biso   1.000  H
  H98      1.0000 0.92890  0.23370  0.63773  Biso   1.000  H
  H99      1.0000 0.76630  0.69520  0.97107  Biso   1.000  H
  H100     1.0000 0.24310  0.09180  0.24290  Biso   1.000  H
  H101     1.0000 0.90820  0.15130  0.57623  Biso   1.000  H
  H102     1.0000 0.84870  0.75690  0.90957  Biso   1.000  H
  C94      1.0000 0.21710  0.07870  0.39150  Biso   1.000  C
  C95      1.0000 0.92130  0.13840  0.72483  Biso   1.000  C
  C96      1.0000 0.86160  0.78290  0.05817  Biso   1.000  C
  H103     1.0000 0.21630  0.04170  0.44540  Biso   1.000  H
  H104     1.0000 0.95830  0.17460  0.77873  Biso   1.000  H
  H105     1.0000 0.82540  0.78370  0.11207  Biso   1.000  H
  H106     1.0000 0.25840  0.13770  0.40950  Biso   1.000  H
  H107     1.0000 0.86230  0.12070  0.74283  Biso   1.000  H
  H108     1.0000 0.87930  0.74160  0.07617  Biso   1.000  H
  Cl1      1.0000 0.89000  0.04870  0.02040  Biso   1.000  Cl
  Cl2      1.0000 0.95130  0.84130  0.35373  Biso   1.000  Cl
  Cl3      1.0000 0.15870  0.11000  0.68707  Biso   1.000  Cl
  O19      1.0000 0.81120  0.01890  0.96150  Biso   1.000  O
  O20      1.0000 0.98110  0.79230  0.29483  Biso   1.000  O
  O21      1.0000 0.20770  0.18880  0.62817  Biso   1.000  O
  O22      1.0000 0.91820  0.13370  0.04790  Biso   1.000  O
  O23      1.0000 0.86630  0.78450  0.38123  Biso   1.000  O
  O24      1.0000 0.21550  0.08180  0.71457  Biso   1.000  O
  O25      1.0000 0.94460  0.04310  0.95170  Biso   1.000  O
  O26      1.0000 0.95690  0.90150  0.28503  Biso   1.000  O
  O27      1.0000 0.09850  0.05540  0.61837  Biso   1.000  O
  O28      1.0000 0.88480  0.99690  0.10600  Biso   1.000  O
  O29      1.0000 0.00310  0.88790  0.43933  Biso   1.000  O
  O30      1.0000 0.11210  0.11520  0.77267  Biso   1.000  O
  Cl4      1.0000 0.53400  0.28880  0.32470  Biso   1.000  Cl
  Cl5      1.0000 0.71120  0.24520  0.65803  Biso   1.000  Cl
  Cl6      1.0000 0.75480  0.46600  0.99137  Biso   1.000  Cl
  O31      1.0000 0.57480  0.33550  0.23620  Biso   1.000  O
  O32      1.0000 0.66450  0.23930  0.56953  Biso   1.000  O
  O33      1.0000 0.76070  0.42520  0.90287  Biso   1.000  O
  O34      1.0000 0.58670  0.32050  0.41070  Biso   1.000  O
  O35      1.0000 0.67950  0.26620  0.74403  Biso   1.000  O
  O36      1.0000 0.73380  0.41330  0.07737  Biso   1.000  O
  O37      1.0000 0.49200  0.20870  0.32440  Biso   1.000  O
  O38      1.0000 0.79130  0.28330  0.65773  Biso   1.000  O
  O39      1.0000 0.71670  0.50800  0.99107  Biso   1.000  O
  O40      1.0000 0.47080  0.31330  0.33020  Biso   1.000  O
  O41      1.0000 0.68670  0.15750  0.66353  Biso   1.000  O
  O42      1.0000 0.84250  0.52920  0.99687  Biso   1.000  O
  O43      1.0000 0.13640  0.76330  0.04900  Biso   1.000  O
  O44      1.0000 0.23670  0.37310  0.38233  Biso   1.000  O
  O45      1.0000 0.62690  0.86360  0.71567  Biso   1.000  O
  O46      1.0000 0.57800  0.68700  0.75700  Biso   1.000  O
  O47      1.0000 0.31300  0.89100  0.09033  Biso   1.000  O
  O48      1.0000 0.10900  0.42200  0.42367  Biso   1.000  O
