data_image0
_cell_length_a       18.567
_cell_length_b       9.934
_cell_length_c       30.764
_cell_angle_alpha    90
_cell_angle_beta     90
_cell_angle_gamma    90

_symmetry_space_group_name_H-M    "P 1"
_symmetry_int_tables_number       1

loop_
  _symmetry_equiv_pos_as_xyz
  'x, y, z'

loop_
  _atom_site_label
  _atom_site_occupancy
  _atom_site_fract_x
  _atom_site_fract_y
  _atom_site_fract_z
  _atom_site_thermal_displace_type
  _atom_site_B_iso_or_equiv
  _atom_site_type_symbol
  Cu1      1.0000 0.00000  0.67876  0.25000  Biso   1.000  Cu
  Cu2      1.0000 0.50000  0.82124  0.75000  Biso   1.000  Cu
  Cu3      1.0000 0.00000  0.32124  0.75000  Biso   1.000  Cu
  Cu4      1.0000 0.50000  0.17876  0.25000  Biso   1.000  Cu
  O1       1.0000 0.00000  0.92290  0.25000  Biso   1.000  O
  O2       1.0000 0.50000  0.57710  0.75000  Biso   1.000  O
  O3       1.0000 0.00000  0.07710  0.75000  Biso   1.000  O
  O4       1.0000 0.50000  0.42290  0.25000  Biso   1.000  O
  O5       1.0000 0.00000  0.41870  0.25000  Biso   1.000  O
  O6       1.0000 0.50000  0.08130  0.75000  Biso   1.000  O
  O7       1.0000 0.00000  0.58130  0.75000  Biso   1.000  O
  O8       1.0000 0.50000  0.91870  0.25000  Biso   1.000  O
  N1       1.0000 0.92100  0.67490  0.20413  Biso   1.000  N
  N2       1.0000 0.57900  0.82510  0.70413  Biso   1.000  N
  N3       1.0000 0.07900  0.67490  0.29587  Biso   1.000  N
  N4       1.0000 0.42100  0.82510  0.79587  Biso   1.000  N
  N5       1.0000 0.07900  0.32510  0.79587  Biso   1.000  N
  N6       1.0000 0.42100  0.17490  0.29587  Biso   1.000  N
  N7       1.0000 0.92100  0.32510  0.70413  Biso   1.000  N
  N8       1.0000 0.57900  0.17490  0.20413  Biso   1.000  N
  O9       1.0000 0.72780  0.54230  0.09917  Biso   1.000  O
  O10      1.0000 0.77220  0.95770  0.59917  Biso   1.000  O
  O11      1.0000 0.27220  0.54230  0.40083  Biso   1.000  O
  O12      1.0000 0.22780  0.95770  0.90083  Biso   1.000  O
  O13      1.0000 0.27220  0.45770  0.90083  Biso   1.000  O
  O14      1.0000 0.22780  0.04230  0.40083  Biso   1.000  O
  O15      1.0000 0.72780  0.45770  0.59917  Biso   1.000  O
  O16      1.0000 0.77220  0.04230  0.09917  Biso   1.000  O
  N9       1.0000 0.76300  0.85360  0.91640  Biso   1.000  N
  N10      1.0000 0.73700  0.64640  0.41640  Biso   1.000  N
  N11      1.0000 0.23700  0.85360  0.58360  Biso   1.000  N
  N12      1.0000 0.26300  0.64640  0.08360  Biso   1.000  N
  N13      1.0000 0.23700  0.14640  0.08360  Biso   1.000  N
  N14      1.0000 0.26300  0.35360  0.58360  Biso   1.000  N
  N15      1.0000 0.76300  0.14640  0.41640  Biso   1.000  N
  N16      1.0000 0.73700  0.35360  0.91640  Biso   1.000  N
  N17      1.0000 0.73560  0.76530  0.08641  Biso   1.000  N
  N18      1.0000 0.76440  0.73470  0.58641  Biso   1.000  N
  N19      1.0000 0.26440  0.76530  0.41359  Biso   1.000  N
  N20      1.0000 0.23560  0.73470  0.91359  Biso   1.000  N
  N21      1.0000 0.26440  0.23470  0.91359  Biso   1.000  N
  N22      1.0000 0.23560  0.26530  0.41359  Biso   1.000  N
  N23      1.0000 0.73560  0.23470  0.58641  Biso   1.000  N
  N24      1.0000 0.76440  0.26530  0.08641  Biso   1.000  N
  H1       1.0000 0.75300  0.84140  0.09460  Biso   1.000  H
  H2       1.0000 0.74700  0.65860  0.59460  Biso   1.000  H
  H3       1.0000 0.24700  0.84140  0.40540  Biso   1.000  H
  H4       1.0000 0.25300  0.65860  0.90540  Biso   1.000  H
  H5       1.0000 0.24700  0.15860  0.90540  Biso   1.000  H
  H6       1.0000 0.25300  0.34140  0.40540  Biso   1.000  H
  H7       1.0000 0.75300  0.15860  0.59460  Biso   1.000  H
  H8       1.0000 0.74700  0.34140  0.09460  Biso   1.000  H
  O17      1.0000 0.77370  0.66490  0.89890  Biso   1.000  O
  O18      1.0000 0.72630  0.83510  0.39890  Biso   1.000  O
  O19      1.0000 0.22630  0.66490  0.60110  Biso   1.000  O
  O20      1.0000 0.27370  0.83510  0.10110  Biso   1.000  O
  O21      1.0000 0.22630  0.33510  0.10110  Biso   1.000  O
  O22      1.0000 0.27370  0.16490  0.60110  Biso   1.000  O
  O23      1.0000 0.77370  0.33510  0.39890  Biso   1.000  O
  O24      1.0000 0.72630  0.16490  0.89890  Biso   1.000  O
  C1       1.0000 0.68930  0.79660  0.85760  Biso   1.000  C
  C2       1.0000 0.81070  0.70340  0.35760  Biso   1.000  C
  C3       1.0000 0.31070  0.79660  0.64240  Biso   1.000  C
  C4       1.0000 0.18930  0.70340  0.14240  Biso   1.000  C
  C5       1.0000 0.31070  0.20340  0.14240  Biso   1.000  C
  C6       1.0000 0.18930  0.29660  0.64240  Biso   1.000  C
  C7       1.0000 0.68930  0.20340  0.35760  Biso   1.000  C
  C8       1.0000 0.81070  0.29660  0.85760  Biso   1.000  C
  C9       1.0000 0.68820  0.70760  0.82230  Biso   1.000  C
  C10      1.0000 0.81180  0.79240  0.32230  Biso   1.000  C
  C11      1.0000 0.31180  0.70760  0.67770  Biso   1.000  C
  C12      1.0000 0.18820  0.79240  0.17770  Biso   1.000  C
  C13      1.0000 0.31180  0.29240  0.17770  Biso   1.000  C
  C14      1.0000 0.18820  0.20760  0.67770  Biso   1.000  C
  C15      1.0000 0.68820  0.29240  0.32230  Biso   1.000  C
  C16      1.0000 0.81180  0.20760  0.82230  Biso   1.000  C
  H9       1.0000 0.72050  0.63760  0.81750  Biso   1.000  H
  H10      1.0000 0.77950  0.86240  0.31750  Biso   1.000  H
  H11      1.0000 0.27950  0.63760  0.68250  Biso   1.000  H
  H12      1.0000 0.22050  0.86240  0.18250  Biso   1.000  H
  H13      1.0000 0.27950  0.36240  0.18250  Biso   1.000  H
  H14      1.0000 0.22050  0.13760  0.68250  Biso   1.000  H
  H15      1.0000 0.72050  0.36240  0.31750  Biso   1.000  H
  H16      1.0000 0.77950  0.13760  0.81750  Biso   1.000  H
  C17      1.0000 0.63700  0.88900  0.86150  Biso   1.000  C
  C18      1.0000 0.86300  0.61100  0.36150  Biso   1.000  C
  C19      1.0000 0.36300  0.88900  0.63850  Biso   1.000  C
  C20      1.0000 0.13700  0.61100  0.13850  Biso   1.000  C
  C21      1.0000 0.36300  0.11100  0.13850  Biso   1.000  C
  C22      1.0000 0.13700  0.38900  0.63850  Biso   1.000  C
  C23      1.0000 0.63700  0.11100  0.36150  Biso   1.000  C
  C24      1.0000 0.86300  0.38900  0.86150  Biso   1.000  C
  H17      1.0000 0.63670  0.93870  0.88700  Biso   1.000  H
  H18      1.0000 0.86330  0.56130  0.38700  Biso   1.000  H
  H19      1.0000 0.36330  0.93870  0.61300  Biso   1.000  H
  H20      1.0000 0.13670  0.56130  0.11300  Biso   1.000  H
  H21      1.0000 0.36330  0.06130  0.11300  Biso   1.000  H
  H22      1.0000 0.13670  0.43870  0.61300  Biso   1.000  H
  H23      1.0000 0.63670  0.06130  0.38700  Biso   1.000  H
  H24      1.0000 0.86330  0.43870  0.88700  Biso   1.000  H
  C25      1.0000 0.74430  0.77320  0.89320  Biso   1.000  C
  C26      1.0000 0.75570  0.72680  0.39320  Biso   1.000  C
  C27      1.0000 0.25570  0.77320  0.60680  Biso   1.000  C
  C28      1.0000 0.24430  0.72680  0.10680  Biso   1.000  C
  C29      1.0000 0.25570  0.22680  0.10680  Biso   1.000  C
  C30      1.0000 0.24430  0.27320  0.60680  Biso   1.000  C
  C31      1.0000 0.74430  0.22680  0.39320  Biso   1.000  C
  C32      1.0000 0.75570  0.27320  0.89320  Biso   1.000  C
  O25      1.0000 0.74180  0.03850  0.90790  Biso   1.000  O
  O26      1.0000 0.75820  0.46150  0.40790  Biso   1.000  O
  O27      1.0000 0.25820  0.03850  0.59210  Biso   1.000  O
  O28      1.0000 0.24180  0.46150  0.09210  Biso   1.000  O
  O29      1.0000 0.25820  0.96150  0.09210  Biso   1.000  O
  O30      1.0000 0.24180  0.53850  0.59210  Biso   1.000  O
  O31      1.0000 0.74180  0.96150  0.40790  Biso   1.000  O
  O32      1.0000 0.75820  0.53850  0.90790  Biso   1.000  O
  C33      1.0000 0.68070  0.89450  0.86250  Biso   1.000  C
  C34      1.0000 0.81930  0.60550  0.36250  Biso   1.000  C
  C35      1.0000 0.31930  0.89450  0.63750  Biso   1.000  C
  C36      1.0000 0.18070  0.60550  0.13750  Biso   1.000  C
  C37      1.0000 0.31930  0.10550  0.13750  Biso   1.000  C
  C38      1.0000 0.18070  0.39450  0.63750  Biso   1.000  C
  C39      1.0000 0.68070  0.10550  0.36250  Biso   1.000  C
  C40      1.0000 0.81930  0.39450  0.86250  Biso   1.000  C
  C41      1.0000 0.68700  0.78240  0.83340  Biso   1.000  C
  C42      1.0000 0.81300  0.71760  0.33340  Biso   1.000  C
  C43      1.0000 0.31300  0.78240  0.66660  Biso   1.000  C
  C44      1.0000 0.18700  0.71760  0.16660  Biso   1.000  C
  C45      1.0000 0.31300  0.21760  0.16660  Biso   1.000  C
  C46      1.0000 0.18700  0.28240  0.66660  Biso   1.000  C
  C47      1.0000 0.68700  0.21760  0.33340  Biso   1.000  C
  C48      1.0000 0.81300  0.28240  0.83340  Biso   1.000  C
  H25      1.0000 0.72750  0.72840  0.83670  Biso   1.000  H
  H26      1.0000 0.77250  0.77160  0.33670  Biso   1.000  H
  H27      1.0000 0.27250  0.72840  0.66330  Biso   1.000  H
  H28      1.0000 0.22750  0.77160  0.16330  Biso   1.000  H
  H29      1.0000 0.27250  0.27160  0.16330  Biso   1.000  H
  H30      1.0000 0.22750  0.22840  0.66330  Biso   1.000  H
  H31      1.0000 0.72750  0.27160  0.33670  Biso   1.000  H
  H32      1.0000 0.77250  0.22840  0.83670  Biso   1.000  H
  C49      1.0000 0.62020  0.97140  0.85760  Biso   1.000  C
  C50      1.0000 0.87980  0.52860  0.35760  Biso   1.000  C
  C51      1.0000 0.37980  0.97140  0.64240  Biso   1.000  C
  C52      1.0000 0.12020  0.52860  0.14240  Biso   1.000  C
  C53      1.0000 0.37980  0.02860  0.14240  Biso   1.000  C
  C54      1.0000 0.12020  0.47140  0.64240  Biso   1.000  C
  C55      1.0000 0.62020  0.02860  0.35760  Biso   1.000  C
  C56      1.0000 0.87980  0.47140  0.85760  Biso   1.000  C
  H33      1.0000 0.61110  0.04930  0.87340  Biso   1.000  H
  H34      1.0000 0.88890  0.45070  0.37340  Biso   1.000  H
  H35      1.0000 0.38890  0.04930  0.62660  Biso   1.000  H
  H36      1.0000 0.11110  0.45070  0.12660  Biso   1.000  H
  H37      1.0000 0.38890  0.95070  0.12660  Biso   1.000  H
  H38      1.0000 0.11110  0.54930  0.62660  Biso   1.000  H
  H39      1.0000 0.61110  0.95070  0.37340  Biso   1.000  H
  H40      1.0000 0.88890  0.54930  0.87340  Biso   1.000  H
  C57      1.0000 0.73240  0.92300  0.89760  Biso   1.000  C
  C58      1.0000 0.76760  0.57700  0.39760  Biso   1.000  C
  C59      1.0000 0.26760  0.92300  0.60240  Biso   1.000  C
  C60      1.0000 0.23240  0.57700  0.10240  Biso   1.000  C
  C61      1.0000 0.26760  0.07700  0.10240  Biso   1.000  C
  C62      1.0000 0.23240  0.42300  0.60240  Biso   1.000  C
  C63      1.0000 0.73240  0.07700  0.39760  Biso   1.000  C
  C64      1.0000 0.76760  0.42300  0.89760  Biso   1.000  C
  N25      1.0000 0.57860  0.82910  0.79684  Biso   1.000  N
  N26      1.0000 0.92140  0.67090  0.29684  Biso   1.000  N
  N27      1.0000 0.42140  0.82910  0.70316  Biso   1.000  N
  N28      1.0000 0.07860  0.67090  0.20316  Biso   1.000  N
  N29      1.0000 0.42140  0.17090  0.20316  Biso   1.000  N
  N30      1.0000 0.07860  0.32910  0.70316  Biso   1.000  N
  N31      1.0000 0.57860  0.17090  0.29684  Biso   1.000  N
  N32      1.0000 0.92140  0.32910  0.79684  Biso   1.000  N
  C65      1.0000 0.63280  0.74080  0.79660  Biso   1.000  C
  C66      1.0000 0.86720  0.75920  0.29660  Biso   1.000  C
  C67      1.0000 0.36720  0.74080  0.70340  Biso   1.000  C
  C68      1.0000 0.13280  0.75920  0.20340  Biso   1.000  C
  C69      1.0000 0.36720  0.25920  0.20340  Biso   1.000  C
  C70      1.0000 0.13280  0.24080  0.70340  Biso   1.000  C
  C71      1.0000 0.63280  0.25920  0.29660  Biso   1.000  C
  C72      1.0000 0.86720  0.24080  0.79660  Biso   1.000  C
  H41      1.0000 0.63170  0.68750  0.77180  Biso   1.000  H
  H42      1.0000 0.86830  0.81250  0.27180  Biso   1.000  H
  H43      1.0000 0.36830  0.68750  0.72820  Biso   1.000  H
  H44      1.0000 0.13170  0.81250  0.22820  Biso   1.000  H
  H45      1.0000 0.36830  0.31250  0.22820  Biso   1.000  H
  H46      1.0000 0.13170  0.18750  0.72820  Biso   1.000  H
  H47      1.0000 0.63170  0.31250  0.27180  Biso   1.000  H
  H48      1.0000 0.86830  0.18750  0.77180  Biso   1.000  H
  C73      1.0000 0.57600  0.92240  0.82760  Biso   1.000  C
  C74      1.0000 0.92400  0.57760  0.32760  Biso   1.000  C
  C75      1.0000 0.42400  0.92240  0.67240  Biso   1.000  C
  C76      1.0000 0.07600  0.57760  0.17240  Biso   1.000  C
  C77      1.0000 0.42400  0.07760  0.17240  Biso   1.000  C
  C78      1.0000 0.07600  0.42240  0.67240  Biso   1.000  C
  C79      1.0000 0.57600  0.07760  0.32760  Biso   1.000  C
  C80      1.0000 0.92400  0.42240  0.82760  Biso   1.000  C
  H49      1.0000 0.54400  0.99440  0.82890  Biso   1.000  H
  H50      1.0000 0.95600  0.50560  0.32890  Biso   1.000  H
  H51      1.0000 0.45600  0.99440  0.67110  Biso   1.000  H
  H52      1.0000 0.04400  0.50560  0.17110  Biso   1.000  H
  H53      1.0000 0.45600  0.00560  0.17110  Biso   1.000  H
  H54      1.0000 0.04400  0.49440  0.67110  Biso   1.000  H
  H55      1.0000 0.54400  0.00560  0.32890  Biso   1.000  H
  H56      1.0000 0.95600  0.49440  0.82890  Biso   1.000  H
  C81      1.0000 0.81200  0.66620  0.14186  Biso   1.000  C
  C82      1.0000 0.68800  0.83380  0.64186  Biso   1.000  C
  C83      1.0000 0.18800  0.66620  0.35814  Biso   1.000  C
  C84      1.0000 0.31200  0.83380  0.85814  Biso   1.000  C
  C85      1.0000 0.18800  0.33380  0.85814  Biso   1.000  C
  C86      1.0000 0.31200  0.16620  0.35814  Biso   1.000  C
  C87      1.0000 0.81200  0.33380  0.64186  Biso   1.000  C
  C88      1.0000 0.68800  0.16620  0.14186  Biso   1.000  C
  C89      1.0000 0.86060  0.76920  0.14353  Biso   1.000  C
  C90      1.0000 0.63940  0.73080  0.64353  Biso   1.000  C
  C91      1.0000 0.13940  0.76920  0.35647  Biso   1.000  C
  C92      1.0000 0.36060  0.73080  0.85647  Biso   1.000  C
  C93      1.0000 0.13940  0.23080  0.85647  Biso   1.000  C
  C94      1.0000 0.36060  0.26920  0.35647  Biso   1.000  C
  C95      1.0000 0.86060  0.23080  0.64353  Biso   1.000  C
  C96      1.0000 0.63940  0.26920  0.14353  Biso   1.000  C
  H57      1.0000 0.85720  0.83980  0.12380  Biso   1.000  H
  H58      1.0000 0.64280  0.66020  0.62380  Biso   1.000  H
  H59      1.0000 0.14280  0.83980  0.37620  Biso   1.000  H
  H60      1.0000 0.35720  0.66020  0.87620  Biso   1.000  H
  H61      1.0000 0.14280  0.16020  0.87620  Biso   1.000  H
  H62      1.0000 0.35720  0.33980  0.37620  Biso   1.000  H
  H63      1.0000 0.85720  0.16020  0.62380  Biso   1.000  H
  H64      1.0000 0.64280  0.33980  0.12380  Biso   1.000  H
  C97      1.0000 0.91450  0.76940  0.17392  Biso   1.000  C
  C98      1.0000 0.58550  0.73060  0.67392  Biso   1.000  C
  C99      1.0000 0.08550  0.76940  0.32608  Biso   1.000  C
  C100     1.0000 0.41450  0.73060  0.82608  Biso   1.000  C
  C101     1.0000 0.08550  0.23060  0.82608  Biso   1.000  C
  C102     1.0000 0.41450  0.26940  0.32608  Biso   1.000  C
  C103     1.0000 0.91450  0.23060  0.67392  Biso   1.000  C
  C104     1.0000 0.58550  0.26940  0.17392  Biso   1.000  C
  H65      1.0000 0.94800  0.83900  0.17340  Biso   1.000  H
  H66      1.0000 0.55200  0.66100  0.67340  Biso   1.000  H
  H67      1.0000 0.05200  0.83900  0.32660  Biso   1.000  H
  H68      1.0000 0.44800  0.66100  0.82660  Biso   1.000  H
  H69      1.0000 0.05200  0.16100  0.82660  Biso   1.000  H
  H70      1.0000 0.44800  0.33900  0.32660  Biso   1.000  H
  H71      1.0000 0.94800  0.16100  0.67340  Biso   1.000  H
  H72      1.0000 0.55200  0.33900  0.17340  Biso   1.000  H
  C105     1.0000 0.87120  0.57380  0.20320  Biso   1.000  C
  C106     1.0000 0.62880  0.92620  0.70320  Biso   1.000  C
  C107     1.0000 0.12880  0.57380  0.29680  Biso   1.000  C
  C108     1.0000 0.37120  0.92620  0.79680  Biso   1.000  C
  C109     1.0000 0.12880  0.42620  0.79680  Biso   1.000  C
  C110     1.0000 0.37120  0.07380  0.29680  Biso   1.000  C
  C111     1.0000 0.87120  0.42620  0.70320  Biso   1.000  C
  C112     1.0000 0.62880  0.07380  0.20320  Biso   1.000  C
  H73      1.0000 0.87370  0.50710  0.22440  Biso   1.000  H
  H74      1.0000 0.62630  0.99290  0.72440  Biso   1.000  H
  H75      1.0000 0.12630  0.50710  0.27560  Biso   1.000  H
  H76      1.0000 0.37370  0.99290  0.77560  Biso   1.000  H
  H77      1.0000 0.12630  0.49290  0.77560  Biso   1.000  H
  H78      1.0000 0.37370  0.00710  0.27560  Biso   1.000  H
  H79      1.0000 0.87370  0.49290  0.72440  Biso   1.000  H
  H80      1.0000 0.62630  0.00710  0.22440  Biso   1.000  H
  C113     1.0000 0.81820  0.56610  0.17296  Biso   1.000  C
  C114     1.0000 0.68180  0.93390  0.67296  Biso   1.000  C
  C115     1.0000 0.18180  0.56610  0.32704  Biso   1.000  C
  C116     1.0000 0.31820  0.93390  0.82704  Biso   1.000  C
  C117     1.0000 0.18180  0.43390  0.82704  Biso   1.000  C
  C118     1.0000 0.31820  0.06610  0.32704  Biso   1.000  C
  C119     1.0000 0.81820  0.43390  0.67296  Biso   1.000  C
  C120     1.0000 0.68180  0.06610  0.17296  Biso   1.000  C
  H81      1.0000 0.78620  0.49410  0.17310  Biso   1.000  H
  H82      1.0000 0.71380  0.00590  0.67310  Biso   1.000  H
  H83      1.0000 0.21380  0.49410  0.32690  Biso   1.000  H
  H84      1.0000 0.28620  0.00590  0.82690  Biso   1.000  H
  H85      1.0000 0.21380  0.50590  0.82690  Biso   1.000  H
  H86      1.0000 0.28620  0.99410  0.32690  Biso   1.000  H
  H87      1.0000 0.78620  0.50590  0.67310  Biso   1.000  H
  H88      1.0000 0.71380  0.99410  0.17310  Biso   1.000  H
  C121     1.0000 0.75420  0.65390  0.10748  Biso   1.000  C
  C122     1.0000 0.74580  0.84610  0.60748  Biso   1.000  C
  C123     1.0000 0.24580  0.65390  0.39252  Biso   1.000  C
  C124     1.0000 0.25420  0.84610  0.89252  Biso   1.000  C
  C125     1.0000 0.24580  0.34610  0.89252  Biso   1.000  C
  C126     1.0000 0.25420  0.15390  0.39252  Biso   1.000  C
  C127     1.0000 0.75420  0.34610  0.60748  Biso   1.000  C
  C128     1.0000 0.74580  0.15390  0.10748  Biso   1.000  C
  C129     1.0000 0.81260  0.85850  0.95300  Biso   1.000  C
  C130     1.0000 0.68740  0.64150  0.45300  Biso   1.000  C
  C131     1.0000 0.18740  0.85850  0.54700  Biso   1.000  C
  C132     1.0000 0.31260  0.64150  0.04700  Biso   1.000  C
  C133     1.0000 0.18740  0.14150  0.04700  Biso   1.000  C
  C134     1.0000 0.31260  0.35850  0.54700  Biso   1.000  C
  C135     1.0000 0.81260  0.14150  0.45300  Biso   1.000  C
  C136     1.0000 0.68740  0.35850  0.95300  Biso   1.000  C
  H89      1.0000 0.82180  0.95160  0.96070  Biso   1.000  H
  H90      1.0000 0.67820  0.54840  0.46070  Biso   1.000  H
  H91      1.0000 0.17820  0.95160  0.53930  Biso   1.000  H
  H92      1.0000 0.32180  0.54840  0.03930  Biso   1.000  H
  H93      1.0000 0.17820  0.04840  0.03930  Biso   1.000  H
  H94      1.0000 0.32180  0.45160  0.53930  Biso   1.000  H
  H95      1.0000 0.82180  0.04840  0.46070  Biso   1.000  H
  H96      1.0000 0.67820  0.45160  0.96070  Biso   1.000  H
  H97      1.0000 0.85810  0.81780  0.94460  Biso   1.000  H
  H98      1.0000 0.64190  0.68220  0.44460  Biso   1.000  H
  H99      1.0000 0.14190  0.81780  0.55540  Biso   1.000  H
  H100     1.0000 0.35810  0.68220  0.05540  Biso   1.000  H
  H101     1.0000 0.14190  0.18220  0.05540  Biso   1.000  H
  H102     1.0000 0.35810  0.31780  0.55540  Biso   1.000  H
  H103     1.0000 0.85810  0.18220  0.44460  Biso   1.000  H
  H104     1.0000 0.64190  0.31780  0.94460  Biso   1.000  H
  C137     1.0000 0.78180  0.78340  0.99290  Biso   1.000  C
  C138     1.0000 0.71820  0.71660  0.49290  Biso   1.000  C
  C139     1.0000 0.21820  0.78340  0.50710  Biso   1.000  C
  C140     1.0000 0.28180  0.71660  0.00710  Biso   1.000  C
  C141     1.0000 0.21820  0.21660  0.00710  Biso   1.000  C
  C142     1.0000 0.28180  0.28340  0.50710  Biso   1.000  C
  C143     1.0000 0.78180  0.21660  0.49290  Biso   1.000  C
  C144     1.0000 0.71820  0.28340  0.99290  Biso   1.000  C
  H105     1.0000 0.76960  0.69220  0.98440  Biso   1.000  H
  H106     1.0000 0.73040  0.80780  0.48440  Biso   1.000  H
  H107     1.0000 0.23040  0.69220  0.51560  Biso   1.000  H
  H108     1.0000 0.26960  0.80780  0.01560  Biso   1.000  H
  H109     1.0000 0.23040  0.30780  0.01560  Biso   1.000  H
  H110     1.0000 0.26960  0.19220  0.51560  Biso   1.000  H
  H111     1.0000 0.76960  0.30780  0.48440  Biso   1.000  H
  H112     1.0000 0.73040  0.19220  0.98440  Biso   1.000  H
  H113     1.0000 0.81890  0.77800  0.01510  Biso   1.000  H
  H114     1.0000 0.68110  0.72200  0.51510  Biso   1.000  H
  H115     1.0000 0.18110  0.77800  0.48490  Biso   1.000  H
  H116     1.0000 0.31890  0.72200  0.98490  Biso   1.000  H
  H117     1.0000 0.18110  0.22200  0.98490  Biso   1.000  H
  H118     1.0000 0.31890  0.27800  0.48490  Biso   1.000  H
  H119     1.0000 0.81890  0.22200  0.51510  Biso   1.000  H
  H120     1.0000 0.68110  0.27800  0.01510  Biso   1.000  H
  C145     1.0000 0.71550  0.85000  0.01230  Biso   1.000  C
  C146     1.0000 0.78450  0.65000  0.51230  Biso   1.000  C
  C147     1.0000 0.28450  0.85000  0.48770  Biso   1.000  C
  C148     1.0000 0.21550  0.65000  0.98770  Biso   1.000  C
  C149     1.0000 0.28450  0.15000  0.98770  Biso   1.000  C
  C150     1.0000 0.21550  0.35000  0.48770  Biso   1.000  C
  C151     1.0000 0.71550  0.15000  0.51230  Biso   1.000  C
  C152     1.0000 0.78450  0.35000  0.01230  Biso   1.000  C
  H121     1.0000 0.67900  0.86120  0.99010  Biso   1.000  H
  H122     1.0000 0.82100  0.63880  0.49010  Biso   1.000  H
  H123     1.0000 0.32100  0.86120  0.50990  Biso   1.000  H
  H124     1.0000 0.17900  0.63880  0.00990  Biso   1.000  H
  H125     1.0000 0.32100  0.13880  0.00990  Biso   1.000  H
  H126     1.0000 0.17900  0.36120  0.50990  Biso   1.000  H
  H127     1.0000 0.67900  0.13880  0.49010  Biso   1.000  H
  H128     1.0000 0.82100  0.36120  0.99010  Biso   1.000  H
  H129     1.0000 0.72790  0.93820  0.02350  Biso   1.000  H
  H130     1.0000 0.77210  0.56180  0.52350  Biso   1.000  H
  H131     1.0000 0.27210  0.93820  0.47650  Biso   1.000  H
  H132     1.0000 0.22790  0.56180  0.97650  Biso   1.000  H
  H133     1.0000 0.27210  0.06180  0.97650  Biso   1.000  H
  H134     1.0000 0.22790  0.43820  0.47650  Biso   1.000  H
  H135     1.0000 0.72790  0.06180  0.52350  Biso   1.000  H
  H136     1.0000 0.77210  0.43820  0.02350  Biso   1.000  H
  C153     1.0000 0.68600  0.76040  0.04950  Biso   1.000  C
  C154     1.0000 0.81400  0.73960  0.54950  Biso   1.000  C
  C155     1.0000 0.31400  0.76040  0.45050  Biso   1.000  C
  C156     1.0000 0.18600  0.73960  0.95050  Biso   1.000  C
  C157     1.0000 0.31400  0.23960  0.95050  Biso   1.000  C
  C158     1.0000 0.18600  0.26040  0.45050  Biso   1.000  C
  C159     1.0000 0.68600  0.23960  0.54950  Biso   1.000  C
  C160     1.0000 0.81400  0.26040  0.04950  Biso   1.000  C
  H137     1.0000 0.63890  0.79230  0.05830  Biso   1.000  H
  H138     1.0000 0.86110  0.70770  0.55830  Biso   1.000  H
  H139     1.0000 0.36110  0.79230  0.44170  Biso   1.000  H
  H140     1.0000 0.13890  0.70770  0.94170  Biso   1.000  H
  H141     1.0000 0.36110  0.20770  0.94170  Biso   1.000  H
  H142     1.0000 0.13890  0.29230  0.44170  Biso   1.000  H
  H143     1.0000 0.63890  0.20770  0.55830  Biso   1.000  H
  H144     1.0000 0.86110  0.29230  0.05830  Biso   1.000  H
  H145     1.0000 0.68110  0.66840  0.03940  Biso   1.000  H
  H146     1.0000 0.81890  0.83160  0.53940  Biso   1.000  H
  H147     1.0000 0.31890  0.66840  0.46060  Biso   1.000  H
  H148     1.0000 0.18110  0.83160  0.96060  Biso   1.000  H
  H149     1.0000 0.31890  0.33160  0.96060  Biso   1.000  H
  H150     1.0000 0.18110  0.16840  0.46060  Biso   1.000  H
  H151     1.0000 0.68110  0.33160  0.53940  Biso   1.000  H
  H152     1.0000 0.81890  0.16840  0.03940  Biso   1.000  H
  N33      1.0000 0.01490  0.87530  0.04120  Biso   1.000  N
  N34      1.0000 0.48510  0.62470  0.54120  Biso   1.000  N
  N35      1.0000 0.98510  0.87530  0.45880  Biso   1.000  N
  N36      1.0000 0.51490  0.62470  0.95880  Biso   1.000  N
  N37      1.0000 0.98510  0.12470  0.95880  Biso   1.000  N
  N38      1.0000 0.51490  0.37530  0.45880  Biso   1.000  N
  N39      1.0000 0.01490  0.12470  0.54120  Biso   1.000  N
  N40      1.0000 0.48510  0.37530  0.04120  Biso   1.000  N
  O33      1.0000 0.07130  0.81550  0.03260  Biso   1.000  O
  O34      1.0000 0.42870  0.68450  0.53260  Biso   1.000  O
  O35      1.0000 0.92870  0.81550  0.46740  Biso   1.000  O
  O36      1.0000 0.57130  0.68450  0.96740  Biso   1.000  O
  O37      1.0000 0.92870  0.18450  0.96740  Biso   1.000  O
  O38      1.0000 0.57130  0.31550  0.46740  Biso   1.000  O
  O39      1.0000 0.07130  0.18450  0.53260  Biso   1.000  O
  O40      1.0000 0.42870  0.31550  0.03260  Biso   1.000  O
  O41      1.0000 0.96330  0.87400  0.01760  Biso   1.000  O
  O42      1.0000 0.53670  0.62600  0.51760  Biso   1.000  O
  O43      1.0000 0.03670  0.87400  0.48240  Biso   1.000  O
  O44      1.0000 0.46330  0.62600  0.98240  Biso   1.000  O
  O45      1.0000 0.03670  0.12600  0.98240  Biso   1.000  O
  O46      1.0000 0.46330  0.37400  0.48240  Biso   1.000  O
  O47      1.0000 0.96330  0.12600  0.51760  Biso   1.000  O
  O48      1.0000 0.53670  0.37400  0.01760  Biso   1.000  O
  C161     1.0000 0.01560  0.96100  0.07980  Biso   1.000  C
  C162     1.0000 0.48440  0.53900  0.57980  Biso   1.000  C
  C163     1.0000 0.98440  0.96100  0.42020  Biso   1.000  C
  C164     1.0000 0.51560  0.53900  0.92020  Biso   1.000  C
  C165     1.0000 0.98440  0.03900  0.92020  Biso   1.000  C
  C166     1.0000 0.51560  0.46100  0.42020  Biso   1.000  C
  C167     1.0000 0.01560  0.03900  0.57980  Biso   1.000  C
  C168     1.0000 0.48440  0.46100  0.07980  Biso   1.000  C
  C169     1.0000 0.95350  0.03610  0.08830  Biso   1.000  C
  C170     1.0000 0.54650  0.46390  0.58830  Biso   1.000  C
  C171     1.0000 0.04650  0.03610  0.41170  Biso   1.000  C
  C172     1.0000 0.45350  0.46390  0.91170  Biso   1.000  C
  C173     1.0000 0.04650  0.96390  0.91170  Biso   1.000  C
  C174     1.0000 0.45350  0.53610  0.41170  Biso   1.000  C
  C175     1.0000 0.95350  0.96390  0.58830  Biso   1.000  C
  C176     1.0000 0.54650  0.53610  0.08830  Biso   1.000  C
  H153     1.0000 0.91360  0.03100  0.07010  Biso   1.000  H
  H154     1.0000 0.58640  0.46900  0.57010  Biso   1.000  H
  H155     1.0000 0.08640  0.03100  0.42990  Biso   1.000  H
  H156     1.0000 0.41360  0.46900  0.92990  Biso   1.000  H
  H157     1.0000 0.08640  0.96900  0.92990  Biso   1.000  H
  H158     1.0000 0.41360  0.53100  0.42990  Biso   1.000  H
  H159     1.0000 0.91360  0.96900  0.57010  Biso   1.000  H
  H160     1.0000 0.58640  0.53100  0.07010  Biso   1.000  H
  C177     1.0000 0.95300  0.11810  0.12440  Biso   1.000  C
  C178     1.0000 0.54700  0.38190  0.62440  Biso   1.000  C
  C179     1.0000 0.04700  0.11810  0.37560  Biso   1.000  C
  C180     1.0000 0.45300  0.38190  0.87560  Biso   1.000  C
  C181     1.0000 0.04700  0.88190  0.87560  Biso   1.000  C
  C182     1.0000 0.45300  0.61810  0.37560  Biso   1.000  C
  C183     1.0000 0.95300  0.88190  0.62440  Biso   1.000  C
  C184     1.0000 0.54700  0.61810  0.12440  Biso   1.000  C
  H161     1.0000 0.91240  0.16930  0.13100  Biso   1.000  H
  H162     1.0000 0.58760  0.33070  0.63100  Biso   1.000  H
  H163     1.0000 0.08760  0.16930  0.36900  Biso   1.000  H
  H164     1.0000 0.41240  0.33070  0.86900  Biso   1.000  H
  H165     1.0000 0.08760  0.83070  0.86900  Biso   1.000  H
  H166     1.0000 0.41240  0.66930  0.36900  Biso   1.000  H
  H167     1.0000 0.91240  0.83070  0.63100  Biso   1.000  H
  H168     1.0000 0.58760  0.66930  0.13100  Biso   1.000  H
  C185     1.0000 0.01320  0.12380  0.15090  Biso   1.000  C
  C186     1.0000 0.48680  0.37620  0.65090  Biso   1.000  C
  C187     1.0000 0.98680  0.12380  0.34910  Biso   1.000  C
  C188     1.0000 0.51320  0.37620  0.84910  Biso   1.000  C
  C189     1.0000 0.98680  0.87620  0.84910  Biso   1.000  C
  C190     1.0000 0.51320  0.62380  0.34910  Biso   1.000  C
  C191     1.0000 0.01320  0.87620  0.65090  Biso   1.000  C
  C192     1.0000 0.48680  0.62380  0.15090  Biso   1.000  C
  H169     1.0000 0.01340  0.18060  0.17500  Biso   1.000  H
  H170     1.0000 0.48660  0.31940  0.67500  Biso   1.000  H
  H171     1.0000 0.98660  0.18060  0.32500  Biso   1.000  H
  H172     1.0000 0.51340  0.31940  0.82500  Biso   1.000  H
  H173     1.0000 0.98660  0.81940  0.82500  Biso   1.000  H
  H174     1.0000 0.51340  0.68060  0.32500  Biso   1.000  H
  H175     1.0000 0.01340  0.81940  0.67500  Biso   1.000  H
  H176     1.0000 0.48660  0.68060  0.17500  Biso   1.000  H
  C193     1.0000 0.07230  0.04680  0.14200  Biso   1.000  C
  C194     1.0000 0.42770  0.45320  0.64200  Biso   1.000  C
  C195     1.0000 0.92770  0.04680  0.35800  Biso   1.000  C
  C196     1.0000 0.57230  0.45320  0.85800  Biso   1.000  C
  C197     1.0000 0.92770  0.95320  0.85800  Biso   1.000  C
  C198     1.0000 0.57230  0.54680  0.35800  Biso   1.000  C
  C199     1.0000 0.07230  0.95320  0.64200  Biso   1.000  C
  C200     1.0000 0.42770  0.54680  0.14200  Biso   1.000  C
  H177     1.0000 0.11190  0.05010  0.16050  Biso   1.000  H
  H178     1.0000 0.38810  0.44990  0.66050  Biso   1.000  H
  H179     1.0000 0.88810  0.05010  0.33950  Biso   1.000  H
  H180     1.0000 0.61190  0.44990  0.83950  Biso   1.000  H
  H181     1.0000 0.88810  0.94990  0.83950  Biso   1.000  H
  H182     1.0000 0.61190  0.55010  0.33950  Biso   1.000  H
  H183     1.0000 0.11190  0.94990  0.66050  Biso   1.000  H
  H184     1.0000 0.38810  0.55010  0.16050  Biso   1.000  H
  C201     1.0000 0.07390  0.96730  0.10740  Biso   1.000  C
  C202     1.0000 0.42610  0.53270  0.60740  Biso   1.000  C
  C203     1.0000 0.92610  0.96730  0.39260  Biso   1.000  C
  C204     1.0000 0.57390  0.53270  0.89260  Biso   1.000  C
  C205     1.0000 0.92610  0.03270  0.89260  Biso   1.000  C
  C206     1.0000 0.57390  0.46730  0.39260  Biso   1.000  C
  C207     1.0000 0.07390  0.03270  0.60740  Biso   1.000  C
  C208     1.0000 0.42610  0.46730  0.10740  Biso   1.000  C
  H185     1.0000 0.11460  0.91560  0.10180  Biso   1.000  H
  H186     1.0000 0.38540  0.58440  0.60180  Biso   1.000  H
  H187     1.0000 0.88540  0.91560  0.39820  Biso   1.000  H
  H188     1.0000 0.61460  0.58440  0.89820  Biso   1.000  H
  H189     1.0000 0.88540  0.08440  0.89820  Biso   1.000  H
  H190     1.0000 0.61460  0.41560  0.39820  Biso   1.000  H
  H191     1.0000 0.11460  0.08440  0.60180  Biso   1.000  H
  H192     1.0000 0.38540  0.41560  0.10180  Biso   1.000  H
  N41      1.0000 0.03920  0.52500  0.45280  Biso   1.000  N
  N42      1.0000 0.46080  0.97500  0.95280  Biso   1.000  N
  N43      1.0000 0.96080  0.52500  0.04720  Biso   1.000  N
  N44      1.0000 0.53920  0.97500  0.54720  Biso   1.000  N
  N45      1.0000 0.96080  0.47500  0.54720  Biso   1.000  N
  N46      1.0000 0.53920  0.02500  0.04720  Biso   1.000  N
  N47      1.0000 0.03920  0.47500  0.95280  Biso   1.000  N
  N48      1.0000 0.46080  0.02500  0.45280  Biso   1.000  N
  C209     1.0000 0.05140  0.54390  0.49240  Biso   1.000  C
  C210     1.0000 0.44860  0.95610  0.99240  Biso   1.000  C
  C211     1.0000 0.94860  0.54390  0.00760  Biso   1.000  C
  C212     1.0000 0.55140  0.95610  0.50760  Biso   1.000  C
  C213     1.0000 0.94860  0.45610  0.50760  Biso   1.000  C
  C214     1.0000 0.55140  0.04390  0.00760  Biso   1.000  C
  C215     1.0000 0.05140  0.45610  0.99240  Biso   1.000  C
  C216     1.0000 0.44860  0.04390  0.49240  Biso   1.000  C
  C217     1.0000 0.08110  0.57370  0.44350  Biso   1.000  C
  C218     1.0000 0.41890  0.92630  0.94350  Biso   1.000  C
  C219     1.0000 0.91890  0.57370  0.05650  Biso   1.000  C
  C220     1.0000 0.58110  0.92630  0.55650  Biso   1.000  C
  C221     1.0000 0.91890  0.42630  0.55650  Biso   1.000  C
  C222     1.0000 0.58110  0.07370  0.05650  Biso   1.000  C
  C223     1.0000 0.08110  0.42630  0.94350  Biso   1.000  C
  C224     1.0000 0.41890  0.07370  0.44350  Biso   1.000  C
  C225     1.0000 0.02760  0.47600  0.42140  Biso   1.000  C
  C226     1.0000 0.47240  0.02400  0.92140  Biso   1.000  C
  C227     1.0000 0.97240  0.47600  0.07860  Biso   1.000  C
  C228     1.0000 0.52760  0.02400  0.57860  Biso   1.000  C
  C229     1.0000 0.97240  0.52400  0.57860  Biso   1.000  C
  C230     1.0000 0.52760  0.97600  0.07860  Biso   1.000  C
  C231     1.0000 0.02760  0.52400  0.92140  Biso   1.000  C
  C232     1.0000 0.47240  0.97600  0.42140  Biso   1.000  C
  C233     1.0000 0.98310  0.41910  0.42870  Biso   1.000  C
  C234     1.0000 0.51690  0.08090  0.92870  Biso   1.000  C
  C235     1.0000 0.01690  0.41910  0.07130  Biso   1.000  C
  C236     1.0000 0.48310  0.08090  0.57130  Biso   1.000  C
  C237     1.0000 0.01690  0.58090  0.57130  Biso   1.000  C
  C238     1.0000 0.48310  0.91910  0.07130  Biso   1.000  C
  C239     1.0000 0.98310  0.58090  0.92870  Biso   1.000  C
  C240     1.0000 0.51690  0.91910  0.42870  Biso   1.000  C
  C241     1.0000 0.94750  0.40230  0.47050  Biso   1.000  C
  C242     1.0000 0.55250  0.09770  0.97050  Biso   1.000  C
  C243     1.0000 0.05250  0.40230  0.02950  Biso   1.000  C
  C244     1.0000 0.44750  0.09770  0.52950  Biso   1.000  C
  C245     1.0000 0.05250  0.59770  0.52950  Biso   1.000  C
  C246     1.0000 0.44750  0.90230  0.02950  Biso   1.000  C
  C247     1.0000 0.94750  0.59770  0.97050  Biso   1.000  C
  C248     1.0000 0.55250  0.90230  0.47050  Biso   1.000  C
  C249     1.0000 0.00000  0.50000  0.50000  Biso   1.000  C
  C250     1.0000 0.50000  0.00000  0.00000  Biso   1.000  C
  C251     1.0000 0.00000  0.50000  0.00000  Biso   1.000  C
  C252     1.0000 0.50000  0.00000  0.50000  Biso   1.000  C
  Cl1      1.0000 0.15805  0.17990  0.25744  Biso   1.000  Cl
  Cl2      1.0000 0.34195  0.32010  0.75744  Biso   1.000  Cl
  Cl3      1.0000 0.84195  0.17990  0.24256  Biso   1.000  Cl
  Cl4      1.0000 0.65805  0.32010  0.74256  Biso   1.000  Cl
  Cl5      1.0000 0.84195  0.82010  0.74256  Biso   1.000  Cl
  Cl6      1.0000 0.65805  0.67990  0.24256  Biso   1.000  Cl
  Cl7      1.0000 0.15805  0.82010  0.75744  Biso   1.000  Cl
  Cl8      1.0000 0.34195  0.67990  0.25744  Biso   1.000  Cl
  O49      1.0000 0.13210  0.27620  0.22610  Biso   1.000  O
  O50      1.0000 0.36790  0.22380  0.72610  Biso   1.000  O
  O51      1.0000 0.86790  0.27620  0.27390  Biso   1.000  O
  O52      1.0000 0.63210  0.22380  0.77390  Biso   1.000  O
  O53      1.0000 0.86790  0.72380  0.77390  Biso   1.000  O
  O54      1.0000 0.63210  0.77620  0.27390  Biso   1.000  O
  O55      1.0000 0.13210  0.72380  0.72610  Biso   1.000  O
  O56      1.0000 0.36790  0.77620  0.22610  Biso   1.000  O
  O57      1.0000 0.20450  0.08990  0.23440  Biso   1.000  O
  O58      1.0000 0.29550  0.41010  0.73440  Biso   1.000  O
  O59      1.0000 0.79550  0.08990  0.26560  Biso   1.000  O
  O60      1.0000 0.70450  0.41010  0.76560  Biso   1.000  O
  O61      1.0000 0.79550  0.91010  0.76560  Biso   1.000  O
  O62      1.0000 0.70450  0.58990  0.26560  Biso   1.000  O
  O63      1.0000 0.20450  0.91010  0.73440  Biso   1.000  O
  O64      1.0000 0.29550  0.58990  0.23440  Biso   1.000  O
  O65      1.0000 0.08700  0.16800  0.25640  Biso   1.000  O
  O66      1.0000 0.41300  0.33200  0.75640  Biso   1.000  O
  O67      1.0000 0.91300  0.16800  0.24360  Biso   1.000  O
  O68      1.0000 0.58700  0.33200  0.74360  Biso   1.000  O
  O69      1.0000 0.91300  0.83200  0.74360  Biso   1.000  O
  O70      1.0000 0.58700  0.66800  0.24360  Biso   1.000  O
  O71      1.0000 0.08700  0.83200  0.75640  Biso   1.000  O
  O72      1.0000 0.41300  0.66800  0.25640  Biso   1.000  O
  O73      1.0000 0.18280  0.24460  0.29320  Biso   1.000  O
  O74      1.0000 0.31720  0.25540  0.79320  Biso   1.000  O
  O75      1.0000 0.81720  0.24460  0.20680  Biso   1.000  O
  O76      1.0000 0.68280  0.25540  0.70680  Biso   1.000  O
  O77      1.0000 0.81720  0.75540  0.70680  Biso   1.000  O
  O78      1.0000 0.68280  0.74460  0.20680  Biso   1.000  O
  O79      1.0000 0.18280  0.75540  0.79320  Biso   1.000  O
  O80      1.0000 0.31720  0.74460  0.29320  Biso   1.000  O
  O81      1.0000 0.13660  0.04680  0.27180  Biso   1.000  O
  O82      1.0000 0.36340  0.45320  0.77180  Biso   1.000  O
  O83      1.0000 0.86340  0.04680  0.22820  Biso   1.000  O
  O84      1.0000 0.63660  0.45320  0.72820  Biso   1.000  O
  O85      1.0000 0.86340  0.95320  0.72820  Biso   1.000  O
  O86      1.0000 0.63660  0.54680  0.22820  Biso   1.000  O
  O87      1.0000 0.13660  0.95320  0.77180  Biso   1.000  O
  O88      1.0000 0.36340  0.54680  0.27180  Biso   1.000  O
