data_image0
_cell_length_a       12.493
_cell_length_b       12.493
_cell_length_c       31.885
_cell_angle_alpha    90
_cell_angle_beta     90
_cell_angle_gamma    90

_symmetry_space_group_name_H-M    "P 1"
_symmetry_int_tables_number       1

loop_
  _symmetry_equiv_pos_as_xyz
  'x, y, z'

loop_
  _atom_site_label
  _atom_site_occupancy
  _atom_site_fract_x
  _atom_site_fract_y
  _atom_site_fract_z
  _atom_site_thermal_displace_type
  _atom_site_B_iso_or_equiv
  _atom_site_type_symbol
  Cu1      1.0000 0.00000  0.00000  0.22130  Biso   1.000  Cu
  Cu2      1.0000 0.00000  0.00000  0.77870  Biso   1.000  Cu
  Cu3      1.0000 0.50000  0.50000  0.72130  Biso   1.000  Cu
  Cu4      1.0000 0.50000  0.50000  0.27870  Biso   1.000  Cu
  P1       1.0000 0.00000  0.50000  0.75000  Biso   1.000  P
  P2       1.0000 0.50000  0.00000  0.25000  Biso   1.000  P
  F1       1.0000 0.00000  0.50000  0.79901  Biso   1.000  F
  F2       1.0000 0.50000  0.00000  0.20099  Biso   1.000  F
  F3       1.0000 0.50000  0.00000  0.29901  Biso   1.000  F
  F4       1.0000 0.00000  0.50000  0.70099  Biso   1.000  F
  F5       1.0000 0.92190  0.39930  0.74929  Biso   1.000  F
  F6       1.0000 0.07810  0.60070  0.74929  Biso   1.000  F
  F7       1.0000 0.39930  0.07810  0.25071  Biso   1.000  F
  F8       1.0000 0.60070  0.92190  0.25071  Biso   1.000  F
  F9       1.0000 0.42190  0.89930  0.24929  Biso   1.000  F
  F10      1.0000 0.57810  0.10070  0.24929  Biso   1.000  F
  F11      1.0000 0.89930  0.57810  0.75071  Biso   1.000  F
  F12      1.0000 0.10070  0.42190  0.75071  Biso   1.000  F
  P3       1.0000 0.00000  0.00000  0.00000  Biso   1.000  P
  P4       1.0000 0.50000  0.50000  0.50000  Biso   1.000  P
  F13      1.0000 0.98250  0.12030  0.00340  Biso   1.000  F
  F14      1.0000 0.01750  0.87970  0.00340  Biso   1.000  F
  F15      1.0000 0.12030  0.01750  0.99660  Biso   1.000  F
  F16      1.0000 0.87970  0.98250  0.99660  Biso   1.000  F
  F17      1.0000 0.48250  0.62030  0.50340  Biso   1.000  F
  F18      1.0000 0.51750  0.37970  0.50340  Biso   1.000  F
  F19      1.0000 0.62030  0.51750  0.49660  Biso   1.000  F
  F20      1.0000 0.37970  0.48250  0.49660  Biso   1.000  F
  F21      1.0000 0.05130  0.00450  0.04290  Biso   1.000  F
  F22      1.0000 0.94870  0.99550  0.04290  Biso   1.000  F
  F23      1.0000 0.00450  0.94870  0.95710  Biso   1.000  F
  F24      1.0000 0.99550  0.05130  0.95710  Biso   1.000  F
  F25      1.0000 0.55130  0.50450  0.54290  Biso   1.000  F
  F26      1.0000 0.44870  0.49550  0.54290  Biso   1.000  F
  F27      1.0000 0.50450  0.44870  0.45710  Biso   1.000  F
  F28      1.0000 0.49550  0.55130  0.45710  Biso   1.000  F
  N1       1.0000 0.10030  0.93680  0.17621  Biso   1.000  N
  N2       1.0000 0.89970  0.06320  0.17621  Biso   1.000  N
  N3       1.0000 0.93680  0.89970  0.82379  Biso   1.000  N
  N4       1.0000 0.06320  0.10030  0.82379  Biso   1.000  N
  N5       1.0000 0.60030  0.43680  0.67621  Biso   1.000  N
  N6       1.0000 0.39970  0.56320  0.67621  Biso   1.000  N
  N7       1.0000 0.43680  0.39970  0.32379  Biso   1.000  N
  N8       1.0000 0.56320  0.60030  0.32379  Biso   1.000  N
  O1       1.0000 0.89300  0.83570  0.21623  Biso   1.000  O
  O2       1.0000 0.10700  0.16430  0.21623  Biso   1.000  O
  O3       1.0000 0.83570  0.10700  0.78377  Biso   1.000  O
  O4       1.0000 0.16430  0.89300  0.78377  Biso   1.000  O
  O5       1.0000 0.39300  0.33570  0.71623  Biso   1.000  O
  O6       1.0000 0.60700  0.66430  0.71623  Biso   1.000  O
  O7       1.0000 0.33570  0.60700  0.28377  Biso   1.000  O
  O8       1.0000 0.66430  0.39300  0.28377  Biso   1.000  O
  O9       1.0000 0.40480  0.81070  0.08762  Biso   1.000  O
  O10      1.0000 0.59520  0.18930  0.08762  Biso   1.000  O
  O11      1.0000 0.81070  0.59520  0.91238  Biso   1.000  O
  O12      1.0000 0.18930  0.40480  0.91238  Biso   1.000  O
  O13      1.0000 0.90480  0.31070  0.58762  Biso   1.000  O
  O14      1.0000 0.09520  0.68930  0.58762  Biso   1.000  O
  O15      1.0000 0.31070  0.09520  0.41238  Biso   1.000  O
  O16      1.0000 0.68930  0.90480  0.41238  Biso   1.000  O
  C1       1.0000 0.06170  0.88550  0.14345  Biso   1.000  C
  C2       1.0000 0.93830  0.11450  0.14345  Biso   1.000  C
  C3       1.0000 0.88550  0.93830  0.85655  Biso   1.000  C
  C4       1.0000 0.11450  0.06170  0.85655  Biso   1.000  C
  C5       1.0000 0.56170  0.38550  0.64345  Biso   1.000  C
  C6       1.0000 0.43830  0.61450  0.64345  Biso   1.000  C
  C7       1.0000 0.38550  0.43830  0.35655  Biso   1.000  C
  C8       1.0000 0.61450  0.56170  0.35655  Biso   1.000  C
  H1       1.0000 0.98840  0.87330  0.14170  Biso   1.000  H
  H2       1.0000 0.01160  0.12670  0.14170  Biso   1.000  H
  H3       1.0000 0.87330  0.01160  0.85830  Biso   1.000  H
  H4       1.0000 0.12670  0.98840  0.85830  Biso   1.000  H
  H5       1.0000 0.48840  0.37330  0.64170  Biso   1.000  H
  H6       1.0000 0.51160  0.62670  0.64170  Biso   1.000  H
  H7       1.0000 0.37330  0.51160  0.35830  Biso   1.000  H
  H8       1.0000 0.62670  0.48840  0.35830  Biso   1.000  H
  C9       1.0000 0.12680  0.84990  0.11211  Biso   1.000  C
  C10      1.0000 0.87320  0.15010  0.11211  Biso   1.000  C
  C11      1.0000 0.84990  0.87320  0.88789  Biso   1.000  C
  C12      1.0000 0.15010  0.12680  0.88789  Biso   1.000  C
  C13      1.0000 0.62680  0.34990  0.61211  Biso   1.000  C
  C14      1.0000 0.37320  0.65010  0.61211  Biso   1.000  C
  C15      1.0000 0.34990  0.37320  0.38789  Biso   1.000  C
  C16      1.0000 0.65010  0.62680  0.38789  Biso   1.000  C
  H9       1.0000 0.09660  0.81420  0.08940  Biso   1.000  H
  H10      1.0000 0.90340  0.18580  0.08940  Biso   1.000  H
  H11      1.0000 0.81420  0.90340  0.91060  Biso   1.000  H
  H12      1.0000 0.18580  0.09660  0.91060  Biso   1.000  H
  H13      1.0000 0.59660  0.31420  0.58940  Biso   1.000  H
  H14      1.0000 0.40340  0.68580  0.58940  Biso   1.000  H
  H15      1.0000 0.31420  0.40340  0.41060  Biso   1.000  H
  H16      1.0000 0.68580  0.59660  0.41060  Biso   1.000  H
  C17      1.0000 0.23540  0.86530  0.11311  Biso   1.000  C
  C18      1.0000 0.76460  0.13470  0.11311  Biso   1.000  C
  C19      1.0000 0.86530  0.76460  0.88689  Biso   1.000  C
  C20      1.0000 0.13470  0.23540  0.88689  Biso   1.000  C
  C21      1.0000 0.73540  0.36530  0.61311  Biso   1.000  C
  C22      1.0000 0.26460  0.63470  0.61311  Biso   1.000  C
  C23      1.0000 0.36530  0.26460  0.38689  Biso   1.000  C
  C24      1.0000 0.63470  0.73540  0.38689  Biso   1.000  C
  C25      1.0000 0.27550  0.91500  0.14894  Biso   1.000  C
  C26      1.0000 0.72450  0.08500  0.14894  Biso   1.000  C
  C27      1.0000 0.91500  0.72450  0.85106  Biso   1.000  C
  C28      1.0000 0.08500  0.27550  0.85106  Biso   1.000  C
  C29      1.0000 0.77550  0.41500  0.64894  Biso   1.000  C
  C30      1.0000 0.22450  0.58500  0.64894  Biso   1.000  C
  C31      1.0000 0.41500  0.22450  0.35106  Biso   1.000  C
  C32      1.0000 0.58500  0.77550  0.35106  Biso   1.000  C
  H17      1.0000 0.34870  0.92620  0.15220  Biso   1.000  H
  H18      1.0000 0.65130  0.07380  0.15220  Biso   1.000  H
  H19      1.0000 0.92620  0.65130  0.84780  Biso   1.000  H
  H20      1.0000 0.07380  0.34870  0.84780  Biso   1.000  H
  H21      1.0000 0.84870  0.42620  0.65220  Biso   1.000  H
  H22      1.0000 0.15130  0.57380  0.65220  Biso   1.000  H
  H23      1.0000 0.42620  0.15130  0.34780  Biso   1.000  H
  H24      1.0000 0.57380  0.84870  0.34780  Biso   1.000  H
  C33      1.0000 0.20410  0.94750  0.17964  Biso   1.000  C
  C34      1.0000 0.79590  0.05250  0.17964  Biso   1.000  C
  C35      1.0000 0.94750  0.79590  0.82036  Biso   1.000  C
  C36      1.0000 0.05250  0.20410  0.82036  Biso   1.000  C
  C37      1.0000 0.70410  0.44750  0.67964  Biso   1.000  C
  C38      1.0000 0.29590  0.55250  0.67964  Biso   1.000  C
  C39      1.0000 0.44750  0.29590  0.32036  Biso   1.000  C
  C40      1.0000 0.55250  0.70410  0.32036  Biso   1.000  C
  H25      1.0000 0.23130  0.97840  0.20390  Biso   1.000  H
  H26      1.0000 0.76870  0.02160  0.20390  Biso   1.000  H
  H27      1.0000 0.97840  0.76870  0.79610  Biso   1.000  H
  H28      1.0000 0.02160  0.23130  0.79610  Biso   1.000  H
  H29      1.0000 0.73130  0.47840  0.70390  Biso   1.000  H
  H30      1.0000 0.26870  0.52160  0.70390  Biso   1.000  H
  H31      1.0000 0.47840  0.26870  0.29610  Biso   1.000  H
  H32      1.0000 0.52160  0.73130  0.29610  Biso   1.000  H
  C41      1.0000 0.31330  0.83100  0.07941  Biso   1.000  C
  C42      1.0000 0.68670  0.16900  0.07941  Biso   1.000  C
  C43      1.0000 0.83100  0.68670  0.92059  Biso   1.000  C
  C44      1.0000 0.16900  0.31330  0.92059  Biso   1.000  C
  C45      1.0000 0.81330  0.33100  0.57941  Biso   1.000  C
  C46      1.0000 0.18670  0.66900  0.57941  Biso   1.000  C
  C47      1.0000 0.33100  0.18670  0.42059  Biso   1.000  C
  C48      1.0000 0.66900  0.81330  0.42059  Biso   1.000  C
  N9       1.0000 0.40430  0.55960  0.76730  Biso   1.000  N
  N10      1.0000 0.59570  0.44040  0.76730  Biso   1.000  N
  N11      1.0000 0.55960  0.59570  0.23270  Biso   1.000  N
  N12      1.0000 0.44040  0.40430  0.23270  Biso   1.000  N
  N13      1.0000 0.90430  0.05960  0.26730  Biso   1.000  N
  N14      1.0000 0.09570  0.94040  0.26730  Biso   1.000  N
  N15      1.0000 0.05960  0.09570  0.73270  Biso   1.000  N
  N16      1.0000 0.94040  0.90430  0.73270  Biso   1.000  N
  O17      1.0000 0.18500  0.79020  0.86177  Biso   1.000  O
  O18      1.0000 0.81500  0.20980  0.86177  Biso   1.000  O
  O19      1.0000 0.79020  0.81500  0.13823  Biso   1.000  O
  O20      1.0000 0.20980  0.18500  0.13823  Biso   1.000  O
  O21      1.0000 0.68500  0.29020  0.36177  Biso   1.000  O
  O22      1.0000 0.31500  0.70980  0.36177  Biso   1.000  O
  O23      1.0000 0.29020  0.31500  0.63823  Biso   1.000  O
  O24      1.0000 0.70980  0.68500  0.63823  Biso   1.000  O
  C49      1.0000 0.40500  0.66240  0.77650  Biso   1.000  C
  C50      1.0000 0.59500  0.33760  0.77650  Biso   1.000  C
  C51      1.0000 0.66240  0.59500  0.22350  Biso   1.000  C
  C52      1.0000 0.33760  0.40500  0.22350  Biso   1.000  C
  C53      1.0000 0.90500  0.16240  0.27650  Biso   1.000  C
  C54      1.0000 0.09500  0.83760  0.27650  Biso   1.000  C
  C55      1.0000 0.16240  0.09500  0.72350  Biso   1.000  C
  C56      1.0000 0.83760  0.90500  0.72350  Biso   1.000  C
  H33      1.0000 0.44860  0.70750  0.76070  Biso   1.000  H
  H34      1.0000 0.55140  0.29250  0.76070  Biso   1.000  H
  H35      1.0000 0.70750  0.55140  0.23930  Biso   1.000  H
  H36      1.0000 0.29250  0.44860  0.23930  Biso   1.000  H
  H37      1.0000 0.94860  0.20750  0.26070  Biso   1.000  H
  H38      1.0000 0.05140  0.79250  0.26070  Biso   1.000  H
  H39      1.0000 0.20750  0.05140  0.73930  Biso   1.000  H
  H40      1.0000 0.79250  0.94860  0.73930  Biso   1.000  H
  C57      1.0000 0.34430  0.70680  0.80825  Biso   1.000  C
  C58      1.0000 0.65570  0.29320  0.80825  Biso   1.000  C
  C59      1.0000 0.70680  0.65570  0.19175  Biso   1.000  C
  C60      1.0000 0.29320  0.34430  0.19175  Biso   1.000  C
  C61      1.0000 0.84430  0.20680  0.30825  Biso   1.000  C
  C62      1.0000 0.15570  0.79320  0.30825  Biso   1.000  C
  C63      1.0000 0.20680  0.15570  0.69175  Biso   1.000  C
  C64      1.0000 0.79320  0.84430  0.69175  Biso   1.000  C
  H41      1.0000 0.34850  0.77980  0.81370  Biso   1.000  H
  H42      1.0000 0.65150  0.22020  0.81370  Biso   1.000  H
  H43      1.0000 0.77980  0.65150  0.18630  Biso   1.000  H
  H44      1.0000 0.22020  0.34850  0.18630  Biso   1.000  H
  H45      1.0000 0.84850  0.27980  0.31370  Biso   1.000  H
  H46      1.0000 0.15150  0.72020  0.31370  Biso   1.000  H
  H47      1.0000 0.27980  0.15150  0.68630  Biso   1.000  H
  H48      1.0000 0.72020  0.84850  0.68630  Biso   1.000  H
  C65      1.0000 0.27860  0.64420  0.83158  Biso   1.000  C
  C66      1.0000 0.72140  0.35580  0.83158  Biso   1.000  C
  C67      1.0000 0.64420  0.72140  0.16842  Biso   1.000  C
  C68      1.0000 0.35580  0.27860  0.16842  Biso   1.000  C
  C69      1.0000 0.77860  0.14420  0.33158  Biso   1.000  C
  C70      1.0000 0.22140  0.85580  0.33158  Biso   1.000  C
  C71      1.0000 0.14420  0.22140  0.66842  Biso   1.000  C
  C72      1.0000 0.85580  0.77860  0.66842  Biso   1.000  C
  C73      1.0000 0.27780  0.53650  0.82230  Biso   1.000  C
  C74      1.0000 0.72220  0.46350  0.82230  Biso   1.000  C
  C75      1.0000 0.53650  0.72220  0.17770  Biso   1.000  C
  C76      1.0000 0.46350  0.27780  0.17770  Biso   1.000  C
  C77      1.0000 0.77780  0.03650  0.32230  Biso   1.000  C
  C78      1.0000 0.22220  0.96350  0.32230  Biso   1.000  C
  C79      1.0000 0.03650  0.22220  0.67770  Biso   1.000  C
  C80      1.0000 0.96350  0.77780  0.67770  Biso   1.000  C
  H49      1.0000 0.23440  0.48990  0.83740  Biso   1.000  H
  H50      1.0000 0.76560  0.51010  0.83740  Biso   1.000  H
  H51      1.0000 0.48990  0.76560  0.16260  Biso   1.000  H
  H52      1.0000 0.51010  0.23440  0.16260  Biso   1.000  H
  H53      1.0000 0.73440  0.98990  0.33740  Biso   1.000  H
  H54      1.0000 0.26560  0.01010  0.33740  Biso   1.000  H
  H55      1.0000 0.98990  0.26560  0.66260  Biso   1.000  H
  H56      1.0000 0.01010  0.73440  0.66260  Biso   1.000  H
  C81      1.0000 0.34140  0.49860  0.79052  Biso   1.000  C
  C82      1.0000 0.65860  0.50140  0.79052  Biso   1.000  C
  C83      1.0000 0.49860  0.65860  0.20948  Biso   1.000  C
  C84      1.0000 0.50140  0.34140  0.20948  Biso   1.000  C
  C85      1.0000 0.84140  0.99860  0.29052  Biso   1.000  C
  C86      1.0000 0.15860  0.00140  0.29052  Biso   1.000  C
  C87      1.0000 0.99860  0.15860  0.70948  Biso   1.000  C
  C88      1.0000 0.00140  0.84140  0.70948  Biso   1.000  C
  H57      1.0000 0.34020  0.42550  0.78500  Biso   1.000  H
  H58      1.0000 0.65980  0.57450  0.78500  Biso   1.000  H
  H59      1.0000 0.42550  0.65980  0.21500  Biso   1.000  H
  H60      1.0000 0.57450  0.34020  0.21500  Biso   1.000  H
  H61      1.0000 0.84020  0.92550  0.28500  Biso   1.000  H
  H62      1.0000 0.15980  0.07450  0.28500  Biso   1.000  H
  H63      1.0000 0.92550  0.15980  0.71500  Biso   1.000  H
  H64      1.0000 0.07450  0.84020  0.71500  Biso   1.000  H
  C89      1.0000 0.21060  0.69320  0.86493  Biso   1.000  C
  C90      1.0000 0.78940  0.30680  0.86493  Biso   1.000  C
  C91      1.0000 0.69320  0.78940  0.13507  Biso   1.000  C
  C92      1.0000 0.30680  0.21060  0.13507  Biso   1.000  C
  C93      1.0000 0.71060  0.19320  0.36493  Biso   1.000  C
  C94      1.0000 0.28940  0.80680  0.36493  Biso   1.000  C
  C95      1.0000 0.19320  0.28940  0.63507  Biso   1.000  C
  C96      1.0000 0.80680  0.71060  0.63507  Biso   1.000  C
  N17      1.0000 0.27200  0.82920  0.04172  Biso   1.000  N
  N18      1.0000 0.72800  0.17080  0.04172  Biso   1.000  N
  N19      1.0000 0.82920  0.72800  0.95828  Biso   1.000  N
  N20      1.0000 0.17080  0.27200  0.95828  Biso   1.000  N
  N21      1.0000 0.77200  0.32920  0.54172  Biso   1.000  N
  N22      1.0000 0.22800  0.67080  0.54172  Biso   1.000  N
  N23      1.0000 0.32920  0.22800  0.45828  Biso   1.000  N
  N24      1.0000 0.67080  0.77200  0.45828  Biso   1.000  N
  H65      1.0000 0.20600  0.84690  0.03830  Biso   1.000  H
  H66      1.0000 0.79400  0.15310  0.03830  Biso   1.000  H
  H67      1.0000 0.84690  0.79400  0.96170  Biso   1.000  H
  H68      1.0000 0.15310  0.20600  0.96170  Biso   1.000  H
  H69      1.0000 0.70600  0.34690  0.53830  Biso   1.000  H
  H70      1.0000 0.29400  0.65310  0.53830  Biso   1.000  H
  H71      1.0000 0.34690  0.29400  0.46170  Biso   1.000  H
  H72      1.0000 0.65310  0.70600  0.46170  Biso   1.000  H
  N25      1.0000 0.18390  0.63250  0.89725  Biso   1.000  N
  N26      1.0000 0.81610  0.36750  0.89725  Biso   1.000  N
  N27      1.0000 0.63250  0.81610  0.10275  Biso   1.000  N
  N28      1.0000 0.36750  0.18390  0.10275  Biso   1.000  N
  N29      1.0000 0.68390  0.13250  0.39725  Biso   1.000  N
  N30      1.0000 0.31610  0.86750  0.39725  Biso   1.000  N
  N31      1.0000 0.13250  0.31610  0.60275  Biso   1.000  N
  N32      1.0000 0.86750  0.68390  0.60275  Biso   1.000  N
  H73      1.0000 0.20490  0.56690  0.89740  Biso   1.000  H
  H74      1.0000 0.79510  0.43310  0.89740  Biso   1.000  H
  H75      1.0000 0.56690  0.79510  0.10260  Biso   1.000  H
  H76      1.0000 0.43310  0.20490  0.10260  Biso   1.000  H
  H77      1.0000 0.70490  0.06690  0.39740  Biso   1.000  H
  H78      1.0000 0.29510  0.93310  0.39740  Biso   1.000  H
  H79      1.0000 0.06690  0.29510  0.60260  Biso   1.000  H
  H80      1.0000 0.93310  0.70490  0.60260  Biso   1.000  H
  C97      1.0000 0.33700  0.79700  0.00440  Biso   1.000  C
  C98      1.0000 0.66300  0.20300  0.00440  Biso   1.000  C
  C99      1.0000 0.79700  0.66300  0.99560  Biso   1.000  C
  C100     1.0000 0.20300  0.33700  0.99560  Biso   1.000  C
  C101     1.0000 0.83700  0.29700  0.50440  Biso   1.000  C
  C102     1.0000 0.16300  0.70300  0.50440  Biso   1.000  C
  C103     1.0000 0.29700  0.16300  0.49560  Biso   1.000  C
  C104     1.0000 0.70300  0.83700  0.49560  Biso   1.000  C
  H81      1.0000 0.38760  0.85340  0.99770  Biso   1.000  H
  H82      1.0000 0.61240  0.14660  0.99770  Biso   1.000  H
  H83      1.0000 0.85340  0.61240  0.00230  Biso   1.000  H
  H84      1.0000 0.14660  0.38760  0.00230  Biso   1.000  H
  H85      1.0000 0.88760  0.35340  0.49770  Biso   1.000  H
  H86      1.0000 0.11240  0.64660  0.49770  Biso   1.000  H
  H87      1.0000 0.35340  0.11240  0.50230  Biso   1.000  H
  H88      1.0000 0.64660  0.88760  0.50230  Biso   1.000  H
  H89      1.0000 0.37740  0.73280  0.01090  Biso   1.000  H
  H90      1.0000 0.62260  0.26720  0.01090  Biso   1.000  H
  H91      1.0000 0.73280  0.62260  0.98910  Biso   1.000  H
  H92      1.0000 0.26720  0.37740  0.98910  Biso   1.000  H
  H93      1.0000 0.87740  0.23280  0.51090  Biso   1.000  H
  H94      1.0000 0.12260  0.76720  0.51090  Biso   1.000  H
  H95      1.0000 0.23280  0.12260  0.48910  Biso   1.000  H
  H96      1.0000 0.76720  0.87740  0.48910  Biso   1.000  H
  C105     1.0000 0.26780  0.77660  0.96770  Biso   1.000  C
  C106     1.0000 0.73220  0.22340  0.96770  Biso   1.000  C
  C107     1.0000 0.77660  0.73220  0.03230  Biso   1.000  C
  C108     1.0000 0.22340  0.26780  0.03230  Biso   1.000  C
  C109     1.0000 0.76780  0.27660  0.46770  Biso   1.000  C
  C110     1.0000 0.23220  0.72340  0.46770  Biso   1.000  C
  C111     1.0000 0.27660  0.23220  0.53230  Biso   1.000  C
  C112     1.0000 0.72340  0.76780  0.53230  Biso   1.000  C
  H97      1.0000 0.31350  0.76220  0.94380  Biso   1.000  H
  H98      1.0000 0.68650  0.23780  0.94380  Biso   1.000  H
  H99      1.0000 0.76220  0.68650  0.05620  Biso   1.000  H
  H100     1.0000 0.23780  0.31350  0.05620  Biso   1.000  H
  H101     1.0000 0.81350  0.26220  0.44380  Biso   1.000  H
  H102     1.0000 0.18650  0.73780  0.44380  Biso   1.000  H
  H103     1.0000 0.26220  0.18650  0.55620  Biso   1.000  H
  H104     1.0000 0.73780  0.81350  0.55620  Biso   1.000  H
  H105     1.0000 0.22860  0.84180  0.96160  Biso   1.000  H
  H106     1.0000 0.77140  0.15820  0.96160  Biso   1.000  H
  H107     1.0000 0.84180  0.77140  0.03840  Biso   1.000  H
  H108     1.0000 0.15820  0.22860  0.03840  Biso   1.000  H
  H109     1.0000 0.72860  0.34180  0.46160  Biso   1.000  H
  H110     1.0000 0.27140  0.65820  0.46160  Biso   1.000  H
  H111     1.0000 0.34180  0.27140  0.53840  Biso   1.000  H
  H112     1.0000 0.65820  0.72860  0.53840  Biso   1.000  H
  C113     1.0000 0.18920  0.68770  0.97115  Biso   1.000  C
  C114     1.0000 0.81080  0.31230  0.97115  Biso   1.000  C
  C115     1.0000 0.68770  0.81080  0.02885  Biso   1.000  C
  C116     1.0000 0.31230  0.18920  0.02885  Biso   1.000  C
  C117     1.0000 0.68920  0.18770  0.47115  Biso   1.000  C
  C118     1.0000 0.31080  0.81230  0.47115  Biso   1.000  C
  C119     1.0000 0.18770  0.31080  0.52885  Biso   1.000  C
  C120     1.0000 0.81230  0.68920  0.52885  Biso   1.000  C
  H113     1.0000 0.14260  0.70170  0.99490  Biso   1.000  H
  H114     1.0000 0.85740  0.29830  0.99490  Biso   1.000  H
  H115     1.0000 0.70170  0.85740  0.00510  Biso   1.000  H
  H116     1.0000 0.29830  0.14260  0.00510  Biso   1.000  H
  H117     1.0000 0.64260  0.20170  0.49490  Biso   1.000  H
  H118     1.0000 0.35740  0.79830  0.49490  Biso   1.000  H
  H119     1.0000 0.20170  0.35740  0.50510  Biso   1.000  H
  H120     1.0000 0.79830  0.64260  0.50510  Biso   1.000  H
  H121     1.0000 0.22770  0.62190  0.97690  Biso   1.000  H
  H122     1.0000 0.77230  0.37810  0.97690  Biso   1.000  H
  H123     1.0000 0.62190  0.77230  0.02310  Biso   1.000  H
  H124     1.0000 0.37810  0.22770  0.02310  Biso   1.000  H
  H125     1.0000 0.72770  0.12190  0.47690  Biso   1.000  H
  H126     1.0000 0.27230  0.87810  0.47690  Biso   1.000  H
  H127     1.0000 0.12190  0.27230  0.52310  Biso   1.000  H
  H128     1.0000 0.87810  0.72770  0.52310  Biso   1.000  H
  C121     1.0000 0.12080  0.67120  0.93261  Biso   1.000  C
  C122     1.0000 0.87920  0.32880  0.93261  Biso   1.000  C
  C123     1.0000 0.67120  0.87920  0.06739  Biso   1.000  C
  C124     1.0000 0.32880  0.12080  0.06739  Biso   1.000  C
  C125     1.0000 0.62080  0.17120  0.43261  Biso   1.000  C
  C126     1.0000 0.37920  0.82880  0.43261  Biso   1.000  C
  C127     1.0000 0.17120  0.37920  0.56739  Biso   1.000  C
  C128     1.0000 0.82880  0.62080  0.56739  Biso   1.000  C
  H129     1.0000 0.06480  0.61980  0.93890  Biso   1.000  H
  H130     1.0000 0.93520  0.38020  0.93890  Biso   1.000  H
  H131     1.0000 0.61980  0.93520  0.06110  Biso   1.000  H
  H132     1.0000 0.38020  0.06480  0.06110  Biso   1.000  H
  H133     1.0000 0.56480  0.11980  0.43890  Biso   1.000  H
  H134     1.0000 0.43520  0.88020  0.43890  Biso   1.000  H
  H135     1.0000 0.11980  0.43520  0.56110  Biso   1.000  H
  H136     1.0000 0.88020  0.56480  0.56110  Biso   1.000  H
  H137     1.0000 0.08690  0.73830  0.92500  Biso   1.000  H
  H138     1.0000 0.91310  0.26170  0.92500  Biso   1.000  H
  H139     1.0000 0.73830  0.91310  0.07500  Biso   1.000  H
  H140     1.0000 0.26170  0.08690  0.07500  Biso   1.000  H
  H141     1.0000 0.58690  0.23830  0.42500  Biso   1.000  H
  H142     1.0000 0.41310  0.76170  0.42500  Biso   1.000  H
  H143     1.0000 0.23830  0.41310  0.57500  Biso   1.000  H
  H144     1.0000 0.76170  0.58690  0.57500  Biso   1.000  H
