data_image0
_cell_length_a       4.863
_cell_length_b       13.578
_cell_length_c       9.3241
_cell_angle_alpha    90
_cell_angle_beta     95.563
_cell_angle_gamma    90

_symmetry_space_group_name_H-M    "P 1"
_symmetry_int_tables_number       1

loop_
  _symmetry_equiv_pos_as_xyz
  'x, y, z'

loop_
  _atom_site_label
  _atom_site_occupancy
  _atom_site_fract_x
  _atom_site_fract_y
  _atom_site_fract_z
  _atom_site_thermal_displace_type
  _atom_site_B_iso_or_equiv
  _atom_site_type_symbol
  Cu1      1.0000 0.00000  0.50000  0.50000  Biso   1.000  Cu
  Cu2      1.0000 0.00000  0.00000  0.00000  Biso   1.000  Cu
  N1       1.0000 0.24730  0.61579  0.50436  Biso   1.000  N
  N2       1.0000 0.75270  0.11579  0.99564  Biso   1.000  N
  N3       1.0000 0.75270  0.38421  0.49564  Biso   1.000  N
  N4       1.0000 0.24730  0.88421  0.00436  Biso   1.000  N
  N5       1.0000 0.43810  0.62912  0.41086  Biso   1.000  N
  N6       1.0000 0.56190  0.12912  0.08914  Biso   1.000  N
  N7       1.0000 0.56190  0.37088  0.58914  Biso   1.000  N
  N8       1.0000 0.43810  0.87088  0.91086  Biso   1.000  N
  C1       1.0000 0.25520  0.69748  0.58315  Biso   1.000  C
  C2       1.0000 0.74480  0.19748  0.91685  Biso   1.000  C
  C3       1.0000 0.74480  0.30252  0.41685  Biso   1.000  C
  C4       1.0000 0.25520  0.80252  0.08315  Biso   1.000  C
  H1       1.0000 0.14300  0.70940  0.65870  Biso   1.000  H
  H2       1.0000 0.85700  0.20940  0.84130  Biso   1.000  H
  H3       1.0000 0.85700  0.29060  0.34130  Biso   1.000  H
  H4       1.0000 0.14300  0.79060  0.15870  Biso   1.000  H
  C5       1.0000 0.44940  0.76285  0.54010  Biso   1.000  C
  C6       1.0000 0.55060  0.26285  0.95990  Biso   1.000  C
  C7       1.0000 0.55060  0.23715  0.45990  Biso   1.000  C
  C8       1.0000 0.44940  0.73715  0.04010  Biso   1.000  C
  H5       1.0000 0.49050  0.82200  0.57560  Biso   1.000  H
  H6       1.0000 0.50950  0.32200  0.92440  Biso   1.000  H
  H7       1.0000 0.50950  0.17800  0.42440  Biso   1.000  H
  H8       1.0000 0.49050  0.67800  0.07560  Biso   1.000  H
  C9       1.0000 0.56350  0.71599  0.43091  Biso   1.000  C
  C10      1.0000 0.43650  0.21599  0.06909  Biso   1.000  C
  C11      1.0000 0.43650  0.28401  0.56909  Biso   1.000  C
  C12      1.0000 0.56350  0.78401  0.93091  Biso   1.000  C
  H9       1.0000 0.71300  0.74190  0.37620  Biso   1.000  H
  H10      1.0000 0.28700  0.24190  0.12380  Biso   1.000  H
  H11      1.0000 0.28700  0.25810  0.62380  Biso   1.000  H
  H12      1.0000 0.71300  0.75810  0.87620  Biso   1.000  H
  O1       1.0000 0.12360  0.46159  0.31619  Biso   1.000  O
  O2       1.0000 0.87640  0.96159  0.18381  Biso   1.000  O
  O3       1.0000 0.87640  0.53841  0.68381  Biso   1.000  O
  O4       1.0000 0.12360  0.03841  0.81619  Biso   1.000  O
  O5       1.0000 0.76700  0.54682  0.21661  Biso   1.000  O
  O6       1.0000 0.23300  0.04682  0.28339  Biso   1.000  O
  O7       1.0000 0.23300  0.45318  0.78339  Biso   1.000  O
  O8       1.0000 0.76700  0.95318  0.71661  Biso   1.000  O
  C13      1.0000 0.97350  0.49678  0.20711  Biso   1.000  C
  C14      1.0000 0.02650  0.99678  0.29289  Biso   1.000  C
  C15      1.0000 0.02650  0.50322  0.79289  Biso   1.000  C
  C16      1.0000 0.97350  0.00322  0.70711  Biso   1.000  C
  C17      1.0000 0.07310  0.47176  0.06269  Biso   1.000  C
  C18      1.0000 0.92690  0.97176  0.43731  Biso   1.000  C
  C19      1.0000 0.92690  0.52824  0.93731  Biso   1.000  C
  C20      1.0000 0.07310  0.02824  0.56269  Biso   1.000  C
  H13      1.0000 0.04700  0.40180  0.04520  Biso   1.000  H
  H14      1.0000 0.95300  0.90180  0.45480  Biso   1.000  H
  H15      1.0000 0.95300  0.59820  0.95480  Biso   1.000  H
  H16      1.0000 0.04700  0.09820  0.54520  Biso   1.000  H
  H17      1.0000 0.26960  0.48520  0.06680  Biso   1.000  H
  H18      1.0000 0.73040  0.98520  0.43320  Biso   1.000  H
  H19      1.0000 0.73040  0.51480  0.93320  Biso   1.000  H
  H20      1.0000 0.26960  0.01480  0.56680  Biso   1.000  H
  H21      1.0000 0.46400  0.58470  0.35700  Biso   1.000  H
  H22      1.0000 0.53600  0.08470  0.14300  Biso   1.000  H
  H23      1.0000 0.53600  0.41530  0.64300  Biso   1.000  H
  H24      1.0000 0.46400  0.91530  0.85700  Biso   1.000  H
