data_image0
_cell_length_a       9.221
_cell_length_b       11.98
_cell_length_c       21.011
_cell_angle_alpha    90
_cell_angle_beta     90
_cell_angle_gamma    90

_symmetry_space_group_name_H-M    "P 1"
_symmetry_int_tables_number       1

loop_
  _symmetry_equiv_pos_as_xyz
  'x, y, z'

loop_
  _atom_site_label
  _atom_site_occupancy
  _atom_site_fract_x
  _atom_site_fract_y
  _atom_site_fract_z
  _atom_site_thermal_displace_type
  _atom_site_B_iso_or_equiv
  _atom_site_type_symbol
  Cu1      1.0000 0.36812  0.82526  0.63995  Biso   1.000  Cu
  Cu2      1.0000 0.86812  0.67474  0.36005  Biso   1.000  Cu
  Cu3      1.0000 0.63188  0.32526  0.86005  Biso   1.000  Cu
  Cu4      1.0000 0.13188  0.17474  0.13995  Biso   1.000  Cu
  O1       1.0000 0.62400  0.91880  0.89300  Biso   1.000  O
  O2       1.0000 0.12400  0.58120  0.10700  Biso   1.000  O
  O3       1.0000 0.37600  0.41880  0.60700  Biso   1.000  O
  O4       1.0000 0.87600  0.08120  0.39300  Biso   1.000  O
  N1       1.0000 0.53870  0.71250  0.63830  Biso   1.000  N
  N2       1.0000 0.03870  0.78750  0.36170  Biso   1.000  N
  N3       1.0000 0.46130  0.21250  0.86170  Biso   1.000  N
  N4       1.0000 0.96130  0.28750  0.13830  Biso   1.000  N
  N5       1.0000 0.71760  0.60150  0.60930  Biso   1.000  N
  N6       1.0000 0.21760  0.89850  0.39070  Biso   1.000  N
  N7       1.0000 0.28240  0.10150  0.89070  Biso   1.000  N
  N8       1.0000 0.78240  0.39850  0.10930  Biso   1.000  N
  N9       1.0000 0.44230  0.98410  0.60870  Biso   1.000  N
  N10      1.0000 0.94230  0.51590  0.39130  Biso   1.000  N
  N11      1.0000 0.55770  0.48410  0.89130  Biso   1.000  N
  N12      1.0000 0.05770  0.01590  0.10870  Biso   1.000  N
  N13      1.0000 0.58890  0.11020  0.56780  Biso   1.000  N
  N14      1.0000 0.08890  0.38980  0.43220  Biso   1.000  N
  N15      1.0000 0.41110  0.61020  0.93220  Biso   1.000  N
  N16      1.0000 0.91110  0.88980  0.06780  Biso   1.000  N
  N17      1.0000 0.83620  0.29830  0.82860  Biso   1.000  N
  N18      1.0000 0.33620  0.20170  0.17140  Biso   1.000  N
  N19      1.0000 0.16380  0.79830  0.67140  Biso   1.000  N
  N20      1.0000 0.66380  0.70170  0.32860  Biso   1.000  N
  N21      1.0000 0.00840  0.27190  0.75780  Biso   1.000  N
  N22      1.0000 0.50840  0.22810  0.24220  Biso   1.000  N
  N23      1.0000 0.99160  0.77190  0.74220  Biso   1.000  N
  N24      1.0000 0.49160  0.72810  0.25780  Biso   1.000  N
  N25      1.0000 0.41730  0.86770  0.73000  Biso   1.000  N
  N26      1.0000 0.91730  0.63230  0.27000  Biso   1.000  N
  N27      1.0000 0.58270  0.36770  0.77000  Biso   1.000  N
  N28      1.0000 0.08270  0.13230  0.23000  Biso   1.000  N
  N29      1.0000 0.53870  0.89970  0.73920  Biso   1.000  N
  N30      1.0000 0.03870  0.60030  0.26080  Biso   1.000  N
  N31      1.0000 0.46130  0.39970  0.76080  Biso   1.000  N
  N32      1.0000 0.96130  0.10030  0.23920  Biso   1.000  N
  N33      1.0000 0.65440  0.93450  0.74810  Biso   1.000  N
  N34      1.0000 0.15440  0.56550  0.25190  Biso   1.000  N
  N35      1.0000 0.34560  0.43450  0.75190  Biso   1.000  N
  N36      1.0000 0.84560  0.06550  0.24810  Biso   1.000  N
  N37      1.0000 0.30830  0.78230  0.55160  Biso   1.000  N
  N38      1.0000 0.80830  0.71770  0.44840  Biso   1.000  N
  N39      1.0000 0.69170  0.28230  0.94840  Biso   1.000  N
  N40      1.0000 0.19170  0.21770  0.05160  Biso   1.000  N
  N41      1.0000 0.31820  0.69080  0.53320  Biso   1.000  N
  N42      1.0000 0.81820  0.80920  0.46680  Biso   1.000  N
  N43      1.0000 0.68180  0.19080  0.96680  Biso   1.000  N
  N44      1.0000 0.18180  0.30920  0.03320  Biso   1.000  N
  N45      1.0000 0.30100  0.59300  0.52170  Biso   1.000  N
  N46      1.0000 0.80100  0.90700  0.47830  Biso   1.000  N
  N47      1.0000 0.69900  0.09300  0.97830  Biso   1.000  N
  N48      1.0000 0.19900  0.40700  0.02170  Biso   1.000  N
  N49      1.0000 0.34900  0.61160  0.50620  Biso   1.000  N
  N50      1.0000 0.84900  0.88840  0.49380  Biso   1.000  N
  N51      1.0000 0.65100  0.11160  0.99380  Biso   1.000  N
  N52      1.0000 0.15100  0.38840  0.00620  Biso   1.000  N
  C1       1.0000 0.63270  0.68820  0.59280  Biso   1.000  C
  C2       1.0000 0.13270  0.81180  0.40720  Biso   1.000  C
  C3       1.0000 0.36730  0.18820  0.90720  Biso   1.000  C
  C4       1.0000 0.86730  0.31180  0.09280  Biso   1.000  C
  C5       1.0000 0.56550  0.63690  0.68610  Biso   1.000  C
  C6       1.0000 0.06550  0.86310  0.31390  Biso   1.000  C
  C7       1.0000 0.43450  0.13690  0.81390  Biso   1.000  C
  C8       1.0000 0.93450  0.36310  0.18610  Biso   1.000  C
  C9       1.0000 0.67500  0.56880  0.66920  Biso   1.000  C
  C10      1.0000 0.17500  0.93120  0.33080  Biso   1.000  C
  C11      1.0000 0.32500  0.06880  0.83080  Biso   1.000  C
  C12      1.0000 0.82500  0.43120  0.16920  Biso   1.000  C
  C13      1.0000 0.84020  0.55780  0.57170  Biso   1.000  C
  C14      1.0000 0.34020  0.94220  0.42830  Biso   1.000  C
  C15      1.0000 0.15980  0.05780  0.92830  Biso   1.000  C
  C16      1.0000 0.65980  0.44220  0.07170  Biso   1.000  C
  C17      1.0000 0.86040  0.43470  0.58410  Biso   1.000  C
  C18      1.0000 0.36040  0.06530  0.41590  Biso   1.000  C
  C19      1.0000 0.13960  0.93470  0.91590  Biso   1.000  C
  C20      1.0000 0.63960  0.56530  0.08410  Biso   1.000  C
  C21      1.0000 0.77500  0.35660  0.55100  Biso   1.000  C
  C22      1.0000 0.27500  0.14340  0.44900  Biso   1.000  C
  C23      1.0000 0.22500  0.85660  0.94900  Biso   1.000  C
  C24      1.0000 0.72500  0.64340  0.05100  Biso   1.000  C
  C25      1.0000 0.79450  0.24280  0.56340  Biso   1.000  C
  C26      1.0000 0.29450  0.25720  0.43660  Biso   1.000  C
  C27      1.0000 0.20550  0.74280  0.93660  Biso   1.000  C
  C28      1.0000 0.70550  0.75720  0.06340  Biso   1.000  C
  C29      1.0000 0.89490  0.20700  0.60950  Biso   1.000  C
  C30      1.0000 0.39490  0.29300  0.39050  Biso   1.000  C
  C31      1.0000 0.10510  0.70700  0.89050  Biso   1.000  C
  C32      1.0000 0.60510  0.79300  0.10950  Biso   1.000  C
  C33      1.0000 0.97880  0.28570  0.64240  Biso   1.000  C
  C34      1.0000 0.47880  0.21430  0.35760  Biso   1.000  C
  C35      1.0000 0.02120  0.78570  0.85760  Biso   1.000  C
  C36      1.0000 0.52120  0.71430  0.14240  Biso   1.000  C
  C37      1.0000 0.96280  0.39990  0.62950  Biso   1.000  C
  C38      1.0000 0.46280  0.10010  0.37050  Biso   1.000  C
  C39      1.0000 0.03720  0.89990  0.87050  Biso   1.000  C
  C40      1.0000 0.53720  0.60010  0.12950  Biso   1.000  C
  C41      1.0000 0.66060  0.39780  0.50560  Biso   1.000  C
  C42      1.0000 0.16060  0.10220  0.49440  Biso   1.000  C
  C43      1.0000 0.33940  0.89780  0.99440  Biso   1.000  C
  C44      1.0000 0.83940  0.60220  0.00560  Biso   1.000  C
  C45      1.0000 0.90590  0.08460  0.62600  Biso   1.000  C
  C46      1.0000 0.40590  0.41540  0.37400  Biso   1.000  C
  C47      1.0000 0.09410  0.58460  0.87400  Biso   1.000  C
  C48      1.0000 0.59410  0.91540  0.12600  Biso   1.000  C
  C49      1.0000 0.05110  0.48540  0.66590  Biso   1.000  C
  C50      1.0000 0.55110  0.01460  0.33410  Biso   1.000  C
  C51      1.0000 0.94890  0.98540  0.83410  Biso   1.000  C
  C52      1.0000 0.44890  0.51460  0.16590  Biso   1.000  C
  C53      1.0000 0.70490  0.15760  0.52800  Biso   1.000  C
  C54      1.0000 0.20490  0.34240  0.47200  Biso   1.000  C
  C55      1.0000 0.29510  0.65760  0.97200  Biso   1.000  C
  C56      1.0000 0.79510  0.84240  0.02800  Biso   1.000  C
  C57      1.0000 0.54570  0.00260  0.56780  Biso   1.000  C
  C58      1.0000 0.04570  0.49740  0.43220  Biso   1.000  C
  C59      1.0000 0.45430  0.50260  0.93220  Biso   1.000  C
  C60      1.0000 0.95430  0.99740  0.06780  Biso   1.000  C
  C61      1.0000 0.41730  0.08490  0.63790  Biso   1.000  C
  C62      1.0000 0.91730  0.41510  0.36210  Biso   1.000  C
  C63      1.0000 0.58270  0.58490  0.86210  Biso   1.000  C
  C64      1.0000 0.08270  0.91510  0.13790  Biso   1.000  C
  C65      1.0000 0.50530  0.16370  0.61290  Biso   1.000  C
  C66      1.0000 0.00530  0.33630  0.38710  Biso   1.000  C
  C67      1.0000 0.49470  0.66370  0.88710  Biso   1.000  C
  C68      1.0000 0.99470  0.83630  0.11290  Biso   1.000  C
  C69      1.0000 0.07860  0.25100  0.69580  Biso   1.000  C
  C70      1.0000 0.57860  0.24900  0.30420  Biso   1.000  C
  C71      1.0000 0.92140  0.75100  0.80420  Biso   1.000  C
  C72      1.0000 0.42140  0.74900  0.19580  Biso   1.000  C
  C73      1.0000 0.86470  0.27680  0.76820  Biso   1.000  C
  C74      1.0000 0.36470  0.22320  0.23180  Biso   1.000  C
  C75      1.0000 0.13530  0.77680  0.73180  Biso   1.000  C
  C76      1.0000 0.63530  0.72320  0.26820  Biso   1.000  C
  C77      1.0000 0.96950  0.30670  0.85810  Biso   1.000  C
  C78      1.0000 0.46950  0.19330  0.14190  Biso   1.000  C
  C79      1.0000 0.03050  0.80670  0.64190  Biso   1.000  C
  C80      1.0000 0.53050  0.69330  0.35810  Biso   1.000  C
  C81      1.0000 0.07570  0.29110  0.81500  Biso   1.000  C
  C82      1.0000 0.57570  0.20890  0.18500  Biso   1.000  C
  C83      1.0000 0.92430  0.79110  0.68500  Biso   1.000  C
  C84      1.0000 0.42430  0.70890  0.31500  Biso   1.000  C
  H1       1.0000 0.63920  0.72820  0.55280  Biso   1.000  H
  H2       1.0000 0.13920  0.77180  0.44720  Biso   1.000  H
  H3       1.0000 0.36080  0.22820  0.94720  Biso   1.000  H
  H4       1.0000 0.86080  0.27180  0.05280  Biso   1.000  H
  H5       1.0000 0.51280  0.63410  0.72600  Biso   1.000  H
  H6       1.0000 0.01280  0.86590  0.27400  Biso   1.000  H
  H7       1.0000 0.48720  0.13410  0.77400  Biso   1.000  H
  H8       1.0000 0.98720  0.36590  0.22600  Biso   1.000  H
  H9       1.0000 0.71620  0.50870  0.69440  Biso   1.000  H
  H10      1.0000 0.21620  0.99130  0.30560  Biso   1.000  H
  H11      1.0000 0.28380  0.00870  0.80560  Biso   1.000  H
  H12      1.0000 0.78380  0.49130  0.19440  Biso   1.000  H
  H13      1.0000 0.92780  0.59740  0.58370  Biso   1.000  H
  H14      1.0000 0.42780  0.90260  0.41630  Biso   1.000  H
  H15      1.0000 0.07220  0.09740  0.91630  Biso   1.000  H
  H16      1.0000 0.57220  0.40260  0.08370  Biso   1.000  H
  H17      1.0000 0.82130  0.56940  0.52680  Biso   1.000  H
  H18      1.0000 0.32130  0.93060  0.47320  Biso   1.000  H
  H19      1.0000 0.17870  0.06940  0.97320  Biso   1.000  H
  H20      1.0000 0.67870  0.43060  0.02680  Biso   1.000  H
  H21      1.0000 0.70560  0.44230  0.47250  Biso   1.000  H
  H22      1.0000 0.20560  0.05770  0.52750  Biso   1.000  H
  H23      1.0000 0.29440  0.94230  0.02750  Biso   1.000  H
  H24      1.0000 0.79440  0.55770  0.97250  Biso   1.000  H
  H25      1.0000 0.59080  0.44310  0.52860  Biso   1.000  H
  H26      1.0000 0.09080  0.05690  0.47140  Biso   1.000  H
  H27      1.0000 0.40920  0.94310  0.97140  Biso   1.000  H
  H28      1.0000 0.90920  0.55690  0.02860  Biso   1.000  H
  H29      1.0000 0.61150  0.33440  0.48660  Biso   1.000  H
  H30      1.0000 0.11150  0.16560  0.51340  Biso   1.000  H
  H31      1.0000 0.38850  0.83440  0.01340  Biso   1.000  H
  H32      1.0000 0.88850  0.66560  0.98660  Biso   1.000  H
  H33      1.0000 0.84050  0.04250  0.59890  Biso   1.000  H
  H34      1.0000 0.34050  0.45750  0.40110  Biso   1.000  H
  H35      1.0000 0.15950  0.54250  0.90110  Biso   1.000  H
  H36      1.0000 0.65950  0.95750  0.09890  Biso   1.000  H
  H37      1.0000 0.87950  0.07340  0.67020  Biso   1.000  H
  H38      1.0000 0.37950  0.42660  0.32980  Biso   1.000  H
  H39      1.0000 0.12050  0.57340  0.82980  Biso   1.000  H
  H40      1.0000 0.62050  0.92660  0.17020  Biso   1.000  H
  H41      1.0000 0.00460  0.05900  0.61920  Biso   1.000  H
  H42      1.0000 0.50460  0.44100  0.38080  Biso   1.000  H
  H43      1.0000 0.99540  0.55900  0.88080  Biso   1.000  H
  H44      1.0000 0.49540  0.94100  0.11920  Biso   1.000  H
  H45      1.0000 0.10750  0.52960  0.63620  Biso   1.000  H
  H46      1.0000 0.60750  0.97040  0.36380  Biso   1.000  H
  H47      1.0000 0.89250  0.02960  0.86380  Biso   1.000  H
  H48      1.0000 0.39250  0.47040  0.13620  Biso   1.000  H
  H49      1.0000 0.11580  0.44760  0.69520  Biso   1.000  H
  H50      1.0000 0.61580  0.05240  0.30480  Biso   1.000  H
  H51      1.0000 0.88420  0.94760  0.80480  Biso   1.000  H
  H52      1.0000 0.38420  0.55240  0.19520  Biso   1.000  H
  H53      1.0000 0.98620  0.53380  0.68960  Biso   1.000  H
  H54      1.0000 0.48620  0.96620  0.31040  Biso   1.000  H
  H55      1.0000 0.01380  0.03380  0.81040  Biso   1.000  H
  H56      1.0000 0.51380  0.46620  0.18960  Biso   1.000  H
  H57      1.0000 0.66040  0.19380  0.49160  Biso   1.000  H
  H58      1.0000 0.16040  0.30620  0.50840  Biso   1.000  H
  H59      1.0000 0.33960  0.69380  0.00840  Biso   1.000  H
  H60      1.0000 0.83960  0.80620  0.99160  Biso   1.000  H
  H61      1.0000 0.76750  0.09780  0.51340  Biso   1.000  H
  H62      1.0000 0.26750  0.40220  0.48660  Biso   1.000  H
  H63      1.0000 0.23250  0.59780  0.98660  Biso   1.000  H
  H64      1.0000 0.73250  0.90220  0.01340  Biso   1.000  H
  H65      1.0000 0.58740  0.94550  0.54070  Biso   1.000  H
  H66      1.0000 0.08740  0.55450  0.45930  Biso   1.000  H
  H67      1.0000 0.41260  0.44550  0.95930  Biso   1.000  H
  H68      1.0000 0.91260  0.05450  0.04070  Biso   1.000  H
  H69      1.0000 0.34680  0.09710  0.67150  Biso   1.000  H
  H70      1.0000 0.84680  0.40290  0.32850  Biso   1.000  H
  H71      1.0000 0.65320  0.59710  0.82850  Biso   1.000  H
  H72      1.0000 0.15320  0.90290  0.17150  Biso   1.000  H
  H73      1.0000 0.51010  0.24190  0.62470  Biso   1.000  H
  H74      1.0000 0.01010  0.25810  0.37530  Biso   1.000  H
  H75      1.0000 0.48990  0.74190  0.87530  Biso   1.000  H
  H76      1.0000 0.98990  0.75810  0.12470  Biso   1.000  H
  H77      1.0000 0.10130  0.17220  0.69200  Biso   1.000  H
  H78      1.0000 0.60130  0.32780  0.30800  Biso   1.000  H
  H79      1.0000 0.89870  0.67220  0.80800  Biso   1.000  H
  H80      1.0000 0.39870  0.82780  0.19200  Biso   1.000  H
  H81      1.0000 0.16740  0.29420  0.69350  Biso   1.000  H
  H82      1.0000 0.66740  0.20580  0.30650  Biso   1.000  H
  H83      1.0000 0.83260  0.79420  0.80650  Biso   1.000  H
  H84      1.0000 0.33260  0.70580  0.19350  Biso   1.000  H
  H85      1.0000 0.79140  0.26640  0.73560  Biso   1.000  H
  H86      1.0000 0.29140  0.23360  0.26440  Biso   1.000  H
  H87      1.0000 0.20860  0.76640  0.76440  Biso   1.000  H
  H88      1.0000 0.70860  0.73360  0.23560  Biso   1.000  H
  H89      1.0000 0.98350  0.32100  0.90310  Biso   1.000  H
  H90      1.0000 0.48350  0.17900  0.09690  Biso   1.000  H
  H91      1.0000 0.01650  0.82100  0.59690  Biso   1.000  H
  H92      1.0000 0.51650  0.67900  0.40310  Biso   1.000  H
  H93      1.0000 0.17930  0.29330  0.82280  Biso   1.000  H
  H94      1.0000 0.67930  0.20670  0.17720  Biso   1.000  H
  H95      1.0000 0.82070  0.79330  0.67720  Biso   1.000  H
  H96      1.0000 0.32070  0.70670  0.32280  Biso   1.000  H
