data_image0
_cell_length_a       12.315
_cell_length_b       15.569
_cell_length_c       12.727
_cell_angle_alpha    90
_cell_angle_beta     90
_cell_angle_gamma    90

_symmetry_space_group_name_H-M    "P 1"
_symmetry_int_tables_number       1

loop_
  _symmetry_equiv_pos_as_xyz
  'x, y, z'

loop_
  _atom_site_label
  _atom_site_occupancy
  _atom_site_fract_x
  _atom_site_fract_y
  _atom_site_fract_z
  _atom_site_thermal_displace_type
  _atom_site_B_iso_or_equiv
  _atom_site_type_symbol
  Cu1      1.0000 0.51250  0.94597  0.67279  Biso   1.000  Cu
  Cu2      1.0000 0.48750  0.05403  0.17279  Biso   1.000  Cu
  Cu3      1.0000 0.98750  0.44597  0.17279  Biso   1.000  Cu
  Cu4      1.0000 0.01250  0.55403  0.67279  Biso   1.000  Cu
  S1       1.0000 0.46046  0.82492  0.80636  Biso   1.000  S
  S2       1.0000 0.53954  0.17508  0.30636  Biso   1.000  S
  S3       1.0000 0.03954  0.32492  0.30636  Biso   1.000  S
  S4       1.0000 0.96046  0.67508  0.80636  Biso   1.000  S
  O1       1.0000 0.23550  0.71390  0.96570  Biso   1.000  O
  O2       1.0000 0.76450  0.28610  0.46570  Biso   1.000  O
  O3       1.0000 0.26450  0.21390  0.46570  Biso   1.000  O
  O4       1.0000 0.73550  0.78610  0.96570  Biso   1.000  O
  H1       1.0000 0.16600  0.71600  0.94000  Biso   1.000  H
  H2       1.0000 0.83400  0.28400  0.44000  Biso   1.000  H
  H3       1.0000 0.33400  0.21600  0.44000  Biso   1.000  H
  H4       1.0000 0.66600  0.78400  0.94000  Biso   1.000  H
  H5       1.0000 0.27200  0.73600  0.89700  Biso   1.000  H
  H6       1.0000 0.72800  0.26400  0.39700  Biso   1.000  H
  H7       1.0000 0.22800  0.23600  0.39700  Biso   1.000  H
  H8       1.0000 0.77200  0.76400  0.89700  Biso   1.000  H
  O5       1.0000 0.03290  0.79880  0.54000  Biso   1.000  O
  O6       1.0000 0.96710  0.20120  0.04000  Biso   1.000  O
  O7       1.0000 0.46710  0.29880  0.04000  Biso   1.000  O
  O8       1.0000 0.53290  0.70120  0.54000  Biso   1.000  O
  O9       1.0000 0.15130  0.83880  0.71250  Biso   1.000  O
  O10      1.0000 0.84870  0.16120  0.21250  Biso   1.000  O
  O11      1.0000 0.34870  0.33880  0.21250  Biso   1.000  O
  O12      1.0000 0.65130  0.66120  0.71250  Biso   1.000  O
  O13      1.0000 0.53010  0.81987  0.70992  Biso   1.000  O
  O14      1.0000 0.46990  0.18013  0.20992  Biso   1.000  O
  O15      1.0000 0.96990  0.31987  0.20992  Biso   1.000  O
  O16      1.0000 0.03010  0.68013  0.70992  Biso   1.000  O
  O17      1.0000 0.51880  0.80180  0.89960  Biso   1.000  O
  O18      1.0000 0.48120  0.19820  0.39960  Biso   1.000  O
  O19      1.0000 0.98120  0.30180  0.39960  Biso   1.000  O
  O20      1.0000 0.01880  0.69820  0.89960  Biso   1.000  O
  O21      1.0000 0.36370  0.77255  0.79200  Biso   1.000  O
  O22      1.0000 0.63630  0.22745  0.29200  Biso   1.000  O
  O23      1.0000 0.13630  0.27255  0.29200  Biso   1.000  O
  O24      1.0000 0.86370  0.72745  0.79200  Biso   1.000  O
  O25      1.0000 0.43120  0.91828  0.80610  Biso   1.000  O
  O26      1.0000 0.56880  0.08172  0.30610  Biso   1.000  O
  O27      1.0000 0.06880  0.41828  0.30610  Biso   1.000  O
  O28      1.0000 0.93120  0.58172  0.80610  Biso   1.000  O
  N1       1.0000 0.76660  0.97483  0.46260  Biso   1.000  N
  N2       1.0000 0.23340  0.02517  0.96260  Biso   1.000  N
  N3       1.0000 0.73340  0.47483  0.96260  Biso   1.000  N
  N4       1.0000 0.26660  0.52517  0.46260  Biso   1.000  N
  N5       1.0000 0.64550  0.94263  0.58290  Biso   1.000  N
  N6       1.0000 0.35450  0.05737  0.08290  Biso   1.000  N
  N7       1.0000 0.85450  0.44263  0.08290  Biso   1.000  N
  N8       1.0000 0.14550  0.55737  0.58290  Biso   1.000  N
  N9       1.0000 0.26880  0.95704  0.42850  Biso   1.000  N
  N10      1.0000 0.73120  0.04296  0.92850  Biso   1.000  N
  N11      1.0000 0.23120  0.45704  0.92850  Biso   1.000  N
  N12      1.0000 0.76880  0.54296  0.42850  Biso   1.000  N
  N13      1.0000 0.38090  0.93703  0.56090  Biso   1.000  N
  N14      1.0000 0.61910  0.06297  0.06090  Biso   1.000  N
  N15      1.0000 0.11910  0.43703  0.06090  Biso   1.000  N
  N16      1.0000 0.88090  0.56297  0.56090  Biso   1.000  N
  N17      1.0000 0.98478  0.71229  0.18690  Biso   1.000  N
  N18      1.0000 0.01522  0.28771  0.68690  Biso   1.000  N
  N19      1.0000 0.51522  0.21229  0.68690  Biso   1.000  N
  N20      1.0000 0.48478  0.78771  0.18690  Biso   1.000  N
  N21      1.0000 0.98886  0.57237  0.20200  Biso   1.000  N
  N22      1.0000 0.01114  0.42763  0.70200  Biso   1.000  N
  N23      1.0000 0.51114  0.07237  0.70200  Biso   1.000  N
  N24      1.0000 0.48886  0.92763  0.20200  Biso   1.000  N
  C1       1.0000 0.91410  0.97564  0.32870  Biso   1.000  C
  C2       1.0000 0.08590  0.02436  0.82870  Biso   1.000  C
  C3       1.0000 0.58590  0.47564  0.82870  Biso   1.000  C
  C4       1.0000 0.41410  0.52436  0.32870  Biso   1.000  C
  C5       1.0000 0.01870  0.00143  0.35800  Biso   1.000  C
  C6       1.0000 0.98130  0.99857  0.85800  Biso   1.000  C
  C7       1.0000 0.48130  0.50143  0.85800  Biso   1.000  C
  C8       1.0000 0.51870  0.49857  0.35800  Biso   1.000  C
  C9       1.0000 0.10920  0.96479  0.30940  Biso   1.000  C
  C10      1.0000 0.89080  0.03521  0.80940  Biso   1.000  C
  C11      1.0000 0.39080  0.46479  0.80940  Biso   1.000  C
  C12      1.0000 0.60920  0.53521  0.30940  Biso   1.000  C
  C13      1.0000 0.09610  0.89854  0.23600  Biso   1.000  C
  C14      1.0000 0.90390  0.10146  0.73600  Biso   1.000  C
  C15      1.0000 0.40390  0.39854  0.73600  Biso   1.000  C
  C16      1.0000 0.59610  0.60146  0.23600  Biso   1.000  C
  C17      1.0000 0.99110  0.87026  0.20940  Biso   1.000  C
  C18      1.0000 0.00890  0.12974  0.70940  Biso   1.000  C
  C19      1.0000 0.50890  0.37026  0.70940  Biso   1.000  C
  C20      1.0000 0.49110  0.62974  0.20940  Biso   1.000  C
  C21      1.0000 0.89960  0.90866  0.25530  Biso   1.000  C
  C22      1.0000 0.10040  0.09134  0.75530  Biso   1.000  C
  C23      1.0000 0.60040  0.40866  0.75530  Biso   1.000  C
  C24      1.0000 0.39960  0.59134  0.25530  Biso   1.000  C
  C25      1.0000 0.81670  0.02120  0.37370  Biso   1.000  C
  C26      1.0000 0.18330  0.97880  0.87370  Biso   1.000  C
  C27      1.0000 0.68330  0.52120  0.87370  Biso   1.000  C
  C28      1.0000 0.31670  0.47880  0.37370  Biso   1.000  C
  H9       1.0000 0.83910  0.07910  0.39770  Biso   1.000  H
  H10      1.0000 0.16090  0.92090  0.89770  Biso   1.000  H
  H11      1.0000 0.66090  0.57910  0.89770  Biso   1.000  H
  H12      1.0000 0.33910  0.42090  0.39770  Biso   1.000  H
  H13      1.0000 0.76190  0.02870  0.31760  Biso   1.000  H
  H14      1.0000 0.23810  0.97130  0.81760  Biso   1.000  H
  H15      1.0000 0.73810  0.52870  0.81760  Biso   1.000  H
  H16      1.0000 0.26190  0.47130  0.31760  Biso   1.000  H
  C29      1.0000 0.66790  0.99104  0.50080  Biso   1.000  C
  C30      1.0000 0.33210  0.00896  0.00080  Biso   1.000  C
  C31      1.0000 0.83210  0.49104  0.00080  Biso   1.000  C
  C32      1.0000 0.16790  0.50896  0.50080  Biso   1.000  C
  H17      1.0000 0.61960  0.03250  0.47240  Biso   1.000  H
  H18      1.0000 0.38040  0.96750  0.97240  Biso   1.000  H
  H19      1.0000 0.88040  0.53250  0.97240  Biso   1.000  H
  H20      1.0000 0.11960  0.46750  0.47240  Biso   1.000  H
  C33      1.0000 0.73510  0.89170  0.59770  Biso   1.000  C
  C34      1.0000 0.26490  0.10830  0.09770  Biso   1.000  C
  C35      1.0000 0.76490  0.39170  0.09770  Biso   1.000  C
  C36      1.0000 0.23510  0.60830  0.59770  Biso   1.000  C
  H21      1.0000 0.74260  0.84930  0.65090  Biso   1.000  H
  H22      1.0000 0.25740  0.15070  0.15090  Biso   1.000  H
  H23      1.0000 0.75740  0.34930  0.15090  Biso   1.000  H
  H24      1.0000 0.24260  0.65070  0.65090  Biso   1.000  H
  C37      1.0000 0.81140  0.91130  0.52450  Biso   1.000  C
  C38      1.0000 0.18860  0.08870  0.02450  Biso   1.000  C
  C39      1.0000 0.68860  0.41130  0.02450  Biso   1.000  C
  C40      1.0000 0.31140  0.58870  0.52450  Biso   1.000  C
  H25      1.0000 0.88140  0.88630  0.51740  Biso   1.000  H
  H26      1.0000 0.11860  0.11370  0.01740  Biso   1.000  H
  H27      1.0000 0.61860  0.38630  0.01740  Biso   1.000  H
  H28      1.0000 0.38140  0.61370  0.51740  Biso   1.000  H
  C41      1.0000 0.03390  0.06820  0.44380  Biso   1.000  C
  C42      1.0000 0.96610  0.93180  0.94380  Biso   1.000  C
  C43      1.0000 0.46610  0.56820  0.94380  Biso   1.000  C
  C44      1.0000 0.53390  0.43180  0.44380  Biso   1.000  C
  H29      1.0000 0.10550  0.06080  0.47620  Biso   1.000  H
  H30      1.0000 0.89450  0.93920  0.97620  Biso   1.000  H
  H31      1.0000 0.39450  0.56080  0.97620  Biso   1.000  H
  H32      1.0000 0.60550  0.43920  0.47620  Biso   1.000  H
  H33      1.0000 0.97730  0.06110  0.49720  Biso   1.000  H
  H34      1.0000 0.02270  0.93890  0.99720  Biso   1.000  H
  H35      1.0000 0.52270  0.56110  0.99720  Biso   1.000  H
  H36      1.0000 0.47730  0.43890  0.49720  Biso   1.000  H
  H37      1.0000 0.02880  0.12580  0.41320  Biso   1.000  H
  H38      1.0000 0.97120  0.87420  0.91320  Biso   1.000  H
  H39      1.0000 0.47120  0.62580  0.91320  Biso   1.000  H
  H40      1.0000 0.52880  0.37420  0.41320  Biso   1.000  H
  C45      1.0000 0.22170  0.99810  0.33420  Biso   1.000  C
  C46      1.0000 0.77830  0.00190  0.83420  Biso   1.000  C
  C47      1.0000 0.27830  0.49810  0.83420  Biso   1.000  C
  C48      1.0000 0.72170  0.50190  0.33420  Biso   1.000  C
  H41      1.0000 0.26980  0.98750  0.27330  Biso   1.000  H
  H42      1.0000 0.73020  0.01250  0.77330  Biso   1.000  H
  H43      1.0000 0.23020  0.48750  0.77330  Biso   1.000  H
  H44      1.0000 0.76980  0.51250  0.27330  Biso   1.000  H
  H45      1.0000 0.21800  0.06100  0.34550  Biso   1.000  H
  H46      1.0000 0.78200  0.93900  0.84550  Biso   1.000  H
  H47      1.0000 0.28200  0.56100  0.84550  Biso   1.000  H
  H48      1.0000 0.71800  0.43900  0.34550  Biso   1.000  H
  C49      1.0000 0.34570  0.99180  0.49040  Biso   1.000  C
  C50      1.0000 0.65430  0.00820  0.99040  Biso   1.000  C
  C51      1.0000 0.15430  0.49180  0.99040  Biso   1.000  C
  C52      1.0000 0.84570  0.50820  0.49040  Biso   1.000  C
  H49      1.0000 0.37140  0.04900  0.48380  Biso   1.000  H
  H50      1.0000 0.62860  0.95100  0.98380  Biso   1.000  H
  H51      1.0000 0.12860  0.54900  0.98380  Biso   1.000  H
  H52      1.0000 0.87140  0.45100  0.48380  Biso   1.000  H
  C53      1.0000 0.32530  0.86170  0.54060  Biso   1.000  C
  C54      1.0000 0.67470  0.13830  0.04060  Biso   1.000  C
  C55      1.0000 0.17470  0.36170  0.04060  Biso   1.000  C
  C56      1.0000 0.82530  0.63830  0.54060  Biso   1.000  C
  H53      1.0000 0.33360  0.80970  0.57890  Biso   1.000  H
  H54      1.0000 0.66640  0.19030  0.07890  Biso   1.000  H
  H55      1.0000 0.16640  0.30970  0.07890  Biso   1.000  H
  H56      1.0000 0.83360  0.69030  0.57890  Biso   1.000  H
  C57      1.0000 0.25790  0.87270  0.45910  Biso   1.000  C
  C58      1.0000 0.74210  0.12730  0.95910  Biso   1.000  C
  C59      1.0000 0.24210  0.37270  0.95910  Biso   1.000  C
  C60      1.0000 0.75790  0.62730  0.45910  Biso   1.000  C
  H57      1.0000 0.21180  0.83070  0.42840  Biso   1.000  H
  H58      1.0000 0.78820  0.16930  0.92840  Biso   1.000  H
  H59      1.0000 0.28820  0.33070  0.92840  Biso   1.000  H
  H60      1.0000 0.71180  0.66930  0.42840  Biso   1.000  H
  C61      1.0000 0.19390  0.85650  0.18420  Biso   1.000  C
  C62      1.0000 0.80610  0.14350  0.68420  Biso   1.000  C
  C63      1.0000 0.30610  0.35650  0.68420  Biso   1.000  C
  C64      1.0000 0.69390  0.64350  0.18420  Biso   1.000  C
  H61      1.0000 0.21520  0.88970  0.12220  Biso   1.000  H
  H62      1.0000 0.78480  0.11030  0.62220  Biso   1.000  H
  H63      1.0000 0.28480  0.38970  0.62220  Biso   1.000  H
  H64      1.0000 0.71520  0.61030  0.12220  Biso   1.000  H
  H65      1.0000 0.17520  0.79780  0.16300  Biso   1.000  H
  H66      1.0000 0.82480  0.20220  0.66300  Biso   1.000  H
  H67      1.0000 0.32480  0.29780  0.66300  Biso   1.000  H
  H68      1.0000 0.67520  0.70220  0.16300  Biso   1.000  H
  H69      1.0000 0.25450  0.85480  0.23420  Biso   1.000  H
  H70      1.0000 0.74550  0.14520  0.73420  Biso   1.000  H
  H71      1.0000 0.24550  0.35480  0.73420  Biso   1.000  H
  H72      1.0000 0.75450  0.64520  0.23420  Biso   1.000  H
  C65      1.0000 0.97670  0.79696  0.13400  Biso   1.000  C
  C66      1.0000 0.02330  0.20304  0.63400  Biso   1.000  C
  C67      1.0000 0.52330  0.29696  0.63400  Biso   1.000  C
  C68      1.0000 0.47670  0.70304  0.13400  Biso   1.000  C
  H73      1.0000 0.90480  0.80190  0.09970  Biso   1.000  H
  H74      1.0000 0.09520  0.19810  0.59970  Biso   1.000  H
  H75      1.0000 0.59520  0.30190  0.59970  Biso   1.000  H
  H76      1.0000 0.40480  0.69810  0.09970  Biso   1.000  H
  H77      1.0000 0.03290  0.80070  0.07850  Biso   1.000  H
  H78      1.0000 0.96710  0.19930  0.57850  Biso   1.000  H
  H79      1.0000 0.46710  0.30070  0.57850  Biso   1.000  H
  H80      1.0000 0.53290  0.69930  0.07850  Biso   1.000  H
  C69      1.0000 0.98290  0.63704  0.13580  Biso   1.000  C
  C70      1.0000 0.01710  0.36296  0.63580  Biso   1.000  C
  C71      1.0000 0.51710  0.13704  0.63580  Biso   1.000  C
  C72      1.0000 0.48290  0.86296  0.13580  Biso   1.000  C
  H81      1.0000 0.97790  0.63120  0.06170  Biso   1.000  H
  H82      1.0000 0.02210  0.36880  0.56170  Biso   1.000  H
  H83      1.0000 0.52210  0.13120  0.56170  Biso   1.000  H
  H84      1.0000 0.47790  0.86880  0.06170  Biso   1.000  H
  C73      1.0000 0.99550  0.60860  0.30110  Biso   1.000  C
  C74      1.0000 0.00450  0.39140  0.80110  Biso   1.000  C
  C75      1.0000 0.50450  0.10860  0.80110  Biso   1.000  C
  C76      1.0000 0.49550  0.89140  0.30110  Biso   1.000  C
  H85      1.0000 0.00150  0.57750  0.36510  Biso   1.000  H
  H86      1.0000 0.99850  0.42250  0.86510  Biso   1.000  H
  H87      1.0000 0.49850  0.07750  0.86510  Biso   1.000  H
  H88      1.0000 0.50150  0.92250  0.36510  Biso   1.000  H
  C77      1.0000 0.99220  0.69460  0.29250  Biso   1.000  C
  C78      1.0000 0.00780  0.30540  0.79250  Biso   1.000  C
  C79      1.0000 0.50780  0.19460  0.79250  Biso   1.000  C
  C80      1.0000 0.49220  0.80540  0.29250  Biso   1.000  C
  H89      1.0000 0.99450  0.73510  0.34830  Biso   1.000  H
  H90      1.0000 0.00550  0.26490  0.84830  Biso   1.000  H
  H91      1.0000 0.50550  0.23510  0.84830  Biso   1.000  H
  H92      1.0000 0.49450  0.76490  0.34830  Biso   1.000  H
  C81      1.0000 0.78570  0.88050  0.22930  Biso   1.000  C
  C82      1.0000 0.21430  0.11950  0.72930  Biso   1.000  C
  C83      1.0000 0.71430  0.38050  0.72930  Biso   1.000  C
  C84      1.0000 0.28570  0.61950  0.22930  Biso   1.000  C
  H93      1.0000 0.76960  0.82660  0.26590  Biso   1.000  H
  H94      1.0000 0.23040  0.17340  0.76590  Biso   1.000  H
  H95      1.0000 0.73040  0.32660  0.76590  Biso   1.000  H
  H96      1.0000 0.26960  0.67340  0.26590  Biso   1.000  H
  H97      1.0000 0.77910  0.87180  0.15330  Biso   1.000  H
  H98      1.0000 0.22090  0.12820  0.65330  Biso   1.000  H
  H99      1.0000 0.72090  0.37180  0.65330  Biso   1.000  H
  H100     1.0000 0.27910  0.62820  0.15330  Biso   1.000  H
  H101     1.0000 0.73420  0.92480  0.25190  Biso   1.000  H
  H102     1.0000 0.26580  0.07520  0.75190  Biso   1.000  H
  H103     1.0000 0.76580  0.42480  0.75190  Biso   1.000  H
  H104     1.0000 0.23420  0.57520  0.25190  Biso   1.000  H
