data_image0
_cell_length_a       8.003
_cell_length_b       8.611
_cell_length_c       8.62
_cell_angle_alpha    96.14
_cell_angle_beta     116.66
_cell_angle_gamma    105.66

_symmetry_space_group_name_H-M    "P 1"
_symmetry_int_tables_number       1

loop_
  _symmetry_equiv_pos_as_xyz
  'x, y, z'

loop_
  _atom_site_label
  _atom_site_occupancy
  _atom_site_fract_x
  _atom_site_fract_y
  _atom_site_fract_z
  _atom_site_thermal_displace_type
  _atom_site_B_iso_or_equiv
  _atom_site_type_symbol
  Cu1      1.0000 0.58138  0.63285  0.63539  Biso   1.000  Cu
  Cu2      1.0000 0.41862  0.36715  0.36461  Biso   1.000  Cu
  O1       1.0000 0.39480  0.72640  0.47050  Biso   1.000  O
  O2       1.0000 0.60520  0.27360  0.52950  Biso   1.000  O
  O3       1.0000 0.26180  0.50040  0.24390  Biso   1.000  O
  O4       1.0000 0.73820  0.49960  0.75610  Biso   1.000  O
  O5       1.0000 0.76270  0.71080  0.54040  Biso   1.000  O
  O6       1.0000 0.23730  0.28920  0.45960  Biso   1.000  O
  O7       1.0000 0.63620  0.48220  0.31930  Biso   1.000  O
  O8       1.0000 0.36380  0.51780  0.68070  Biso   1.000  O
  O9       1.0000 0.74460  0.84770  0.85810  Biso   1.000  O
  O10      1.0000 0.25540  0.15230  0.14190  Biso   1.000  O
  N1       1.0000 0.54650  0.81640  0.98430  Biso   1.000  N
  N2       1.0000 0.45350  0.18360  0.01570  Biso   1.000  N
  N3       1.0000 0.85090  0.02890  0.11980  Biso   1.000  N
  N4       1.0000 0.14910  0.97110  0.88020  Biso   1.000  N
  C1       1.0000 0.26760  0.63880  0.31110  Biso   1.000  C
  C2       1.0000 0.73240  0.36120  0.68890  Biso   1.000  C
  C3       1.0000 0.10400  0.69860  0.19480  Biso   1.000  C
  C4       1.0000 0.89600  0.30140  0.80520  Biso   1.000  C
  H1       1.0000 0.07370  0.66910  0.07330  Biso   1.000  H
  H2       1.0000 0.92630  0.33090  0.92670  Biso   1.000  H
  H3       1.0000 0.14730  0.81680  0.23410  Biso   1.000  H
  H4       1.0000 0.85270  0.18320  0.76590  Biso   1.000  H
  C5       1.0000 0.91650  0.61660  0.20840  Biso   1.000  C
  C6       1.0000 0.08350  0.38340  0.79160  Biso   1.000  C
  H5       1.0000 0.80360  0.62690  0.11160  Biso   1.000  H
  H6       1.0000 0.19640  0.37310  0.88840  Biso   1.000  H
  H7       1.0000 0.89340  0.50080  0.19730  Biso   1.000  H
  H8       1.0000 0.10660  0.49920  0.80270  Biso   1.000  H
  C7       1.0000 0.93730  0.69550  0.38480  Biso   1.000  C
  C8       1.0000 0.06270  0.30450  0.61520  Biso   1.000  C
  H9       1.0000 0.96000  0.81100  0.39350  Biso   1.000  H
  H10      1.0000 0.04000  0.18900  0.60650  Biso   1.000  H
  H11      1.0000 0.05340  0.68770  0.48000  Biso   1.000  H
  H12      1.0000 0.94660  0.31230  0.52000  Biso   1.000  H
  C9       1.0000 0.76430  0.62350  0.41530  Biso   1.000  C
  C10      1.0000 0.23570  0.37650  0.58470  Biso   1.000  C
  C11      1.0000 0.71460  0.89530  0.98290  Biso   1.000  C
  C12      1.0000 0.28540  0.10470  0.01710  Biso   1.000  C
  H13      1.0000 0.45830  0.71810  0.89370  Biso   1.000  H
  H14      1.0000 0.54170  0.28190  0.10630  Biso   1.000  H
  H15      1.0000 0.51780  0.86000  0.06590  Biso   1.000  H
  H16      1.0000 0.48220  0.14000  0.93410  Biso   1.000  H
  H17      1.0000 0.83810  0.05640  0.21220  Biso   1.000  H
  H18      1.0000 0.16190  0.94360  0.78780  Biso   1.000  H
  H19      1.0000 0.96320  0.07300  0.11670  Biso   1.000  H
  H20      1.0000 0.03680  0.92700  0.88330  Biso   1.000  H
  O11      1.0000 0.62830  0.97770  0.34340  Biso   1.000  O
  O12      1.0000 0.37170  0.02230  0.65660  Biso   1.000  O
  H21      1.0000 0.59720  0.06200  0.38830  Biso   1.000  H
  H22      1.0000 0.40280  0.93800  0.61170  Biso   1.000  H
  H23      1.0000 0.61000  0.92020  0.42230  Biso   1.000  H
  H24      1.0000 0.39000  0.07980  0.57770  Biso   1.000  H
