data_image0
_cell_length_a       6.7048
_cell_length_b       10.0538
_cell_length_c       12.405
_cell_angle_alpha    64.27
_cell_angle_beta     72.49
_cell_angle_gamma    79.775

_symmetry_space_group_name_H-M    "P 1"
_symmetry_int_tables_number       1

loop_
  _symmetry_equiv_pos_as_xyz
  'x, y, z'

loop_
  _atom_site_label
  _atom_site_occupancy
  _atom_site_fract_x
  _atom_site_fract_y
  _atom_site_fract_z
  _atom_site_thermal_displace_type
  _atom_site_B_iso_or_equiv
  _atom_site_type_symbol
  Cu1      1.0000 0.80291  0.14940  0.15774  Biso   1.000  Cu
  Cu2      1.0000 0.19709  0.85060  0.84226  Biso   1.000  Cu
  O1       1.0000 0.67020  0.33440  0.16700  Biso   1.000  O
  O2       1.0000 0.32980  0.66560  0.83300  Biso   1.000  O
  O3       1.0000 0.93450  0.44920  0.15960  Biso   1.000  O
  O4       1.0000 0.06550  0.55080  0.84040  Biso   1.000  O
  O5       1.0000 0.79560  0.95280  0.14990  Biso   1.000  O
  O6       1.0000 0.20440  0.04720  0.85010  Biso   1.000  O
  O7       1.0000 0.46490  0.03500  0.19640  Biso   1.000  O
  O8       1.0000 0.53510  0.96500  0.80360  Biso   1.000  O
  O9       1.0000 0.13530  0.20790  0.11620  Biso   1.000  O
  O10      1.0000 0.86470  0.79210  0.88380  Biso   1.000  O
  H1       1.0000 0.13828  0.28507  0.13111  Biso   1.000  H
  H2       1.0000 0.86172  0.71493  0.86889  Biso   1.000  H
  H3       1.0000 0.20043  0.13794  0.16799  Biso   1.000  H
  H4       1.0000 0.79957  0.86206  0.83201  Biso   1.000  H
  N1       1.0000 0.78570  0.04090  0.33850  Biso   1.000  N
  N2       1.0000 0.21430  0.95910  0.66150  Biso   1.000  N
  N3       1.0000 0.73360  0.09970  0.42610  Biso   1.000  N
  N4       1.0000 0.26640  0.90030  0.57390  Biso   1.000  N
  N5       1.0000 0.80150  0.85990  0.51470  Biso   1.000  N
  N6       1.0000 0.19850  0.14010  0.48530  Biso   1.000  N
  N7       1.0000 0.13530  0.75450  0.03180  Biso   1.000  N
  N8       1.0000 0.86470  0.24550  0.96820  Biso   1.000  N
  H5       1.0000 0.03606  0.81110  0.06053  Biso   1.000  H
  H6       1.0000 0.96394  0.18890  0.93947  Biso   1.000  H
  H7       1.0000 0.08128  0.66790  0.05768  Biso   1.000  H
  H8       1.0000 0.91872  0.33210  0.94232  Biso   1.000  H
  C1       1.0000 0.82450  0.89850  0.39410  Biso   1.000  C
  C2       1.0000 0.17550  0.10150  0.60590  Biso   1.000  C
  H9       1.0000 0.86262  0.83339  0.35529  Biso   1.000  H
  H10      1.0000 0.13738  0.16661  0.64471  Biso   1.000  H
  C3       1.0000 0.74410  0.98690  0.53000  Biso   1.000  C
  C4       1.0000 0.25590  0.01310  0.47000  Biso   1.000  C
  H11      1.0000 0.71522  0.99376  0.60566  Biso   1.000  H
  H12      1.0000 0.28478  0.00624  0.39434  Biso   1.000  H
  C5       1.0000 0.82360  0.71020  0.61140  Biso   1.000  C
  C6       1.0000 0.17640  0.28980  0.38860  Biso   1.000  C
  H13      1.0000 0.68726  0.68036  0.66723  Biso   1.000  H
  H14      1.0000 0.31274  0.31964  0.33277  Biso   1.000  H
  H15      1.0000 0.91350  0.71208  0.65898  Biso   1.000  H
  H16      1.0000 0.08650  0.28792  0.34102  Biso   1.000  H
  C7       1.0000 0.91510  0.59910  0.55580  Biso   1.000  C
  C8       1.0000 0.08490  0.40090  0.44420  Biso   1.000  C
  C9       1.0000 0.12960  0.57860  0.51630  Biso   1.000  C
  C10      1.0000 0.87040  0.42140  0.48370  Biso   1.000  C
  H17      1.0000 0.21828  0.63065  0.52721  Biso   1.000  H
  H18      1.0000 0.78172  0.36935  0.47279  Biso   1.000  H
  C11      1.0000 0.78720  0.51930  0.53940  Biso   1.000  C
  C12      1.0000 0.21280  0.48070  0.46060  Biso   1.000  C
  H19      1.0000 0.64256  0.53152  0.56625  Biso   1.000  H
  H20      1.0000 0.35744  0.46848  0.43375  Biso   1.000  H
  C13      1.0000 0.75020  0.44340  0.16180  Biso   1.000  C
  C14      1.0000 0.24980  0.55660  0.83820  Biso   1.000  C
  C15      1.0000 0.60370  0.57580  0.15370  Biso   1.000  C
  C16      1.0000 0.39630  0.42420  0.84630  Biso   1.000  C
  C17      1.0000 0.42710  0.59760  0.10940  Biso   1.000  C
  C18      1.0000 0.57290  0.40240  0.89060  Biso   1.000  C
  H21      1.0000 0.39181  0.52361  0.09358  Biso   1.000  H
  H22      1.0000 0.60819  0.47639  0.90642  Biso   1.000  H
  C19      1.0000 0.30270  0.72910  0.08850  Biso   1.000  C
  C20      1.0000 0.69730  0.27090  0.91150  Biso   1.000  C
  C21      1.0000 0.35150  0.83730  0.11640  Biso   1.000  C
  C22      1.0000 0.64850  0.16270  0.88360  Biso   1.000  C
  H23      1.0000 0.26532  0.92288  0.10701  Biso   1.000  H
  H24      1.0000 0.73468  0.07712  0.89299  Biso   1.000  H
  C23      1.0000 0.53020  0.81710  0.15880  Biso   1.000  C
  C24      1.0000 0.46980  0.18290  0.84120  Biso   1.000  C
  C25      1.0000 0.65140  0.68590  0.17960  Biso   1.000  C
  C26      1.0000 0.34860  0.31410  0.82040  Biso   1.000  C
  H25      1.0000 0.76653  0.67129  0.21135  Biso   1.000  H
  H26      1.0000 0.23347  0.32871  0.78865  Biso   1.000  H
  C27      1.0000 0.59810  0.94220  0.17120  Biso   1.000  C
  C28      1.0000 0.40190  0.05780  0.82880  Biso   1.000  C
