data_image0
_cell_length_a       6.111
_cell_length_b       7.445
_cell_length_c       9.335
_cell_angle_alpha    82.29
_cell_angle_beta     83.07
_cell_angle_gamma    67.23

_symmetry_space_group_name_H-M    "P 1"
_symmetry_int_tables_number       1

loop_
  _symmetry_equiv_pos_as_xyz
  'x, y, z'

loop_
  _atom_site_label
  _atom_site_occupancy
  _atom_site_fract_x
  _atom_site_fract_y
  _atom_site_fract_z
  _atom_site_thermal_displace_type
  _atom_site_B_iso_or_equiv
  _atom_site_type_symbol
  Cu1      1.0000 0.50000  0.50000  0.50000  Biso   1.000  Cu
  N1       1.0000 0.49440  0.68190  0.31380  Biso   1.000  N
  N2       1.0000 0.50560  0.31810  0.68620  Biso   1.000  N
  C1       1.0000 0.38590  0.68520  0.19260  Biso   1.000  C
  C2       1.0000 0.61410  0.31480  0.80740  Biso   1.000  C
  C3       1.0000 0.25920  0.54570  0.19210  Biso   1.000  C
  C4       1.0000 0.74080  0.45430  0.80790  Biso   1.000  C
  H1       1.0000 0.18410  0.53010  0.28680  Biso   1.000  H
  H2       1.0000 0.81590  0.46990  0.71320  Biso   1.000  H
  H3       1.0000 0.37260  0.42090  0.16650  Biso   1.000  H
  H4       1.0000 0.62740  0.57910  0.83350  Biso   1.000  H
  H5       1.0000 0.14090  0.59780  0.12270  Biso   1.000  H
  H6       1.0000 0.85910  0.40220  0.87730  Biso   1.000  H
  N3       1.0000 0.38630  0.80750  0.07040  Biso   1.000  N
  N4       1.0000 0.61370  0.19250  0.92960  Biso   1.000  N
  C5       1.0000 0.50250  0.93310  0.06910  Biso   1.000  C
  C6       1.0000 0.49750  0.06690  0.93090  Biso   1.000  C
  C7       1.0000 0.61740  0.93760  0.18870  Biso   1.000  C
  C8       1.0000 0.38260  0.06240  0.81130  Biso   1.000  C
  H7       1.0000 0.69700  0.02210  0.18670  Biso   1.000  H
  H8       1.0000 0.30300  0.97790  0.81330  Biso   1.000  H
  C9       1.0000 0.60750  0.80970  0.31130  Biso   1.000  C
  C10      1.0000 0.39250  0.19030  0.68870  Biso   1.000  C
  H9       1.0000 0.67930  0.81140  0.39320  Biso   1.000  H
  H10      1.0000 0.32070  0.18860  0.60680  Biso   1.000  H
  N5       1.0000 0.11050  0.77650  0.60980  Biso   1.000  N
  N6       1.0000 0.88950  0.22350  0.39020  Biso   1.000  N
  O1       1.0000 0.33920  0.73950  0.61180  Biso   1.000  O
  O2       1.0000 0.66080  0.26050  0.38820  Biso   1.000  O
  O3       1.0000 0.05310  0.66350  0.54550  Biso   1.000  O
  O4       1.0000 0.94690  0.33650  0.45450  Biso   1.000  O
  O5       1.0000 0.03460  0.08240  0.32810  Biso   1.000  O
  O6       1.0000 0.96540  0.91760  0.67190  Biso   1.000  O
