data_image0
_cell_length_a       8.7313
_cell_length_b       15.8302
_cell_length_c       19.5981
_cell_angle_alpha    90
_cell_angle_beta     90
_cell_angle_gamma    90

_symmetry_space_group_name_H-M    "P 1"
_symmetry_int_tables_number       1

loop_
  _symmetry_equiv_pos_as_xyz
  'x, y, z'

loop_
  _atom_site_label
  _atom_site_occupancy
  _atom_site_fract_x
  _atom_site_fract_y
  _atom_site_fract_z
  _atom_site_thermal_displace_type
  _atom_site_B_iso_or_equiv
  _atom_site_type_symbol
  Cu1      1.0000 0.81985  0.47422  0.73347  Biso   1.000  Cu
  Cu2      1.0000 0.31985  0.02578  0.26653  Biso   1.000  Cu
  Cu3      1.0000 0.18015  0.97422  0.76653  Biso   1.000  Cu
  Cu4      1.0000 0.68015  0.52578  0.23347  Biso   1.000  Cu
  O1       1.0000 0.91320  0.61490  0.77790  Biso   1.000  O
  O2       1.0000 0.41320  0.88510  0.22210  Biso   1.000  O
  O3       1.0000 0.08680  0.11490  0.72210  Biso   1.000  O
  O4       1.0000 0.58680  0.38510  0.27790  Biso   1.000  O
  O5       1.0000 0.79200  0.55720  0.90630  Biso   1.000  O
  O6       1.0000 0.29200  0.94280  0.09370  Biso   1.000  O
  O7       1.0000 0.20800  0.05720  0.59370  Biso   1.000  O
  O8       1.0000 0.70800  0.44280  0.40630  Biso   1.000  O
  O9       1.0000 0.99390  0.57860  0.01880  Biso   1.000  O
  O10      1.0000 0.49390  0.92140  0.98120  Biso   1.000  O
  O11      1.0000 0.00610  0.07860  0.48120  Biso   1.000  O
  O12      1.0000 0.50610  0.42140  0.51880  Biso   1.000  O
  O13      1.0000 0.16810  0.73410  0.01590  Biso   1.000  O
  O14      1.0000 0.66810  0.76590  0.98410  Biso   1.000  O
  O15      1.0000 0.83190  0.23410  0.48410  Biso   1.000  O
  O16      1.0000 0.33190  0.26590  0.51590  Biso   1.000  O
  O17      1.0000 0.08640  0.69560  0.83410  Biso   1.000  O
  O18      1.0000 0.58640  0.80440  0.16590  Biso   1.000  O
  O19      1.0000 0.91360  0.19560  0.66590  Biso   1.000  O
  O20      1.0000 0.41360  0.30440  0.33410  Biso   1.000  O
  O21      1.0000 0.26940  0.84200  0.82020  Biso   1.000  O
  O22      1.0000 0.76940  0.65800  0.17980  Biso   1.000  O
  O23      1.0000 0.73060  0.34200  0.67980  Biso   1.000  O
  O24      1.0000 0.23060  0.15800  0.32020  Biso   1.000  O
  O25      1.0000 0.80050  0.42670  0.82440  Biso   1.000  O
  O26      1.0000 0.30050  0.07330  0.17560  Biso   1.000  O
  O27      1.0000 0.19950  0.92670  0.67560  Biso   1.000  O
  O28      1.0000 0.69950  0.57330  0.32440  Biso   1.000  O
  O29      1.0000 0.81690  0.28890  0.80540  Biso   1.000  O
  O30      1.0000 0.31690  0.21110  0.19460  Biso   1.000  O
  O31      1.0000 0.18310  0.78890  0.69460  Biso   1.000  O
  O32      1.0000 0.68310  0.71110  0.30540  Biso   1.000  O
  N1       1.0000 0.84400  0.54190  0.64530  Biso   1.000  N
  N2       1.0000 0.34400  0.95810  0.35470  Biso   1.000  N
  N3       1.0000 0.15600  0.04190  0.85470  Biso   1.000  N
  N4       1.0000 0.65600  0.45810  0.14530  Biso   1.000  N
  N5       1.0000 0.61130  0.52390  0.73340  Biso   1.000  N
  N6       1.0000 0.11130  0.97610  0.26660  Biso   1.000  N
  N7       1.0000 0.38870  0.02390  0.76660  Biso   1.000  N
  N8       1.0000 0.88870  0.47610  0.23340  Biso   1.000  N
  N9       1.0000 0.03080  0.43680  0.71100  Biso   1.000  N
  N10      1.0000 0.53080  0.06320  0.28900  Biso   1.000  N
  N11      1.0000 0.96920  0.93680  0.78900  Biso   1.000  N
  N12      1.0000 0.46920  0.56320  0.21100  Biso   1.000  N
  C1       1.0000 0.93800  0.65790  0.83980  Biso   1.000  C
  C2       1.0000 0.43800  0.84210  0.16020  Biso   1.000  C
  C3       1.0000 0.06200  0.15790  0.66020  Biso   1.000  C
  C4       1.0000 0.56200  0.34210  0.33980  Biso   1.000  C
  C5       1.0000 0.93970  0.59350  0.89770  Biso   1.000  C
  C6       1.0000 0.43970  0.90650  0.10230  Biso   1.000  C
  C7       1.0000 0.06030  0.09350  0.60230  Biso   1.000  C
  C8       1.0000 0.56030  0.40650  0.39770  Biso   1.000  C
  C9       1.0000 0.98440  0.63810  0.96350  Biso   1.000  C
  C10      1.0000 0.48440  0.86190  0.03650  Biso   1.000  C
  C11      1.0000 0.01560  0.13810  0.53650  Biso   1.000  C
  C12      1.0000 0.51560  0.36190  0.46350  Biso   1.000  C
  C13      1.0000 0.13420  0.68610  0.95590  Biso   1.000  C
  C14      1.0000 0.63420  0.81390  0.04410  Biso   1.000  C
  C15      1.0000 0.86580  0.18610  0.54410  Biso   1.000  C
  C16      1.0000 0.36580  0.31390  0.45590  Biso   1.000  C
  C17      1.0000 0.12360  0.74500  0.89320  Biso   1.000  C
  C18      1.0000 0.62360  0.75500  0.10680  Biso   1.000  C
  C19      1.0000 0.87640  0.24500  0.60680  Biso   1.000  C
  C20      1.0000 0.37640  0.25500  0.39320  Biso   1.000  C
  C21      1.0000 0.27780  0.78600  0.87810  Biso   1.000  C
  C22      1.0000 0.77780  0.71400  0.12190  Biso   1.000  C
  C23      1.0000 0.72220  0.28600  0.62190  Biso   1.000  C
  C24      1.0000 0.22220  0.21400  0.37810  Biso   1.000  C
  C25      1.0000 0.87810  0.66950  0.72150  Biso   1.000  C
  C26      1.0000 0.37810  0.83050  0.27850  Biso   1.000  C
  C27      1.0000 0.12190  0.16950  0.77850  Biso   1.000  C
  C28      1.0000 0.62190  0.33050  0.22150  Biso   1.000  C
  C29      1.0000 0.92550  0.62420  0.65680  Biso   1.000  C
  C30      1.0000 0.42550  0.87580  0.34320  Biso   1.000  C
  C31      1.0000 0.07450  0.12420  0.84320  Biso   1.000  C
  C32      1.0000 0.57450  0.37580  0.15680  Biso   1.000  C
  C33      1.0000 0.68660  0.55510  0.61760  Biso   1.000  C
  C34      1.0000 0.18660  0.94490  0.38240  Biso   1.000  C
  C35      1.0000 0.31340  0.05510  0.88240  Biso   1.000  C
  C36      1.0000 0.81340  0.44490  0.11760  Biso   1.000  C
  C37      1.0000 0.57530  0.56560  0.67490  Biso   1.000  C
  C38      1.0000 0.07530  0.93440  0.32510  Biso   1.000  C
  C39      1.0000 0.42470  0.06560  0.82510  Biso   1.000  C
  C40      1.0000 0.92470  0.43440  0.17490  Biso   1.000  C
  C41      1.0000 0.44220  0.61330  0.66880  Biso   1.000  C
  C42      1.0000 0.94220  0.88670  0.33120  Biso   1.000  C
  C43      1.0000 0.55780  0.11330  0.83120  Biso   1.000  C
  C44      1.0000 0.05780  0.38670  0.16880  Biso   1.000  C
  C45      1.0000 0.34330  0.61710  0.72480  Biso   1.000  C
  C46      1.0000 0.84330  0.88290  0.27520  Biso   1.000  C
  C47      1.0000 0.65670  0.11710  0.77520  Biso   1.000  C
  C48      1.0000 0.15670  0.38290  0.22480  Biso   1.000  C
  C49      1.0000 0.37690  0.57250  0.78330  Biso   1.000  C
  C50      1.0000 0.87690  0.92750  0.21670  Biso   1.000  C
  C51      1.0000 0.62310  0.07250  0.71670  Biso   1.000  C
  C52      1.0000 0.12310  0.42750  0.28330  Biso   1.000  C
  C53      1.0000 0.51370  0.52600  0.78600  Biso   1.000  C
  C54      1.0000 0.01370  0.97400  0.21400  Biso   1.000  C
  C55      1.0000 0.48630  0.02600  0.71400  Biso   1.000  C
  C56      1.0000 0.98630  0.47400  0.28600  Biso   1.000  C
  C57      1.0000 0.94170  0.48810  0.60140  Biso   1.000  C
  C58      1.0000 0.44170  0.01190  0.39860  Biso   1.000  C
  C59      1.0000 0.05830  0.98810  0.89860  Biso   1.000  C
  C60      1.0000 0.55830  0.51190  0.10140  Biso   1.000  C
  C61      1.0000 0.06510  0.44870  0.64430  Biso   1.000  C
  C62      1.0000 0.56510  0.05130  0.35570  Biso   1.000  C
  C63      1.0000 0.93490  0.94870  0.85570  Biso   1.000  C
  C64      1.0000 0.43490  0.55130  0.14430  Biso   1.000  C
  C65      1.0000 0.20570  0.42450  0.61820  Biso   1.000  C
  C66      1.0000 0.70570  0.07550  0.38180  Biso   1.000  C
  C67      1.0000 0.79430  0.92450  0.88180  Biso   1.000  C
  C68      1.0000 0.29430  0.57550  0.11820  Biso   1.000  C
  C69      1.0000 0.31270  0.38640  0.66070  Biso   1.000  C
  C70      1.0000 0.81270  0.11360  0.33930  Biso   1.000  C
  C71      1.0000 0.68730  0.88640  0.83930  Biso   1.000  C
  C72      1.0000 0.18730  0.61360  0.16070  Biso   1.000  C
  C73      1.0000 0.27630  0.37480  0.72990  Biso   1.000  C
  C74      1.0000 0.77630  0.12520  0.27010  Biso   1.000  C
  C75      1.0000 0.72370  0.87480  0.77010  Biso   1.000  C
  C76      1.0000 0.22370  0.62520  0.22990  Biso   1.000  C
  C77      1.0000 0.13300  0.40130  0.75340  Biso   1.000  C
  C78      1.0000 0.63300  0.09870  0.24660  Biso   1.000  C
  C79      1.0000 0.86700  0.90130  0.74660  Biso   1.000  C
  C80      1.0000 0.36700  0.59870  0.25340  Biso   1.000  C
  C81      1.0000 0.79980  0.34870  0.84460  Biso   1.000  C
  C82      1.0000 0.29980  0.15130  0.15540  Biso   1.000  C
  C83      1.0000 0.20020  0.84870  0.65540  Biso   1.000  C
  C84      1.0000 0.70020  0.65130  0.34460  Biso   1.000  C
  C85      1.0000 0.77520  0.33420  0.91970  Biso   1.000  C
  C86      1.0000 0.27520  0.16580  0.08030  Biso   1.000  C
  C87      1.0000 0.22480  0.83420  0.58030  Biso   1.000  C
  C88      1.0000 0.72480  0.66580  0.41970  Biso   1.000  C
  H1       1.0000 0.85940  0.69970  0.84680  Biso   1.000  H
  H2       1.0000 0.35940  0.80030  0.15320  Biso   1.000  H
  H3       1.0000 0.14060  0.19970  0.65320  Biso   1.000  H
  H4       1.0000 0.64060  0.30030  0.34680  Biso   1.000  H
  H5       1.0000 0.01020  0.54750  0.88310  Biso   1.000  H
  H6       1.0000 0.51020  0.95250  0.11690  Biso   1.000  H
  H7       1.0000 0.98980  0.04750  0.61690  Biso   1.000  H
  H8       1.0000 0.48980  0.45250  0.38310  Biso   1.000  H
  H9       1.0000 0.89530  0.67430  0.97420  Biso   1.000  H
  H10      1.0000 0.39530  0.82570  0.02580  Biso   1.000  H
  H11      1.0000 0.10470  0.17430  0.52580  Biso   1.000  H
  H12      1.0000 0.60470  0.32570  0.47420  Biso   1.000  H
  H13      1.0000 0.22360  0.64950  0.95370  Biso   1.000  H
  H14      1.0000 0.72360  0.85050  0.04630  Biso   1.000  H
  H15      1.0000 0.77640  0.14950  0.54630  Biso   1.000  H
  H16      1.0000 0.27640  0.35050  0.45370  Biso   1.000  H
  H17      1.0000 0.04860  0.79080  0.90040  Biso   1.000  H
  H18      1.0000 0.54860  0.70920  0.09960  Biso   1.000  H
  H19      1.0000 0.95140  0.29080  0.59960  Biso   1.000  H
  H20      1.0000 0.45140  0.20920  0.40040  Biso   1.000  H
  H21      1.0000 0.31520  0.82020  0.91350  Biso   1.000  H
  H22      1.0000 0.81520  0.67980  0.08650  Biso   1.000  H
  H23      1.0000 0.68480  0.32020  0.58650  Biso   1.000  H
  H24      1.0000 0.18480  0.17980  0.41350  Biso   1.000  H
  H25      1.0000 0.34920  0.74820  0.87150  Biso   1.000  H
  H26      1.0000 0.84920  0.75180  0.12850  Biso   1.000  H
  H27      1.0000 0.65080  0.24820  0.62850  Biso   1.000  H
  H28      1.0000 0.15080  0.25180  0.37150  Biso   1.000  H
  H29      1.0000 0.92650  0.71430  0.72080  Biso   1.000  H
  H30      1.0000 0.42650  0.78570  0.27920  Biso   1.000  H
  H31      1.0000 0.07350  0.21430  0.77920  Biso   1.000  H
  H32      1.0000 0.57350  0.28570  0.22080  Biso   1.000  H
  H33      1.0000 0.77150  0.68830  0.72980  Biso   1.000  H
  H34      1.0000 0.27150  0.81170  0.27020  Biso   1.000  H
  H35      1.0000 0.22850  0.18830  0.77020  Biso   1.000  H
  H36      1.0000 0.72850  0.31170  0.22980  Biso   1.000  H
  H37      1.0000 0.92160  0.65270  0.61320  Biso   1.000  H
  H38      1.0000 0.42160  0.84730  0.38680  Biso   1.000  H
  H39      1.0000 0.07840  0.15270  0.88680  Biso   1.000  H
  H40      1.0000 0.57840  0.34730  0.11320  Biso   1.000  H
  H41      1.0000 0.02760  0.60770  0.66820  Biso   1.000  H
  H42      1.0000 0.52760  0.89230  0.33180  Biso   1.000  H
  H43      1.0000 0.97240  0.10770  0.83180  Biso   1.000  H
  H44      1.0000 0.47240  0.39230  0.16820  Biso   1.000  H
  H45      1.0000 0.66500  0.49890  0.59730  Biso   1.000  H
  H46      1.0000 0.16500  0.00110  0.40270  Biso   1.000  H
  H47      1.0000 0.33500  0.99890  0.90270  Biso   1.000  H
  H48      1.0000 0.83500  0.50110  0.09730  Biso   1.000  H
  H49      1.0000 0.68500  0.61190  0.58930  Biso   1.000  H
  H50      1.0000 0.18500  0.88810  0.41070  Biso   1.000  H
  H51      1.0000 0.31500  0.11190  0.91070  Biso   1.000  H
  H52      1.0000 0.81500  0.38810  0.08930  Biso   1.000  H
  H53      1.0000 0.42270  0.65670  0.62940  Biso   1.000  H
  H54      1.0000 0.92270  0.84330  0.37060  Biso   1.000  H
  H55      1.0000 0.57730  0.15670  0.87060  Biso   1.000  H
  H56      1.0000 0.07730  0.34330  0.12940  Biso   1.000  H
  H57      1.0000 0.24960  0.65460  0.72620  Biso   1.000  H
  H58      1.0000 0.74960  0.84540  0.27380  Biso   1.000  H
  H59      1.0000 0.75040  0.15460  0.77380  Biso   1.000  H
  H60      1.0000 0.25040  0.34540  0.22620  Biso   1.000  H
  H61      1.0000 0.31530  0.58310  0.81870  Biso   1.000  H
  H62      1.0000 0.81530  0.91690  0.18130  Biso   1.000  H
  H63      1.0000 0.68470  0.08310  0.68130  Biso   1.000  H
  H64      1.0000 0.18470  0.41690  0.31870  Biso   1.000  H
  H65      1.0000 0.53710  0.49360  0.82440  Biso   1.000  H
  H66      1.0000 0.03710  0.00640  0.17560  Biso   1.000  H
  H67      1.0000 0.46290  0.99360  0.67560  Biso   1.000  H
  H68      1.0000 0.96290  0.50640  0.32440  Biso   1.000  H
  H69      1.0000 0.97800  0.52260  0.57170  Biso   1.000  H
  H70      1.0000 0.47800  0.97740  0.42830  Biso   1.000  H
  H71      1.0000 0.02200  0.02260  0.92830  Biso   1.000  H
  H72      1.0000 0.52200  0.47740  0.07170  Biso   1.000  H
  H73      1.0000 0.87800  0.44160  0.58370  Biso   1.000  H
  H74      1.0000 0.37800  0.05840  0.41630  Biso   1.000  H
  H75      1.0000 0.12200  0.94160  0.91630  Biso   1.000  H
  H76      1.0000 0.62200  0.55840  0.08370  Biso   1.000  H
  H77      1.0000 0.23470  0.44170  0.57680  Biso   1.000  H
  H78      1.0000 0.73470  0.05830  0.42320  Biso   1.000  H
  H79      1.0000 0.76530  0.94170  0.92320  Biso   1.000  H
  H80      1.0000 0.26530  0.55830  0.07680  Biso   1.000  H
  H81      1.0000 0.41210  0.37050  0.64350  Biso   1.000  H
  H82      1.0000 0.91210  0.12950  0.35650  Biso   1.000  H
  H83      1.0000 0.58790  0.87050  0.85650  Biso   1.000  H
  H84      1.0000 0.08790  0.62950  0.14350  Biso   1.000  H
  H85      1.0000 0.35360  0.36150  0.76630  Biso   1.000  H
  H86      1.0000 0.85360  0.13850  0.23370  Biso   1.000  H
  H87      1.0000 0.64640  0.86150  0.73370  Biso   1.000  H
  H88      1.0000 0.14640  0.63850  0.26630  Biso   1.000  H
  H89      1.0000 0.10220  0.40210  0.79960  Biso   1.000  H
  H90      1.0000 0.60220  0.09790  0.20040  Biso   1.000  H
  H91      1.0000 0.89780  0.90210  0.70040  Biso   1.000  H
  H92      1.0000 0.39780  0.59790  0.29960  Biso   1.000  H
  H93      1.0000 0.77900  0.51450  0.87840  Biso   1.000  H
  H94      1.0000 0.27900  0.98550  0.12160  Biso   1.000  H
  H95      1.0000 0.22100  0.01450  0.62160  Biso   1.000  H
  H96      1.0000 0.72100  0.48550  0.37840  Biso   1.000  H
  H97      1.0000 0.05890  0.54050  0.99920  Biso   1.000  H
  H98      1.0000 0.55890  0.95950  0.00080  Biso   1.000  H
  H99      1.0000 0.94110  0.04050  0.50080  Biso   1.000  H
  H100     1.0000 0.44110  0.45950  0.49920  Biso   1.000  H
  H101     1.0000 0.07010  0.75700  0.01620  Biso   1.000  H
  H102     1.0000 0.57010  0.74300  0.98380  Biso   1.000  H
  H103     1.0000 0.92990  0.25700  0.48380  Biso   1.000  H
  H104     1.0000 0.42990  0.24300  0.51620  Biso   1.000  H
  H105     1.0000 0.23950  0.81200  0.78430  Biso   1.000  H
  H106     1.0000 0.73950  0.68800  0.21570  Biso   1.000  H
  H107     1.0000 0.76050  0.31200  0.71570  Biso   1.000  H
  H108     1.0000 0.26050  0.18800  0.28430  Biso   1.000  H
  H109     1.0000 0.67820  0.35760  0.93300  Biso   1.000  H
  H110     1.0000 0.17820  0.14240  0.06700  Biso   1.000  H
  H111     1.0000 0.32180  0.85760  0.56700  Biso   1.000  H
  H112     1.0000 0.82180  0.64240  0.43300  Biso   1.000  H
  H113     1.0000 0.85560  0.36120  0.94500  Biso   1.000  H
  H114     1.0000 0.35560  0.13880  0.05500  Biso   1.000  H
  H115     1.0000 0.14440  0.86120  0.55500  Biso   1.000  H
  H116     1.0000 0.64440  0.63880  0.44500  Biso   1.000  H
  H117     1.0000 0.77610  0.27470  0.92890  Biso   1.000  H
  H118     1.0000 0.27610  0.22530  0.07110  Biso   1.000  H
  H119     1.0000 0.22390  0.77470  0.57110  Biso   1.000  H
  H120     1.0000 0.72390  0.72530  0.42890  Biso   1.000  H
  Cl1      1.0000 0.25870  0.39714  0.95726  Biso   1.000  Cl
  Cl2      1.0000 0.75870  0.10286  0.04274  Biso   1.000  Cl
  Cl3      1.0000 0.74130  0.89714  0.54274  Biso   1.000  Cl
  Cl4      1.0000 0.24130  0.60286  0.45726  Biso   1.000  Cl
  O33      1.0000 0.30880  0.47530  0.92660  Biso   1.000  O
  O34      1.0000 0.80880  0.02470  0.07340  Biso   1.000  O
  O35      1.0000 0.69120  0.97530  0.57340  Biso   1.000  O
  O36      1.0000 0.19120  0.52470  0.42660  Biso   1.000  O
  O37      1.0000 0.23560  0.33480  0.90740  Biso   1.000  O
  O38      1.0000 0.73560  0.16520  0.09260  Biso   1.000  O
  O39      1.0000 0.76440  0.83480  0.59260  Biso   1.000  O
  O40      1.0000 0.26440  0.66520  0.40740  Biso   1.000  O
  O41      1.0000 0.11430  0.41400  0.99170  Biso   1.000  O
  O42      1.0000 0.61430  0.08600  0.00830  Biso   1.000  O
  O43      1.0000 0.88570  0.91400  0.50830  Biso   1.000  O
  O44      1.0000 0.38570  0.58600  0.49170  Biso   1.000  O
  O45      1.0000 0.36130  0.36880  0.00680  Biso   1.000  O
  O46      1.0000 0.86130  0.13120  0.99320  Biso   1.000  O
  O47      1.0000 0.63870  0.86880  0.49320  Biso   1.000  O
  O48      1.0000 0.13870  0.63120  0.50680  Biso   1.000  O
  O49      1.0000 0.52040  0.61480  0.95820  Biso   1.000  O
  O50      1.0000 0.02040  0.88520  0.04180  Biso   1.000  O
  O51      1.0000 0.47960  0.11480  0.54180  Biso   1.000  O
  O52      1.0000 0.97960  0.38520  0.45820  Biso   1.000  O
