data_image0
_cell_length_a       9.917
_cell_length_b       13.974
_cell_length_c       14.346
_cell_angle_alpha    86.199
_cell_angle_beta     85.124
_cell_angle_gamma    73.936

_symmetry_space_group_name_H-M    "P 1"
_symmetry_int_tables_number       1

loop_
  _symmetry_equiv_pos_as_xyz
  'x, y, z'

loop_
  _atom_site_label
  _atom_site_occupancy
  _atom_site_fract_x
  _atom_site_fract_y
  _atom_site_fract_z
  _atom_site_thermal_displace_type
  _atom_site_B_iso_or_equiv
  _atom_site_type_symbol
  Mn1      1.0000 0.26648  0.11590  0.32848  Biso   1.000  Mn
  Mn2      1.0000 0.73352  0.88410  0.67152  Biso   1.000  Mn
  Mn3      1.0000 0.37607  0.29807  0.11364  Biso   1.000  Mn
  Mn4      1.0000 0.62393  0.70193  0.88636  Biso   1.000  Mn
  Cu1      1.0000 0.24023  0.97569  0.50585  Biso   1.000  Cu
  Cu2      1.0000 0.75977  0.02431  0.49415  Biso   1.000  Cu
  Cu3      1.0000 0.24690  0.49689  0.99786  Biso   1.000  Cu
  Cu4      1.0000 0.75310  0.50311  0.00214  Biso   1.000  Cu
  N1       1.0000 0.16430  0.86470  0.53730  Biso   1.000  N
  N2       1.0000 0.83570  0.13530  0.46270  Biso   1.000  N
  N3       1.0000 0.33300  0.93990  0.61860  Biso   1.000  N
  N4       1.0000 0.66700  0.06010  0.38140  Biso   1.000  N
  N5       1.0000 0.08980  0.61060  0.00940  Biso   1.000  N
  N6       1.0000 0.91020  0.38940  0.99060  Biso   1.000  N
  N7       1.0000 0.32340  0.57460  0.90430  Biso   1.000  N
  N8       1.0000 0.67660  0.42540  0.09570  Biso   1.000  N
  O1       1.0000 0.16850  0.00050  0.38280  Biso   1.000  O
  O2       1.0000 0.83150  0.99950  0.61720  Biso   1.000  O
  O3       1.0000 0.30070  0.09110  0.47430  Biso   1.000  O
  O4       1.0000 0.69930  0.90890  0.52570  Biso   1.000  O
  O5       1.0000 0.19650  0.08370  0.20390  Biso   1.000  O
  O6       1.0000 0.80350  0.91630  0.79610  Biso   1.000  O
  O7       1.0000 0.06550  0.05420  0.10180  Biso   1.000  O
  O8       1.0000 0.93450  0.94580  0.89820  Biso   1.000  O
  O9       1.0000 0.51560  0.93610  0.70870  Biso   1.000  O
  O10      1.0000 0.48440  0.06390  0.29130  Biso   1.000  O
  O11      1.0000 0.18510  0.42800  0.10820  Biso   1.000  O
  O12      1.0000 0.81490  0.57200  0.89180  Biso   1.000  O
  O13      1.0000 0.39100  0.37710  0.98050  Biso   1.000  O
  O14      1.0000 0.60900  0.62290  0.01950  Biso   1.000  O
  O15      1.0000 0.26960  0.27090  0.24230  Biso   1.000  O
  O16      1.0000 0.73040  0.72910  0.75770  Biso   1.000  O
  O17      1.0000 0.10120  0.25500  0.34360  Biso   1.000  O
  O18      1.0000 0.89880  0.74500  0.65640  Biso   1.000  O
  O19      1.0000 0.50590  0.61850  0.82490  Biso   1.000  O
  O20      1.0000 0.49410  0.38150  0.17510  Biso   1.000  O
  O21      1.0000 0.25830  0.20220  0.05400  Biso   1.000  O
  O22      1.0000 0.74170  0.79780  0.94600  Biso   1.000  O
  O23      1.0000 0.53850  0.15500  0.12440  Biso   1.000  O
  O24      1.0000 0.46150  0.84500  0.87560  Biso   1.000  O
  O25      1.0000 0.80170  0.08370  0.03750  Biso   1.000  O
  O26      1.0000 0.19830  0.91630  0.96250  Biso   1.000  O
  C1       1.0000 0.09080  0.95090  0.34250  Biso   1.000  C
  C2       1.0000 0.90920  0.04910  0.65750  Biso   1.000  C
  C3       1.0000 0.05370  0.97320  0.24910  Biso   1.000  C
  C4       1.0000 0.94630  0.02680  0.75090  Biso   1.000  C
  C5       1.0000 0.96230  0.92460  0.21560  Biso   1.000  C
  C6       1.0000 0.03770  0.07540  0.78440  Biso   1.000  C
  H1       1.0000 0.93450  0.94090  0.15490  Biso   1.000  H
  H2       1.0000 0.06550  0.05910  0.84510  Biso   1.000  H
  C7       1.0000 0.91140  0.85410  0.26750  Biso   1.000  C
  C8       1.0000 0.08860  0.14590  0.73250  Biso   1.000  C
  H3       1.0000 0.84980  0.82490  0.24240  Biso   1.000  H
  H4       1.0000 0.15020  0.17510  0.75760  Biso   1.000  H
  C9       1.0000 0.95240  0.82740  0.35640  Biso   1.000  C
  C10      1.0000 0.04760  0.17260  0.64360  Biso   1.000  C
  H5       1.0000 0.91970  0.77880  0.39120  Biso   1.000  H
  H6       1.0000 0.08030  0.22120  0.60880  Biso   1.000  H
  C11      1.0000 0.04410  0.87270  0.39620  Biso   1.000  C
  C12      1.0000 0.95590  0.12730  0.60380  Biso   1.000  C
  C13      1.0000 0.08440  0.83500  0.48840  Biso   1.000  C
  C14      1.0000 0.91560  0.16500  0.51160  Biso   1.000  C
  H7       1.0000 0.04830  0.78380  0.51470  Biso   1.000  H
  H8       1.0000 0.95170  0.21620  0.48530  Biso   1.000  H
  C15      1.0000 0.19560  0.82200  0.63080  Biso   1.000  C
  C16      1.0000 0.80440  0.17800  0.36920  Biso   1.000  C
  H9       1.0000 0.20270  0.75130  0.63300  Biso   1.000  H
  H10      1.0000 0.79730  0.24870  0.36700  Biso   1.000  H
  H11      1.0000 0.12030  0.85350  0.67570  Biso   1.000  H
  H12      1.0000 0.87970  0.14650  0.32430  Biso   1.000  H
  C17      1.0000 0.33490  0.83810  0.65600  Biso   1.000  C
  C18      1.0000 0.66510  0.16190  0.34400  Biso   1.000  C
  H13      1.0000 0.34140  0.83290  0.72330  Biso   1.000  H
  H14      1.0000 0.65860  0.16710  0.27670  Biso   1.000  H
  H15      1.0000 0.41430  0.78900  0.62740  Biso   1.000  H
  H16      1.0000 0.58570  0.21100  0.37260  Biso   1.000  H
  C19      1.0000 0.42600  0.98060  0.64740  Biso   1.000  C
  C20      1.0000 0.57400  0.01940  0.35260  Biso   1.000  C
  C21      1.0000 0.42670  0.08500  0.61390  Biso   1.000  C
  C22      1.0000 0.57330  0.91500  0.38610  Biso   1.000  C
  C23      1.0000 0.49330  0.13400  0.66800  Biso   1.000  C
  C24      1.0000 0.50670  0.86600  0.33200  Biso   1.000  C
  H17      1.0000 0.53500  0.10120  0.72110  Biso   1.000  H
  H18      1.0000 0.46500  0.89880  0.27890  Biso   1.000  H
  C25      1.0000 0.49940  0.23050  0.64520  Biso   1.000  C
  C26      1.0000 0.50060  0.76950  0.35480  Biso   1.000  C
  H19      1.0000 0.54280  0.26280  0.68300  Biso   1.000  H
  H20      1.0000 0.45720  0.73720  0.31700  Biso   1.000  H
  C27      1.0000 0.44050  0.27720  0.56620  Biso   1.000  C
  C28      1.0000 0.55950  0.72280  0.43380  Biso   1.000  C
  H21      1.0000 0.44550  0.34170  0.54930  Biso   1.000  H
  H22      1.0000 0.55450  0.65830  0.45070  Biso   1.000  H
  C29      1.0000 0.37300  0.22940  0.51060  Biso   1.000  C
  C30      1.0000 0.62700  0.77060  0.48940  Biso   1.000  C
  H23      1.0000 0.33190  0.26280  0.45750  Biso   1.000  H
  H24      1.0000 0.66810  0.73720  0.54250  Biso   1.000  H
  C31      1.0000 0.36620  0.13310  0.53290  Biso   1.000  C
  C32      1.0000 0.63380  0.86690  0.46710  Biso   1.000  C
  C33      1.0000 0.10500  0.04080  0.18160  Biso   1.000  C
  C34      1.0000 0.89500  0.95920  0.81840  Biso   1.000  C
  C35      1.0000 0.07890  0.46250  0.16890  Biso   1.000  C
  C36      1.0000 0.92110  0.53750  0.83110  Biso   1.000  C
  C37      1.0000 0.05540  0.40610  0.25180  Biso   1.000  C
  C38      1.0000 0.94460  0.59390  0.74820  Biso   1.000  C
  C39      1.0000 0.93400  0.44510  0.31100  Biso   1.000  C
  C40      1.0000 0.06600  0.55490  0.68900  Biso   1.000  C
  H25      1.0000 0.91680  0.40720  0.36420  Biso   1.000  H
  H26      1.0000 0.08320  0.59280  0.63580  Biso   1.000  H
  C41      1.0000 0.84200  0.53390  0.29450  Biso   1.000  C
  C42      1.0000 0.15800  0.46610  0.70550  Biso   1.000  C
  H27      1.0000 0.76430  0.55710  0.33610  Biso   1.000  H
  H28      1.0000 0.23570  0.44290  0.66390  Biso   1.000  H
  C43      1.0000 0.86360  0.58920  0.21710  Biso   1.000  C
  C44      1.0000 0.13640  0.41080  0.78290  Biso   1.000  C
  H29      1.0000 0.79940  0.65070  0.20610  Biso   1.000  H
  H30      1.0000 0.20060  0.34930  0.79390  Biso   1.000  H
  C45      1.0000 0.97760  0.55780  0.15320  Biso   1.000  C
  C46      1.0000 0.02240  0.44220  0.84680  Biso   1.000  C
  C47      1.0000 0.99360  0.62460  0.07450  Biso   1.000  C
  C48      1.0000 0.00640  0.37540  0.92550  Biso   1.000  C
  H31      1.0000 0.92470  0.68520  0.07140  Biso   1.000  H
  H32      1.0000 0.07530  0.31480  0.92860  Biso   1.000  H
  C49      1.0000 0.09300  0.68700  0.93370  Biso   1.000  C
  C50      1.0000 0.90700  0.31300  0.06630  Biso   1.000  C
  H33      1.0000 0.04750  0.75290  0.95630  Biso   1.000  H
  H34      1.0000 0.95250  0.24710  0.04370  Biso   1.000  H
  H35      1.0000 0.04340  0.67630  0.88170  Biso   1.000  H
  H36      1.0000 0.95660  0.32370  0.11830  Biso   1.000  H
  C51      1.0000 0.24490  0.67900  0.90240  Biso   1.000  C
  C52      1.0000 0.75510  0.32100  0.09760  Biso   1.000  C
  H37      1.0000 0.25120  0.70820  0.83950  Biso   1.000  H
  H38      1.0000 0.74880  0.29180  0.16050  Biso   1.000  H
  H39      1.0000 0.28390  0.71490  0.94390  Biso   1.000  H
  H40      1.0000 0.71610  0.28510  0.05610  Biso   1.000  H
  C53      1.0000 0.45200  0.55170  0.86580  Biso   1.000  C
  C54      1.0000 0.54800  0.44830  0.13420  Biso   1.000  C
  C55      1.0000 0.53590  0.44610  0.86320  Biso   1.000  C
  C56      1.0000 0.46410  0.55390  0.13680  Biso   1.000  C
  C57      1.0000 0.65750  0.42310  0.80410  Biso   1.000  C
  C58      1.0000 0.34250  0.57690  0.19590  Biso   1.000  C
  H41      1.0000 0.68260  0.47520  0.76990  Biso   1.000  H
  H42      1.0000 0.31740  0.52480  0.23010  Biso   1.000  H
  C59      1.0000 0.74320  0.32810  0.79280  Biso   1.000  C
  C60      1.0000 0.25680  0.67190  0.20720  Biso   1.000  C
  H43      1.0000 0.82320  0.31600  0.75180  Biso   1.000  H
  H44      1.0000 0.17680  0.68400  0.24820  Biso   1.000  H
  C61      1.0000 0.70590  0.25160  0.84470  Biso   1.000  C
  C62      1.0000 0.29410  0.74840  0.15530  Biso   1.000  C
  H45      1.0000 0.76150  0.18640  0.83890  Biso   1.000  H
  H46      1.0000 0.23850  0.81360  0.16110  Biso   1.000  H
  C63      1.0000 0.58740  0.27090  0.90480  Biso   1.000  C
  C64      1.0000 0.41260  0.72910  0.09520  Biso   1.000  C
  H47      1.0000 0.56650  0.21770  0.93970  Biso   1.000  H
  H48      1.0000 0.43350  0.78230  0.06030  Biso   1.000  H
  C65      1.0000 0.49820  0.36390  0.91650  Biso   1.000  C
  C66      1.0000 0.50180  0.63610  0.08350  Biso   1.000  C
  C67      1.0000 0.14450  0.30620  0.27940  Biso   1.000  C
  C68      1.0000 0.85550  0.69380  0.72060  Biso   1.000  C
  C69      1.0000 0.31070  0.14380  0.97310  Biso   1.000  C
  C70      1.0000 0.68930  0.85620  0.02690  Biso   1.000  C
  H49      1.0000 0.24430  0.10870  0.95990  Biso   1.000  H
  H50      1.0000 0.75570  0.89130  0.04010  Biso   1.000  H
  H51      1.0000 0.39900  0.09670  0.98520  Biso   1.000  H
  H52      1.0000 0.60100  0.90330  0.01480  Biso   1.000  H
  H53      1.0000 0.32370  0.18700  0.92020  Biso   1.000  H
  H54      1.0000 0.67630  0.81300  0.07980  Biso   1.000  H
  C71      1.0000 0.14910  0.56430  0.42860  Biso   1.000  C
  C72      1.0000 0.85090  0.43570  0.57140  Biso   1.000  C
  H55      1.0000 0.16140  0.56770  0.36010  Biso   1.000  H
  H56      1.0000 0.83860  0.43230  0.63990  Biso   1.000  H
  C73      1.0000 0.01470  0.62380  0.46830  Biso   1.000  C
  C74      1.0000 0.98530  0.37620  0.53170  Biso   1.000  C
  H57      1.0000 0.94270  0.62580  0.42690  Biso   1.000  H
  H58      1.0000 0.05730  0.37420  0.57310  Biso   1.000  H
  H59      1.0000 0.02010  0.69030  0.47600  Biso   1.000  H
  H60      1.0000 0.97990  0.30970  0.52400  Biso   1.000  H
  H61      1.0000 0.99260  0.59460  0.52800  Biso   1.000  H
  H62      1.0000 0.00740  0.40540  0.47200  Biso   1.000  H
  C75      1.0000 0.54350  0.44710  0.37650  Biso   1.000  C
  C76      1.0000 0.45650  0.55290  0.62350  Biso   1.000  C
  O27      1.0000 0.19270  0.47930  0.46630  Biso   1.000  O
  O28      1.0000 0.80730  0.52070  0.53370  Biso   1.000  O
  O29      1.0000 0.26100  0.56200  0.47200  Biso   1.000  O
  O30      1.0000 0.73900  0.43800  0.52800  Biso   1.000  O
  O31      1.0000 0.44830  0.40280  0.36470  Biso   1.000  O
  O32      1.0000 0.55170  0.59720  0.63530  Biso   1.000  O
