data_image0
_cell_length_a       10.578
_cell_length_b       11.724
_cell_length_c       15.049
_cell_angle_alpha    85.213
_cell_angle_beta     75.291
_cell_angle_gamma    82.444

_symmetry_space_group_name_H-M    "P 1"
_symmetry_int_tables_number       1

loop_
  _symmetry_equiv_pos_as_xyz
  'x, y, z'

loop_
  _atom_site_label
  _atom_site_occupancy
  _atom_site_fract_x
  _atom_site_fract_y
  _atom_site_fract_z
  _atom_site_thermal_displace_type
  _atom_site_B_iso_or_equiv
  _atom_site_type_symbol
  Co1      1.0000 0.82134  0.21647  0.38799  Biso   1.000  Co
  Co2      1.0000 0.17866  0.78353  0.61201  Biso   1.000  Co
  Co3      1.0000 0.74747  0.41031  0.18088  Biso   1.000  Co
  Co4      1.0000 0.25253  0.58969  0.81912  Biso   1.000  Co
  Cu1      1.0000 0.76155  0.00509  0.51456  Biso   1.000  Cu
  Cu2      1.0000 0.23845  0.99491  0.48544  Biso   1.000  Cu
  Cu3      1.0000 0.75856  0.50253  0.98560  Biso   1.000  Cu
  Cu4      1.0000 0.24144  0.49747  0.01440  Biso   1.000  Cu
  N1       1.0000 0.67010  0.87550  0.51420  Biso   1.000  N
  N2       1.0000 0.32990  0.12450  0.48580  Biso   1.000  N
  N3       1.0000 0.83420  0.91860  0.60610  Biso   1.000  N
  N4       1.0000 0.16580  0.08140  0.39390  Biso   1.000  N
  N5       1.0000 0.64570  0.60730  0.92881  Biso   1.000  N
  N6       1.0000 0.35430  0.39270  0.07119  Biso   1.000  N
  N7       1.0000 0.88590  0.50720  0.87019  Biso   1.000  N
  N8       1.0000 0.11410  0.49280  0.12981  Biso   1.000  N
  O1       1.0000 0.71520  0.07633  0.40507  Biso   1.000  O
  O2       1.0000 0.28480  0.92367  0.59493  Biso   1.000  O
  O3       1.0000 0.83420  0.14320  0.51993  Biso   1.000  O
  O4       1.0000 0.16580  0.85680  0.48007  Biso   1.000  O
  O5       1.0000 0.77330  0.25105  0.26372  Biso   1.000  O
  O6       1.0000 0.22670  0.74895  0.73628  Biso   1.000  O
  O7       1.0000 0.64510  0.26630  0.17123  Biso   1.000  O
  O8       1.0000 0.35490  0.73370  0.82877  Biso   1.000  O
  O9       1.0000 0.64150  0.52000  0.10686  Biso   1.000  O
  O10      1.0000 0.35850  0.48000  0.89314  Biso   1.000  O
  O11      1.0000 0.85470  0.38900  0.04490  Biso   1.000  O
  O12      1.0000 0.14530  0.61100  0.95510  Biso   1.000  O
  O13      1.0000 0.61490  0.46870  0.29539  Biso   1.000  O
  O14      1.0000 0.38510  0.53130  0.70461  Biso   1.000  O
  O15      1.0000 0.47190  0.58620  0.38531  Biso   1.000  O
  O16      1.0000 0.52810  0.41380  0.61469  Biso   1.000  O
  O17      1.0000 0.00270  0.86800  0.67419  Biso   1.000  O
  O18      1.0000 0.99730  0.13200  0.32581  Biso   1.000  O
  O19      1.0000 0.10160  0.51200  0.79463  Biso   1.000  O
  O20      1.0000 0.89840  0.48800  0.20537  Biso   1.000  O
  O21      1.0000 0.63100  0.31270  0.44521  Biso   1.000  O
  O22      1.0000 0.36900  0.68730  0.55479  Biso   1.000  O
  O23      1.0000 0.89160  0.37960  0.37501  Biso   1.000  O
  O24      1.0000 0.10840  0.62040  0.62499  Biso   1.000  O
  O25      1.0000 0.70440  0.54610  0.47490  Biso   1.000  O
  O26      1.0000 0.29560  0.45390  0.52510  Biso   1.000  O
  C1       1.0000 0.65340  0.03610  0.35080  Biso   1.000  C
  C2       1.0000 0.34660  0.96390  0.64920  Biso   1.000  C
  C3       1.0000 0.63840  0.09620  0.26770  Biso   1.000  C
  C4       1.0000 0.36160  0.90380  0.73230  Biso   1.000  C
  C5       1.0000 0.56690  0.05170  0.21500  Biso   1.000  C
  C6       1.0000 0.43310  0.94830  0.78500  Biso   1.000  C
  H1       1.0000 0.55700  0.09220  0.16090  Biso   1.000  H
  H2       1.0000 0.44300  0.90780  0.83910  Biso   1.000  H
  C7       1.0000 0.51080  0.95170  0.23910  Biso   1.000  C
  C8       1.0000 0.48920  0.04830  0.76090  Biso   1.000  C
  H3       1.0000 0.46270  0.92500  0.20290  Biso   1.000  H
  H4       1.0000 0.53730  0.07500  0.79710  Biso   1.000  H
  C9       1.0000 0.52760  0.89170  0.31840  Biso   1.000  C
  C10      1.0000 0.47240  0.10830  0.68160  Biso   1.000  C
  H5       1.0000 0.49050  0.82310  0.33530  Biso   1.000  H
  H6       1.0000 0.50950  0.17690  0.66470  Biso   1.000  H
  C11      1.0000 0.59790  0.92950  0.37450  Biso   1.000  C
  C12      1.0000 0.40210  0.07050  0.62550  Biso   1.000  C
  C13      1.0000 0.61070  0.85610  0.45450  Biso   1.000  C
  C14      1.0000 0.38930  0.14390  0.54550  Biso   1.000  C
  H7       1.0000 0.57170  0.78810  0.46310  Biso   1.000  H
  H8       1.0000 0.42830  0.21190  0.53690  Biso   1.000  H
  C15      1.0000 0.67790  0.79360  0.59260  Biso   1.000  C
  C16      1.0000 0.32210  0.20640  0.40740  Biso   1.000  C
  H9       1.0000 0.67100  0.71630  0.57730  Biso   1.000  H
  H10      1.0000 0.32900  0.28370  0.42270  Biso   1.000  H
  H11      1.0000 0.60670  0.81450  0.64560  Biso   1.000  H
  H12      1.0000 0.39330  0.18550  0.35440  Biso   1.000  H
  C17      1.0000 0.80860  0.79860  0.61380  Biso   1.000  C
  C18      1.0000 0.19140  0.20140  0.38620  Biso   1.000  C
  H13      1.0000 0.80690  0.76650  0.67550  Biso   1.000  H
  H14      1.0000 0.19310  0.23350  0.32450  Biso   1.000  H
  H15      1.0000 0.87760  0.75400  0.57080  Biso   1.000  H
  H16      1.0000 0.12240  0.24600  0.42920  Biso   1.000  H
  C19      1.0000 0.93120  0.94510  0.63700  Biso   1.000  C
  C20      1.0000 0.06880  0.05490  0.36300  Biso   1.000  C
  C21      1.0000 0.95700  0.06630  0.63270  Biso   1.000  C
  C22      1.0000 0.04300  0.93370  0.36730  Biso   1.000  C
  C23      1.0000 0.03350  0.09450  0.69070  Biso   1.000  C
  C24      1.0000 0.96650  0.90550  0.30930  Biso   1.000  C
  H17      1.0000 0.06550  0.03600  0.72760  Biso   1.000  H
  H18      1.0000 0.93450  0.96400  0.27240  Biso   1.000  H
  C25      1.0000 0.06190  0.20230  0.69470  Biso   1.000  C
  C26      1.0000 0.93810  0.79770  0.30530  Biso   1.000  C
  H19      1.0000 0.11340  0.21690  0.73330  Biso   1.000  H
  H20      1.0000 0.88660  0.78310  0.26670  Biso   1.000  H
  C27      1.0000 0.01410  0.29140  0.64110  Biso   1.000  C
  C28      1.0000 0.98590  0.70860  0.35890  Biso   1.000  C
  H21      1.0000 0.03250  0.36620  0.64400  Biso   1.000  H
  H22      1.0000 0.96750  0.63380  0.35600  Biso   1.000  H
  C29      1.0000 0.93930  0.26830  0.58340  Biso   1.000  C
  C30      1.0000 0.06070  0.73170  0.41660  Biso   1.000  C
  H23      1.0000 0.90840  0.32840  0.54720  Biso   1.000  H
  H24      1.0000 0.09160  0.67160  0.45280  Biso   1.000  H
  C31      1.0000 0.90850  0.15810  0.57760  Biso   1.000  C
  C32      1.0000 0.09150  0.84190  0.42240  Biso   1.000  C
  C33      1.0000 0.68770  0.20970  0.23360  Biso   1.000  C
  C34      1.0000 0.31230  0.79030  0.76640  Biso   1.000  C
  C35      1.0000 0.53470  0.59360  0.13330  Biso   1.000  C
  C36      1.0000 0.46530  0.40640  0.86670  Biso   1.000  C
  C37      1.0000 0.47420  0.60930  0.22680  Biso   1.000  C
  C38      1.0000 0.52580  0.39070  0.77320  Biso   1.000  C
  C39      1.0000 0.35640  0.68280  0.25040  Biso   1.000  C
  C40      1.0000 0.64360  0.31720  0.74960  Biso   1.000  C
  H25      1.0000 0.31700  0.69310  0.31230  Biso   1.000  H
  H26      1.0000 0.68300  0.30690  0.68770  Biso   1.000  H
  C41      1.0000 0.29690  0.74010  0.18580  Biso   1.000  C
  C42      1.0000 0.70310  0.25990  0.81420  Biso   1.000  C
  H27      1.0000 0.21680  0.78580  0.20350  Biso   1.000  H
  H28      1.0000 0.78320  0.21420  0.79650  Biso   1.000  H
  C43      1.0000 0.35810  0.72860  0.09450  Biso   1.000  C
  C44      1.0000 0.64190  0.27140  0.90550  Biso   1.000  C
  H29      1.0000 0.31920  0.76830  0.05030  Biso   1.000  H
  H30      1.0000 0.68080  0.23170  0.94970  Biso   1.000  H
  C45      1.0000 0.47720  0.65910  0.06590  Biso   1.000  C
  C46      1.0000 0.52280  0.34090  0.93410  Biso   1.000  C
  C47      1.0000 0.53580  0.66100  0.96850  Biso   1.000  C
  C48      1.0000 0.46420  0.33900  0.03150  Biso   1.000  C
  H31      1.0000 0.48890  0.70560  0.93090  Biso   1.000  H
  H32      1.0000 0.51110  0.29440  0.06910  Biso   1.000  H
  C49      1.0000 0.69830  0.61510  0.82810  Biso   1.000  C
  C50      1.0000 0.30170  0.38490  0.17190  Biso   1.000  C
  H33      1.0000 0.66800  0.68950  0.80300  Biso   1.000  H
  H34      1.0000 0.33200  0.31050  0.19700  Biso   1.000  H
  H35      1.0000 0.66800  0.55570  0.80010  Biso   1.000  H
  H36      1.0000 0.33200  0.44430  0.19990  Biso   1.000  H
  C51      1.0000 0.84710  0.59940  0.80770  Biso   1.000  C
  C52      1.0000 0.15290  0.40060  0.19230  Biso   1.000  C
  H37      1.0000 0.88420  0.57940  0.74440  Biso   1.000  H
  H38      1.0000 0.11580  0.42060  0.25560  Biso   1.000  H
  H39      1.0000 0.87900  0.67040  0.81680  Biso   1.000  H
  H40      1.0000 0.12100  0.32960  0.18320  Biso   1.000  H
  C53      1.0000 0.01160  0.46900  0.85860  Biso   1.000  C
  C54      1.0000 0.98840  0.53100  0.14140  Biso   1.000  C
  C55      1.0000 0.04950  0.36890  0.91800  Biso   1.000  C
  C56      1.0000 0.95050  0.63110  0.08200  Biso   1.000  C
  C57      1.0000 0.17060  0.30370  0.88360  Biso   1.000  C
  C58      1.0000 0.82940  0.69630  0.11640  Biso   1.000  C
  H41      1.0000 0.22260  0.32590  0.82660  Biso   1.000  H
  H42      1.0000 0.77740  0.67410  0.17340  Biso   1.000  H
  C59      1.0000 0.21510  0.20810  0.93110  Biso   1.000  C
  C60      1.0000 0.78490  0.79190  0.06890  Biso   1.000  C
  H43      1.0000 0.29610  0.16660  0.90690  Biso   1.000  H
  H44      1.0000 0.70390  0.83340  0.09310  Biso   1.000  H
  C61      1.0000 0.13760  0.17490  0.01530  Biso   1.000  C
  C62      1.0000 0.86240  0.82510  0.98470  Biso   1.000  C
  H45      1.0000 0.16650  0.11010  0.04790  Biso   1.000  H
  H46      1.0000 0.83350  0.88990  0.95210  Biso   1.000  H
  C63      1.0000 0.01920  0.23580  0.05130  Biso   1.000  C
  C64      1.0000 0.98080  0.76420  0.94870  Biso   1.000  C
  H47      1.0000 0.96910  0.21200  0.10840  Biso   1.000  H
  H48      1.0000 0.03090  0.78800  0.89160  Biso   1.000  H
  C65      1.0000 0.97150  0.33270  0.00460  Biso   1.000  C
  C66      1.0000 0.02850  0.66730  0.99540  Biso   1.000  C
  C67      1.0000 0.52420  0.55100  0.30720  Biso   1.000  C
  C68      1.0000 0.47580  0.44900  0.69280  Biso   1.000  C
