data_image0
_cell_length_a       9.6684
_cell_length_b       7.3752
_cell_length_c       20.9665
_cell_angle_alpha    90
_cell_angle_beta     102.355
_cell_angle_gamma    90

_symmetry_space_group_name_H-M    "P 1"
_symmetry_int_tables_number       1

loop_
  _symmetry_equiv_pos_as_xyz
  'x, y, z'

loop_
  _atom_site_label
  _atom_site_occupancy
  _atom_site_fract_x
  _atom_site_fract_y
  _atom_site_fract_z
  _atom_site_thermal_displace_type
  _atom_site_B_iso_or_equiv
  _atom_site_type_symbol
  Cu1      1.0000 0.68553  0.47340  0.61035  Biso   1.000  Cu
  Cu2      1.0000 0.31447  0.97340  0.88965  Biso   1.000  Cu
  Cu3      1.0000 0.31447  0.52660  0.38965  Biso   1.000  Cu
  Cu4      1.0000 0.68553  0.02660  0.11035  Biso   1.000  Cu
  O1       1.0000 0.47572  0.49770  0.57955  Biso   1.000  O
  O2       1.0000 0.52428  0.99770  0.92045  Biso   1.000  O
  O3       1.0000 0.52428  0.50230  0.42045  Biso   1.000  O
  O4       1.0000 0.47572  0.00230  0.07955  Biso   1.000  O
  S1       1.0000 0.75789  0.99232  0.60346  Biso   1.000  S
  S2       1.0000 0.24211  0.49232  0.89654  Biso   1.000  S
  S3       1.0000 0.24211  0.00768  0.39654  Biso   1.000  S
  S4       1.0000 0.75789  0.50768  0.10346  Biso   1.000  S
  N1       1.0000 0.66853  0.45290  0.70207  Biso   1.000  N
  N2       1.0000 0.33147  0.95290  0.79793  Biso   1.000  N
  N3       1.0000 0.33147  0.54710  0.29793  Biso   1.000  N
  N4       1.0000 0.66853  0.04710  0.20207  Biso   1.000  N
  O5       1.0000 0.31746  0.51480  0.48456  Biso   1.000  O
  O6       1.0000 0.68254  0.01480  0.01544  Biso   1.000  O
  O7       1.0000 0.68254  0.48520  0.51544  Biso   1.000  O
  O8       1.0000 0.31746  0.98520  0.98456  Biso   1.000  O
  O9       1.0000 0.66340  0.14400  0.60127  Biso   1.000  O
  O10      1.0000 0.33660  0.64400  0.89873  Biso   1.000  O
  O11      1.0000 0.33660  0.85600  0.39873  Biso   1.000  O
  O12      1.0000 0.66340  0.35600  0.10127  Biso   1.000  O
  O13      1.0000 0.90160  0.03080  0.63482  Biso   1.000  O
  O14      1.0000 0.09840  0.53080  0.86518  Biso   1.000  O
  O15      1.0000 0.09840  0.96920  0.36518  Biso   1.000  O
  O16      1.0000 0.90160  0.46920  0.13482  Biso   1.000  O
  C1       1.0000 0.96570  0.54030  0.69449  Biso   1.000  C
  C2       1.0000 0.03430  0.04030  0.80551  Biso   1.000  C
  C3       1.0000 0.03430  0.45970  0.30551  Biso   1.000  C
  C4       1.0000 0.96570  0.95970  0.19449  Biso   1.000  C
  N5       1.0000 0.89700  0.56810  0.74519  Biso   1.000  N
  N6       1.0000 0.10300  0.06810  0.75481  Biso   1.000  N
  N7       1.0000 0.10300  0.43190  0.25481  Biso   1.000  N
  N8       1.0000 0.89700  0.93190  0.24519  Biso   1.000  N
  C5       1.0000 0.43940  0.50380  0.51839  Biso   1.000  C
  C6       1.0000 0.56060  0.00380  0.98161  Biso   1.000  C
  C7       1.0000 0.56060  0.49620  0.48161  Biso   1.000  C
  C8       1.0000 0.43940  0.99620  0.01839  Biso   1.000  C
  C9       1.0000 0.54560  0.38610  0.71406  Biso   1.000  C
  C10      1.0000 0.45440  0.88610  0.78594  Biso   1.000  C
  C11      1.0000 0.45440  0.61390  0.28594  Biso   1.000  C
  C12      1.0000 0.54560  0.11390  0.21406  Biso   1.000  C
  C13      1.0000 0.76650  0.51200  0.75329  Biso   1.000  C
  C14      1.0000 0.23350  0.01200  0.74671  Biso   1.000  C
  C15      1.0000 0.23350  0.48800  0.24671  Biso   1.000  C
  C16      1.0000 0.76650  0.98800  0.25329  Biso   1.000  C
  C17      1.0000 0.97030  0.45120  0.58929  Biso   1.000  C
  C18      1.0000 0.02970  0.95120  0.91071  Biso   1.000  C
  C19      1.0000 0.02970  0.54880  0.41071  Biso   1.000  C
  C20      1.0000 0.97030  0.04880  0.08929  Biso   1.000  C
  C21      1.0000 0.73950  0.51670  0.81654  Biso   1.000  C
  C22      1.0000 0.26050  0.01670  0.68346  Biso   1.000  C
  C23      1.0000 0.26050  0.48330  0.18346  Biso   1.000  C
  C24      1.0000 0.73950  0.98330  0.31654  Biso   1.000  C
  C25      1.0000 0.11120  0.57240  0.70728  Biso   1.000  C
  C26      1.0000 0.88880  0.07240  0.79272  Biso   1.000  C
  C27      1.0000 0.88880  0.42760  0.29272  Biso   1.000  C
  C28      1.0000 0.11120  0.92760  0.20728  Biso   1.000  C
  N9       1.0000 0.89420  0.48390  0.63592  Biso   1.000  N
  N10      1.0000 0.10580  0.98390  0.86408  Biso   1.000  N
  N11      1.0000 0.10580  0.51610  0.36408  Biso   1.000  N
  N12      1.0000 0.89420  0.01610  0.13592  Biso   1.000  N
  O17      1.0000 0.70190  0.82380  0.62118  Biso   1.000  O
  O18      1.0000 0.29810  0.32380  0.87882  Biso   1.000  O
  O19      1.0000 0.29810  0.17620  0.37882  Biso   1.000  O
  O20      1.0000 0.70190  0.67620  0.12118  Biso   1.000  O
  F1       1.0000 0.86260  0.83200  0.51391  Biso   1.000  F
  F2       1.0000 0.13740  0.33200  0.98609  Biso   1.000  F
  F3       1.0000 0.13740  0.16800  0.48609  Biso   1.000  F
  F4       1.0000 0.86260  0.66800  0.01391  Biso   1.000  F
  F5       1.0000 0.80780  0.10910  0.49275  Biso   1.000  F
  F6       1.0000 0.19220  0.60910  0.00725  Biso   1.000  F
  F7       1.0000 0.19220  0.89090  0.50725  Biso   1.000  F
  F8       1.0000 0.80780  0.39090  0.99275  Biso   1.000  F
  C29      1.0000 0.18430  0.54400  0.65898  Biso   1.000  C
  C30      1.0000 0.81570  0.04400  0.84102  Biso   1.000  C
  C31      1.0000 0.81570  0.45600  0.34102  Biso   1.000  C
  C32      1.0000 0.18430  0.95600  0.15898  Biso   1.000  C
  F9       1.0000 0.64720  0.90480  0.48313  Biso   1.000  F
  F10      1.0000 0.35280  0.40480  0.01687  Biso   1.000  F
  F11      1.0000 0.35280  0.09520  0.51687  Biso   1.000  F
  F12      1.0000 0.64720  0.59520  0.98313  Biso   1.000  F
  C33      1.0000 0.76900  0.95870  0.51878  Biso   1.000  C
  C34      1.0000 0.23100  0.45870  0.98122  Biso   1.000  C
  C35      1.0000 0.23100  0.04130  0.48122  Biso   1.000  C
  C36      1.0000 0.76900  0.54130  0.01878  Biso   1.000  C
  C37      1.0000 0.11290  0.47890  0.59892  Biso   1.000  C
  C38      1.0000 0.88710  0.97890  0.90108  Biso   1.000  C
  C39      1.0000 0.88710  0.52110  0.40108  Biso   1.000  C
  C40      1.0000 0.11290  0.02110  0.09892  Biso   1.000  C
  C41      1.0000 0.61340  0.45420  0.82669  Biso   1.000  C
  C42      1.0000 0.38660  0.95420  0.67331  Biso   1.000  C
  C43      1.0000 0.38660  0.54580  0.17331  Biso   1.000  C
  C44      1.0000 0.61340  0.04580  0.32669  Biso   1.000  C
  C45      1.0000 0.51430  0.38500  0.77421  Biso   1.000  C
  C46      1.0000 0.48570  0.88500  0.72579  Biso   1.000  C
  C47      1.0000 0.48570  0.61500  0.22579  Biso   1.000  C
  C48      1.0000 0.51430  0.11500  0.27421  Biso   1.000  C
  H1       1.0000 0.48500  0.34200  0.67740  Biso   1.000  H
  H2       1.0000 0.51500  0.84200  0.82260  Biso   1.000  H
  H3       1.0000 0.51500  0.65800  0.32260  Biso   1.000  H
  H4       1.0000 0.48500  0.15800  0.17740  Biso   1.000  H
  H5       1.0000 0.43500  0.34100  0.78020  Biso   1.000  H
  H6       1.0000 0.56500  0.84100  0.71980  Biso   1.000  H
  H7       1.0000 0.56500  0.65900  0.21980  Biso   1.000  H
  H8       1.0000 0.43500  0.15900  0.28020  Biso   1.000  H
  H9       1.0000 0.91800  0.40200  0.54810  Biso   1.000  H
  H10      1.0000 0.08200  0.90200  0.95190  Biso   1.000  H
  H11      1.0000 0.08200  0.59800  0.45190  Biso   1.000  H
  H12      1.0000 0.91800  0.09800  0.04810  Biso   1.000  H
  H13      1.0000 0.15100  0.62000  0.74700  Biso   1.000  H
  H14      1.0000 0.84900  0.12000  0.75300  Biso   1.000  H
  H15      1.0000 0.84900  0.38000  0.25300  Biso   1.000  H
  H16      1.0000 0.15100  0.88000  0.24700  Biso   1.000  H
  H17      1.0000 0.15800  0.45300  0.56600  Biso   1.000  H
  H18      1.0000 0.84200  0.95300  0.93400  Biso   1.000  H
  H19      1.0000 0.84200  0.54700  0.43400  Biso   1.000  H
  H20      1.0000 0.15800  0.04700  0.06600  Biso   1.000  H
  H21      1.0000 0.81100  0.56300  0.84870  Biso   1.000  H
  H22      1.0000 0.18900  0.06300  0.65130  Biso   1.000  H
  H23      1.0000 0.18900  0.43700  0.15130  Biso   1.000  H
  H24      1.0000 0.81100  0.93700  0.34870  Biso   1.000  H
  H25      1.0000 0.28000  0.56300  0.66590  Biso   1.000  H
  H26      1.0000 0.72000  0.06300  0.83410  Biso   1.000  H
  H27      1.0000 0.72000  0.43700  0.33410  Biso   1.000  H
  H28      1.0000 0.28000  0.93700  0.16590  Biso   1.000  H
  H29      1.0000 0.94200  0.59000  0.77460  Biso   1.000  H
  H30      1.0000 0.05800  0.09000  0.72540  Biso   1.000  H
  H31      1.0000 0.05800  0.41000  0.22540  Biso   1.000  H
  H32      1.0000 0.94200  0.91000  0.27460  Biso   1.000  H
  H33      1.0000 0.60000  0.45600  0.86430  Biso   1.000  H
  H34      1.0000 0.40000  0.95600  0.63570  Biso   1.000  H
  H35      1.0000 0.40000  0.54400  0.13570  Biso   1.000  H
  H36      1.0000 0.60000  0.04400  0.36430  Biso   1.000  H
