data_image0
_cell_length_a       28.0211
_cell_length_b       10.1152
_cell_length_c       22.1391
_cell_angle_alpha    90
_cell_angle_beta     126.07
_cell_angle_gamma    90

_symmetry_space_group_name_H-M    "P 1"
_symmetry_int_tables_number       1

loop_
  _symmetry_equiv_pos_as_xyz
  'x, y, z'

loop_
  _atom_site_label
  _atom_site_occupancy
  _atom_site_fract_x
  _atom_site_fract_y
  _atom_site_fract_z
  _atom_site_thermal_displace_type
  _atom_site_B_iso_or_equiv
  _atom_site_type_symbol
  Cu1      1.0000 0.00872  0.56812  0.45573  Biso   1.000  Cu
  Cu2      1.0000 0.50872  0.06812  0.45573  Biso   1.000  Cu
  Cu3      1.0000 0.99128  0.56812  0.04427  Biso   1.000  Cu
  Cu4      1.0000 0.49128  0.06812  0.04427  Biso   1.000  Cu
  Cu5      1.0000 0.99128  0.43188  0.54427  Biso   1.000  Cu
  Cu6      1.0000 0.49128  0.93188  0.54427  Biso   1.000  Cu
  Cu7      1.0000 0.00872  0.43188  0.95573  Biso   1.000  Cu
  Cu8      1.0000 0.50872  0.93188  0.95573  Biso   1.000  Cu
  Cu9      1.0000 0.00000  0.60397  0.25000  Biso   1.000  Cu
  Cu10     1.0000 0.50000  0.10397  0.25000  Biso   1.000  Cu
  Cu11     1.0000 0.00000  0.39603  0.75000  Biso   1.000  Cu
  Cu12     1.0000 0.50000  0.89603  0.75000  Biso   1.000  Cu
  C1       1.0000 0.97611  0.29790  0.41761  Biso   1.000  C
  C2       1.0000 0.47611  0.79790  0.41761  Biso   1.000  C
  C3       1.0000 0.02389  0.29790  0.08239  Biso   1.000  C
  C4       1.0000 0.52389  0.79790  0.08239  Biso   1.000  C
  C5       1.0000 0.02389  0.70210  0.58239  Biso   1.000  C
  C6       1.0000 0.52389  0.20210  0.58239  Biso   1.000  C
  C7       1.0000 0.97611  0.70210  0.91761  Biso   1.000  C
  C8       1.0000 0.47611  0.20210  0.91761  Biso   1.000  C
  C9       1.0000 0.96140  0.17410  0.37271  Biso   1.000  C
  C10      1.0000 0.46140  0.67410  0.37271  Biso   1.000  C
  C11      1.0000 0.03860  0.17410  0.12729  Biso   1.000  C
  C12      1.0000 0.53860  0.67410  0.12729  Biso   1.000  C
  C13      1.0000 0.03860  0.82590  0.62729  Biso   1.000  C
  C14      1.0000 0.53860  0.32590  0.62729  Biso   1.000  C
  C15      1.0000 0.96140  0.82590  0.87271  Biso   1.000  C
  C16      1.0000 0.46140  0.32590  0.87271  Biso   1.000  C
  C17      1.0000 0.95380  0.17470  0.30497  Biso   1.000  C
  C18      1.0000 0.45380  0.67470  0.30497  Biso   1.000  C
  C19      1.0000 0.04620  0.17470  0.19503  Biso   1.000  C
  C20      1.0000 0.54620  0.67470  0.19503  Biso   1.000  C
  C21      1.0000 0.04620  0.82530  0.69503  Biso   1.000  C
  C22      1.0000 0.54620  0.32530  0.69503  Biso   1.000  C
  C23      1.0000 0.95380  0.82530  0.80497  Biso   1.000  C
  C24      1.0000 0.45380  0.32530  0.80497  Biso   1.000  C
  H1       1.0000 0.95690  0.25340  0.28580  Biso   1.000  H
  H2       1.0000 0.45690  0.75340  0.28580  Biso   1.000  H
  H3       1.0000 0.04310  0.25340  0.21420  Biso   1.000  H
  H4       1.0000 0.54310  0.75340  0.21420  Biso   1.000  H
  H5       1.0000 0.04310  0.74660  0.71420  Biso   1.000  H
  H6       1.0000 0.54310  0.24660  0.71420  Biso   1.000  H
  H7       1.0000 0.95690  0.74660  0.78580  Biso   1.000  H
  H8       1.0000 0.45690  0.24660  0.78580  Biso   1.000  H
  C25      1.0000 0.95600  0.05690  0.39930  Biso   1.000  C
  C26      1.0000 0.45600  0.55690  0.39930  Biso   1.000  C
  C27      1.0000 0.04400  0.05690  0.10070  Biso   1.000  C
  C28      1.0000 0.54400  0.55690  0.10070  Biso   1.000  C
  C29      1.0000 0.04400  0.94310  0.60070  Biso   1.000  C
  C30      1.0000 0.54400  0.44310  0.60070  Biso   1.000  C
  C31      1.0000 0.95600  0.94310  0.89930  Biso   1.000  C
  C32      1.0000 0.45600  0.44310  0.89930  Biso   1.000  C
  H9       1.0000 0.96020  0.05580  0.44420  Biso   1.000  H
  H10      1.0000 0.46020  0.55580  0.44420  Biso   1.000  H
  H11      1.0000 0.03980  0.05580  0.05580  Biso   1.000  H
  H12      1.0000 0.53980  0.55580  0.05580  Biso   1.000  H
  H13      1.0000 0.03980  0.94420  0.55580  Biso   1.000  H
  H14      1.0000 0.53980  0.44420  0.55580  Biso   1.000  H
  H15      1.0000 0.96020  0.94420  0.94420  Biso   1.000  H
  H16      1.0000 0.46020  0.44420  0.94420  Biso   1.000  H
  C33      1.0000 0.94166  0.05820  0.26614  Biso   1.000  C
  C34      1.0000 0.44166  0.55820  0.26614  Biso   1.000  C
  C35      1.0000 0.05834  0.05820  0.23386  Biso   1.000  C
  C36      1.0000 0.55834  0.55820  0.23386  Biso   1.000  C
  C37      1.0000 0.05834  0.94180  0.73386  Biso   1.000  C
  C38      1.0000 0.55834  0.44180  0.73386  Biso   1.000  C
  C39      1.0000 0.94166  0.94180  0.76614  Biso   1.000  C
  C40      1.0000 0.44166  0.44180  0.76614  Biso   1.000  C
  H17      1.0000 0.93620  0.05920  0.22040  Biso   1.000  H
  H18      1.0000 0.43620  0.55920  0.22040  Biso   1.000  H
  H19      1.0000 0.06380  0.05920  0.27960  Biso   1.000  H
  H20      1.0000 0.56380  0.55920  0.27960  Biso   1.000  H
  H21      1.0000 0.06380  0.94080  0.77960  Biso   1.000  H
  H22      1.0000 0.56380  0.44080  0.77960  Biso   1.000  H
  H23      1.0000 0.93620  0.94080  0.72040  Biso   1.000  H
  H24      1.0000 0.43620  0.44080  0.72040  Biso   1.000  H
  C41      1.0000 0.93752  0.94170  0.29355  Biso   1.000  C
  C42      1.0000 0.43752  0.44170  0.29355  Biso   1.000  C
  C43      1.0000 0.06248  0.94170  0.20645  Biso   1.000  C
  C44      1.0000 0.56248  0.44170  0.20645  Biso   1.000  C
  C45      1.0000 0.06248  0.05830  0.70645  Biso   1.000  C
  C46      1.0000 0.56248  0.55830  0.70645  Biso   1.000  C
  C47      1.0000 0.93752  0.05830  0.79355  Biso   1.000  C
  C48      1.0000 0.43752  0.55830  0.79355  Biso   1.000  C
  H25      1.0000 0.93010  0.86360  0.26720  Biso   1.000  H
  H26      1.0000 0.43010  0.36360  0.26720  Biso   1.000  H
  H27      1.0000 0.06990  0.86360  0.23280  Biso   1.000  H
  H28      1.0000 0.56990  0.36360  0.23280  Biso   1.000  H
  H29      1.0000 0.06990  0.13640  0.73280  Biso   1.000  H
  H30      1.0000 0.56990  0.63640  0.73280  Biso   1.000  H
  H31      1.0000 0.93010  0.13640  0.76720  Biso   1.000  H
  H32      1.0000 0.43010  0.63640  0.76720  Biso   1.000  H
  C49      1.0000 0.94436  0.94020  0.36017  Biso   1.000  C
  C50      1.0000 0.44436  0.44020  0.36017  Biso   1.000  C
  C51      1.0000 0.05564  0.94020  0.13983  Biso   1.000  C
  C52      1.0000 0.55564  0.44020  0.13983  Biso   1.000  C
  C53      1.0000 0.05564  0.05980  0.63983  Biso   1.000  C
  C54      1.0000 0.55564  0.55980  0.63983  Biso   1.000  C
  C55      1.0000 0.94436  0.05980  0.86017  Biso   1.000  C
  C56      1.0000 0.44436  0.55980  0.86017  Biso   1.000  C
  H33      1.0000 0.94120  0.86110  0.37900  Biso   1.000  H
  H34      1.0000 0.44120  0.36110  0.37900  Biso   1.000  H
  H35      1.0000 0.05880  0.86110  0.12100  Biso   1.000  H
  H36      1.0000 0.55880  0.36110  0.12100  Biso   1.000  H
  H37      1.0000 0.05880  0.13890  0.62100  Biso   1.000  H
  H38      1.0000 0.55880  0.63890  0.62100  Biso   1.000  H
  H39      1.0000 0.94120  0.13890  0.87900  Biso   1.000  H
  H40      1.0000 0.44120  0.63890  0.87900  Biso   1.000  H
  N1       1.0000 0.06381  0.47060  0.30638  Biso   1.000  N
  N2       1.0000 0.56381  0.97060  0.30638  Biso   1.000  N
  N3       1.0000 0.93619  0.47060  0.19362  Biso   1.000  N
  N4       1.0000 0.43619  0.97060  0.19362  Biso   1.000  N
  N5       1.0000 0.93619  0.52940  0.69362  Biso   1.000  N
  N6       1.0000 0.43619  0.02940  0.69362  Biso   1.000  N
  N7       1.0000 0.06381  0.52940  0.80638  Biso   1.000  N
  N8       1.0000 0.56381  0.02940  0.80638  Biso   1.000  N
  C57      1.0000 0.11753  0.32010  0.39502  Biso   1.000  C
  C58      1.0000 0.61753  0.82010  0.39502  Biso   1.000  C
  C59      1.0000 0.88247  0.32010  0.10498  Biso   1.000  C
  C60      1.0000 0.38247  0.82010  0.10498  Biso   1.000  C
  C61      1.0000 0.88247  0.67990  0.60498  Biso   1.000  C
  C62      1.0000 0.38247  0.17990  0.60498  Biso   1.000  C
  C63      1.0000 0.11753  0.67990  0.89502  Biso   1.000  C
  C64      1.0000 0.61753  0.17990  0.89502  Biso   1.000  C
  C65      1.0000 0.14911  0.36160  0.36991  Biso   1.000  C
  C66      1.0000 0.64911  0.86160  0.36991  Biso   1.000  C
  C67      1.0000 0.85089  0.36160  0.13009  Biso   1.000  C
  C68      1.0000 0.35089  0.86160  0.13009  Biso   1.000  C
  C69      1.0000 0.85089  0.63840  0.63009  Biso   1.000  C
  C70      1.0000 0.35089  0.13840  0.63009  Biso   1.000  C
  C71      1.0000 0.14911  0.63840  0.86991  Biso   1.000  C
  C72      1.0000 0.64911  0.13840  0.86991  Biso   1.000  C
  H41      1.0000 0.18630  0.33220  0.38600  Biso   1.000  H
  H42      1.0000 0.68630  0.83220  0.38600  Biso   1.000  H
  H43      1.0000 0.81370  0.33220  0.11400  Biso   1.000  H
  H44      1.0000 0.31370  0.83220  0.11400  Biso   1.000  H
  H45      1.0000 0.81370  0.66780  0.61400  Biso   1.000  H
  H46      1.0000 0.31370  0.16780  0.61400  Biso   1.000  H
  H47      1.0000 0.18630  0.66780  0.88600  Biso   1.000  H
  H48      1.0000 0.68630  0.16780  0.88600  Biso   1.000  H
  O1       1.0000 0.98805  0.40170  0.39674  Biso   1.000  O
  O2       1.0000 0.48805  0.90170  0.39674  Biso   1.000  O
  O3       1.0000 0.01195  0.40170  0.10326  Biso   1.000  O
  O4       1.0000 0.51195  0.90170  0.10326  Biso   1.000  O
  O5       1.0000 0.01195  0.59830  0.60326  Biso   1.000  O
  O6       1.0000 0.51195  0.09830  0.60326  Biso   1.000  O
  O7       1.0000 0.98805  0.59830  0.89674  Biso   1.000  O
  O8       1.0000 0.48805  0.09830  0.89674  Biso   1.000  O
  O9       1.0000 0.92473  0.60921  0.40011  Biso   1.000  O
  O10      1.0000 0.42473  0.10921  0.40011  Biso   1.000  O
  O11      1.0000 0.07527  0.60921  0.09989  Biso   1.000  O
  O12      1.0000 0.57527  0.10921  0.09989  Biso   1.000  O
  O13      1.0000 0.07527  0.39079  0.59989  Biso   1.000  O
  O14      1.0000 0.57527  0.89079  0.59989  Biso   1.000  O
  O15      1.0000 0.92473  0.39079  0.90011  Biso   1.000  O
  O16      1.0000 0.42473  0.89079  0.90011  Biso   1.000  O
  O17      1.0000 0.91047  0.49620  0.47528  Biso   1.000  O
  O18      1.0000 0.41047  0.99620  0.47528  Biso   1.000  O
  O19      1.0000 0.08953  0.49620  0.02472  Biso   1.000  O
  O20      1.0000 0.58953  0.99620  0.02472  Biso   1.000  O
  O21      1.0000 0.08953  0.50380  0.52472  Biso   1.000  O
  O22      1.0000 0.58953  0.00380  0.52472  Biso   1.000  O
  O23      1.0000 0.91047  0.50380  0.97528  Biso   1.000  O
  O24      1.0000 0.41047  0.00380  0.97528  Biso   1.000  O
  O25      1.0000 0.97557  0.29111  0.47367  Biso   1.000  O
  O26      1.0000 0.47557  0.79111  0.47367  Biso   1.000  O
  O27      1.0000 0.02443  0.29111  0.02633  Biso   1.000  O
  O28      1.0000 0.52443  0.79111  0.02633  Biso   1.000  O
  O29      1.0000 0.02443  0.70889  0.52633  Biso   1.000  O
  O30      1.0000 0.52443  0.20889  0.52633  Biso   1.000  O
  O31      1.0000 0.97557  0.70889  0.97367  Biso   1.000  O
  O32      1.0000 0.47557  0.20889  0.97367  Biso   1.000  O
  C73      1.0000 0.89292  0.56560  0.41870  Biso   1.000  C
  C74      1.0000 0.39292  0.06560  0.41870  Biso   1.000  C
  C75      1.0000 0.10708  0.56560  0.08130  Biso   1.000  C
  C76      1.0000 0.60708  0.06560  0.08130  Biso   1.000  C
  C77      1.0000 0.10708  0.43440  0.58130  Biso   1.000  C
  C78      1.0000 0.60708  0.93440  0.58130  Biso   1.000  C
  C79      1.0000 0.89292  0.43440  0.91870  Biso   1.000  C
  C80      1.0000 0.39292  0.93440  0.91870  Biso   1.000  C
  C81      1.0000 0.82876  0.60020  0.36945  Biso   1.000  C
  C82      1.0000 0.32876  0.10020  0.36945  Biso   1.000  C
  C83      1.0000 0.17124  0.60020  0.13055  Biso   1.000  C
  C84      1.0000 0.67124  0.10020  0.13055  Biso   1.000  C
  C85      1.0000 0.17124  0.39980  0.63055  Biso   1.000  C
  C86      1.0000 0.67124  0.89980  0.63055  Biso   1.000  C
  C87      1.0000 0.82876  0.39980  0.86945  Biso   1.000  C
  C88      1.0000 0.32876  0.89980  0.86945  Biso   1.000  C
  C89      1.0000 0.06209  0.73180  0.37865  Biso   1.000  C
  C90      1.0000 0.56209  0.23180  0.37865  Biso   1.000  C
  C91      1.0000 0.93791  0.73180  0.12135  Biso   1.000  C
  C92      1.0000 0.43791  0.23180  0.12135  Biso   1.000  C
  C93      1.0000 0.93791  0.26820  0.62135  Biso   1.000  C
  C94      1.0000 0.43791  0.76820  0.62135  Biso   1.000  C
  C95      1.0000 0.06209  0.26820  0.87865  Biso   1.000  C
  C96      1.0000 0.56209  0.76820  0.87865  Biso   1.000  C
  C97      1.0000 0.11362  0.80440  0.44287  Biso   1.000  C
  C98      1.0000 0.61362  0.30440  0.44287  Biso   1.000  C
  C99      1.0000 0.88638  0.80440  0.05713  Biso   1.000  C
  C100     1.0000 0.38638  0.30440  0.05713  Biso   1.000  C
  C101     1.0000 0.88638  0.19560  0.55713  Biso   1.000  C
  C102     1.0000 0.38638  0.69560  0.55713  Biso   1.000  C
  C103     1.0000 0.11362  0.19560  0.94287  Biso   1.000  C
  C104     1.0000 0.61362  0.69560  0.94287  Biso   1.000  C
  O33      1.0000 0.05685  0.73633  0.31759  Biso   1.000  O
  O34      1.0000 0.55685  0.23633  0.31759  Biso   1.000  O
  O35      1.0000 0.94315  0.73633  0.18241  Biso   1.000  O
  O36      1.0000 0.44315  0.23633  0.18241  Biso   1.000  O
  O37      1.0000 0.94315  0.26367  0.68241  Biso   1.000  O
  O38      1.0000 0.44315  0.76367  0.68241  Biso   1.000  O
  O39      1.0000 0.05685  0.26367  0.81759  Biso   1.000  O
  O40      1.0000 0.55685  0.76367  0.81759  Biso   1.000  O
  O41      1.0000 0.02632  0.66891  0.38404  Biso   1.000  O
  O42      1.0000 0.52632  0.16891  0.38404  Biso   1.000  O
  O43      1.0000 0.97368  0.66891  0.11596  Biso   1.000  O
  O44      1.0000 0.47368  0.16891  0.11596  Biso   1.000  O
  O45      1.0000 0.97368  0.33109  0.61596  Biso   1.000  O
  O46      1.0000 0.47368  0.83109  0.61596  Biso   1.000  O
  O47      1.0000 0.02632  0.33109  0.88404  Biso   1.000  O
  O48      1.0000 0.52632  0.83109  0.88404  Biso   1.000  O
  C105     1.0000 0.11499  0.45680  0.31543  Biso   1.000  C
  C106     1.0000 0.61499  0.95680  0.31543  Biso   1.000  C
  C107     1.0000 0.88501  0.45680  0.18457  Biso   1.000  C
  C108     1.0000 0.38501  0.95680  0.18457  Biso   1.000  C
  C109     1.0000 0.88501  0.54320  0.68457  Biso   1.000  C
  C110     1.0000 0.38501  0.04320  0.68457  Biso   1.000  C
  C111     1.0000 0.11499  0.54320  0.81543  Biso   1.000  C
  C112     1.0000 0.61499  0.04320  0.81543  Biso   1.000  C
  N9       1.0000 0.06620  0.38600  0.35543  Biso   1.000  N
  N10      1.0000 0.56620  0.88600  0.35543  Biso   1.000  N
  N11      1.0000 0.93380  0.38600  0.14457  Biso   1.000  N
  N12      1.0000 0.43380  0.88600  0.14457  Biso   1.000  N
  N13      1.0000 0.93380  0.61400  0.64457  Biso   1.000  N
  N14      1.0000 0.43380  0.11400  0.64457  Biso   1.000  N
  N15      1.0000 0.06620  0.61400  0.85543  Biso   1.000  N
  N16      1.0000 0.56620  0.11400  0.85543  Biso   1.000  N
  C113     1.0000 0.12793  0.53700  0.27042  Biso   1.000  C
  C114     1.0000 0.62793  0.03700  0.27042  Biso   1.000  C
  C115     1.0000 0.87207  0.53700  0.22958  Biso   1.000  C
  C116     1.0000 0.37207  0.03700  0.22958  Biso   1.000  C
  C117     1.0000 0.87207  0.46300  0.72958  Biso   1.000  C
  C118     1.0000 0.37207  0.96300  0.72958  Biso   1.000  C
  C119     1.0000 0.12793  0.46300  0.77042  Biso   1.000  C
  C120     1.0000 0.62793  0.96300  0.77042  Biso   1.000  C
  H49      1.0000 0.09160  0.56080  0.22390  Biso   1.000  H
  H50      1.0000 0.59160  0.06080  0.22390  Biso   1.000  H
  H51      1.0000 0.90840  0.56080  0.27610  Biso   1.000  H
  H52      1.0000 0.40840  0.06080  0.27610  Biso   1.000  H
  H53      1.0000 0.90840  0.43920  0.77610  Biso   1.000  H
  H54      1.0000 0.40840  0.93920  0.77610  Biso   1.000  H
  H55      1.0000 0.09160  0.43920  0.72390  Biso   1.000  H
  H56      1.0000 0.59160  0.93920  0.72390  Biso   1.000  H
  H57      1.0000 0.15180  0.48630  0.26080  Biso   1.000  H
  H58      1.0000 0.65180  0.98630  0.26080  Biso   1.000  H
  H59      1.0000 0.84820  0.48630  0.23920  Biso   1.000  H
  H60      1.0000 0.34820  0.98630  0.23920  Biso   1.000  H
  H61      1.0000 0.84820  0.51370  0.73920  Biso   1.000  H
  H62      1.0000 0.34820  0.01370  0.73920  Biso   1.000  H
  H63      1.0000 0.15180  0.51370  0.76080  Biso   1.000  H
  H64      1.0000 0.65180  0.01370  0.76080  Biso   1.000  H
  H65      1.0000 0.14880  0.61560  0.29750  Biso   1.000  H
  H66      1.0000 0.64880  0.11560  0.29750  Biso   1.000  H
  H67      1.0000 0.85120  0.61560  0.20250  Biso   1.000  H
  H68      1.0000 0.35120  0.11560  0.20250  Biso   1.000  H
  H69      1.0000 0.85120  0.38440  0.70250  Biso   1.000  H
  H70      1.0000 0.35120  0.88440  0.70250  Biso   1.000  H
  H71      1.0000 0.14880  0.38440  0.79750  Biso   1.000  H
  H72      1.0000 0.64880  0.88440  0.79750  Biso   1.000  H
  C121     1.0000 0.12982  0.21950  0.45220  Biso   1.000  C
  C122     1.0000 0.62982  0.71950  0.45220  Biso   1.000  C
  C123     1.0000 0.87018  0.21950  0.04780  Biso   1.000  C
  C124     1.0000 0.37018  0.71950  0.04780  Biso   1.000  C
  C125     1.0000 0.87018  0.78050  0.54780  Biso   1.000  C
  C126     1.0000 0.37018  0.28050  0.54780  Biso   1.000  C
  C127     1.0000 0.12982  0.78050  0.95220  Biso   1.000  C
  C128     1.0000 0.62982  0.28050  0.95220  Biso   1.000  C
  H73      1.0000 0.11640  0.25240  0.48050  Biso   1.000  H
  H74      1.0000 0.61640  0.75240  0.48050  Biso   1.000  H
  H75      1.0000 0.88360  0.25240  0.01950  Biso   1.000  H
  H76      1.0000 0.38360  0.75240  0.01950  Biso   1.000  H
  H77      1.0000 0.88360  0.74760  0.51950  Biso   1.000  H
  H78      1.0000 0.38360  0.24760  0.51950  Biso   1.000  H
  H79      1.0000 0.11640  0.74760  0.98050  Biso   1.000  H
  H80      1.0000 0.61640  0.24760  0.98050  Biso   1.000  H
  H81      1.0000 0.17150  0.20280  0.48520  Biso   1.000  H
  H82      1.0000 0.67150  0.70280  0.48520  Biso   1.000  H
  H83      1.0000 0.82850  0.20280  0.01480  Biso   1.000  H
  H84      1.0000 0.32850  0.70280  0.01480  Biso   1.000  H
  H85      1.0000 0.82850  0.79720  0.51480  Biso   1.000  H
  H86      1.0000 0.32850  0.29720  0.51480  Biso   1.000  H
  H87      1.0000 0.17150  0.79720  0.98520  Biso   1.000  H
  H88      1.0000 0.67150  0.29720  0.98520  Biso   1.000  H
  H89      1.0000 0.10940  0.13890  0.42760  Biso   1.000  H
  H90      1.0000 0.60940  0.63890  0.42760  Biso   1.000  H
  H91      1.0000 0.89060  0.13890  0.07240  Biso   1.000  H
  H92      1.0000 0.39060  0.63890  0.07240  Biso   1.000  H
  H93      1.0000 0.89060  0.86110  0.57240  Biso   1.000  H
  H94      1.0000 0.39060  0.36110  0.57240  Biso   1.000  H
  H95      1.0000 0.10940  0.86110  0.92760  Biso   1.000  H
  H96      1.0000 0.60940  0.36110  0.92760  Biso   1.000  H
  C129     1.0000 0.11387  0.84270  0.50260  Biso   1.000  C
  C130     1.0000 0.61387  0.34270  0.50260  Biso   1.000  C
  C131     1.0000 0.88613  0.84270  0.99740  Biso   1.000  C
  C132     1.0000 0.38613  0.34270  0.99740  Biso   1.000  C
  C133     1.0000 0.88613  0.15730  0.49740  Biso   1.000  C
  C134     1.0000 0.38613  0.65730  0.49740  Biso   1.000  C
  C135     1.0000 0.11387  0.15730  0.00260  Biso   1.000  C
  C136     1.0000 0.61387  0.65730  0.00260  Biso   1.000  C
  H97      1.0000 0.08140  0.82420  0.50260  Biso   1.000  H
  H98      1.0000 0.58140  0.32420  0.50260  Biso   1.000  H
  H99      1.0000 0.91860  0.82420  0.99740  Biso   1.000  H
  H100     1.0000 0.41860  0.32420  0.99740  Biso   1.000  H
  H101     1.0000 0.91860  0.17580  0.49740  Biso   1.000  H
  H102     1.0000 0.41860  0.67580  0.49740  Biso   1.000  H
  H103     1.0000 0.08140  0.17580  0.00260  Biso   1.000  H
  H104     1.0000 0.58140  0.67580  0.00260  Biso   1.000  H
  C137     1.0000 0.16158  0.83360  0.44340  Biso   1.000  C
  C138     1.0000 0.66158  0.33360  0.44340  Biso   1.000  C
  C139     1.0000 0.83842  0.83360  0.05660  Biso   1.000  C
  C140     1.0000 0.33842  0.33360  0.05660  Biso   1.000  C
  C141     1.0000 0.83842  0.16640  0.55660  Biso   1.000  C
  C142     1.0000 0.33842  0.66640  0.55660  Biso   1.000  C
  C143     1.0000 0.16158  0.16640  0.94340  Biso   1.000  C
  C144     1.0000 0.66158  0.66640  0.94340  Biso   1.000  C
  H105     1.0000 0.16150  0.81050  0.40270  Biso   1.000  H
  H106     1.0000 0.66150  0.31050  0.40270  Biso   1.000  H
  H107     1.0000 0.83850  0.81050  0.09730  Biso   1.000  H
  H108     1.0000 0.33850  0.31050  0.09730  Biso   1.000  H
  H109     1.0000 0.83850  0.18950  0.59730  Biso   1.000  H
  H110     1.0000 0.33850  0.68950  0.59730  Biso   1.000  H
  H111     1.0000 0.16150  0.18950  0.90270  Biso   1.000  H
  H112     1.0000 0.66150  0.68950  0.90270  Biso   1.000  H
  C145     1.0000 0.20950  0.93470  0.56300  Biso   1.000  C
  C146     1.0000 0.70950  0.43470  0.56300  Biso   1.000  C
  C147     1.0000 0.79050  0.93470  0.93700  Biso   1.000  C
  C148     1.0000 0.29050  0.43470  0.93700  Biso   1.000  C
  C149     1.0000 0.79050  0.06530  0.43700  Biso   1.000  C
  C150     1.0000 0.29050  0.56530  0.43700  Biso   1.000  C
  C151     1.0000 0.20950  0.06530  0.06300  Biso   1.000  C
  C152     1.0000 0.70950  0.56530  0.06300  Biso   1.000  C
  H113     1.0000 0.24190  0.97840  0.60350  Biso   1.000  H
  H114     1.0000 0.74190  0.47840  0.60350  Biso   1.000  H
  H115     1.0000 0.75810  0.97840  0.89650  Biso   1.000  H
  H116     1.0000 0.25810  0.47840  0.89650  Biso   1.000  H
  H117     1.0000 0.75810  0.02160  0.39650  Biso   1.000  H
  H118     1.0000 0.25810  0.52160  0.39650  Biso   1.000  H
  H119     1.0000 0.24190  0.02160  0.10350  Biso   1.000  H
  H120     1.0000 0.74190  0.52160  0.10350  Biso   1.000  H
  C153     1.0000 0.16210  0.90870  0.56290  Biso   1.000  C
  C154     1.0000 0.66210  0.40870  0.56290  Biso   1.000  C
  C155     1.0000 0.83790  0.90870  0.93710  Biso   1.000  C
  C156     1.0000 0.33790  0.40870  0.93710  Biso   1.000  C
  C157     1.0000 0.83790  0.09130  0.43710  Biso   1.000  C
  C158     1.0000 0.33790  0.59130  0.43710  Biso   1.000  C
  C159     1.0000 0.16210  0.09130  0.06290  Biso   1.000  C
  C160     1.0000 0.66210  0.59130  0.06290  Biso   1.000  C
  H121     1.0000 0.16180  0.93490  0.60300  Biso   1.000  H
  H122     1.0000 0.66180  0.43490  0.60300  Biso   1.000  H
  H123     1.0000 0.83820  0.93490  0.89700  Biso   1.000  H
  H124     1.0000 0.33820  0.43490  0.89700  Biso   1.000  H
  H125     1.0000 0.83820  0.06510  0.39700  Biso   1.000  H
  H126     1.0000 0.33820  0.56510  0.39700  Biso   1.000  H
  H127     1.0000 0.16180  0.06510  0.10300  Biso   1.000  H
  H128     1.0000 0.66180  0.56510  0.10300  Biso   1.000  H
  C161     1.0000 0.21049  0.89780  0.50440  Biso   1.000  C
  C162     1.0000 0.71049  0.39780  0.50440  Biso   1.000  C
  C163     1.0000 0.78951  0.89780  0.99560  Biso   1.000  C
  C164     1.0000 0.28951  0.39780  0.99560  Biso   1.000  C
  C165     1.0000 0.78951  0.10220  0.49560  Biso   1.000  C
  C166     1.0000 0.28951  0.60220  0.49560  Biso   1.000  C
  C167     1.0000 0.21049  0.10220  0.00440  Biso   1.000  C
  C168     1.0000 0.71049  0.60220  0.00440  Biso   1.000  C
  H129     1.0000 0.24350  0.91520  0.50520  Biso   1.000  H
  H130     1.0000 0.74350  0.41520  0.50520  Biso   1.000  H
  H131     1.0000 0.75650  0.91520  0.99480  Biso   1.000  H
  H132     1.0000 0.25650  0.41520  0.99480  Biso   1.000  H
  H133     1.0000 0.75650  0.08480  0.49480  Biso   1.000  H
  H134     1.0000 0.25650  0.58480  0.49480  Biso   1.000  H
  H135     1.0000 0.24350  0.08480  0.00520  Biso   1.000  H
  H136     1.0000 0.74350  0.58480  0.00520  Biso   1.000  H
  C169     1.0000 0.78975  0.53370  0.37780  Biso   1.000  C
  C170     1.0000 0.28975  0.03370  0.37780  Biso   1.000  C
  C171     1.0000 0.21025  0.53370  0.12220  Biso   1.000  C
  C172     1.0000 0.71025  0.03370  0.12220  Biso   1.000  C
  C173     1.0000 0.21025  0.46630  0.62220  Biso   1.000  C
  C174     1.0000 0.71025  0.96630  0.62220  Biso   1.000  C
  C175     1.0000 0.78975  0.46630  0.87780  Biso   1.000  C
  C176     1.0000 0.28975  0.96630  0.87780  Biso   1.000  C
  H137     1.0000 0.80340  0.46800  0.41380  Biso   1.000  H
  H138     1.0000 0.30340  0.96800  0.41380  Biso   1.000  H
  H139     1.0000 0.19660  0.46800  0.08620  Biso   1.000  H
  H140     1.0000 0.69660  0.96800  0.08620  Biso   1.000  H
  H141     1.0000 0.19660  0.53200  0.58620  Biso   1.000  H
  H142     1.0000 0.69660  0.03200  0.58620  Biso   1.000  H
  H143     1.0000 0.80340  0.53200  0.91380  Biso   1.000  H
  H144     1.0000 0.30340  0.03200  0.91380  Biso   1.000  H
  C177     1.0000 0.80758  0.69590  0.31630  Biso   1.000  C
  C178     1.0000 0.30758  0.19590  0.31630  Biso   1.000  C
  C179     1.0000 0.19242  0.69590  0.18370  Biso   1.000  C
  C180     1.0000 0.69242  0.19590  0.18370  Biso   1.000  C
  C181     1.0000 0.19242  0.30410  0.68370  Biso   1.000  C
  C182     1.0000 0.69242  0.80410  0.68370  Biso   1.000  C
  C183     1.0000 0.80758  0.30410  0.81630  Biso   1.000  C
  C184     1.0000 0.30758  0.80410  0.81630  Biso   1.000  C
  H145     1.0000 0.83330  0.74130  0.31010  Biso   1.000  H
  H146     1.0000 0.33330  0.24130  0.31010  Biso   1.000  H
  H147     1.0000 0.16670  0.74130  0.18990  Biso   1.000  H
  H148     1.0000 0.66670  0.24130  0.18990  Biso   1.000  H
  H149     1.0000 0.16670  0.25870  0.68990  Biso   1.000  H
  H150     1.0000 0.66670  0.75870  0.68990  Biso   1.000  H
  H151     1.0000 0.83330  0.25870  0.81010  Biso   1.000  H
  H152     1.0000 0.33330  0.75870  0.81010  Biso   1.000  H
  C185     1.0000 0.72980  0.56610  0.33160  Biso   1.000  C
  C186     1.0000 0.22980  0.06610  0.33160  Biso   1.000  C
  C187     1.0000 0.27020  0.56610  0.16840  Biso   1.000  C
  C188     1.0000 0.77020  0.06610  0.16840  Biso   1.000  C
  C189     1.0000 0.27020  0.43390  0.66840  Biso   1.000  C
  C190     1.0000 0.77020  0.93390  0.66840  Biso   1.000  C
  C191     1.0000 0.72980  0.43390  0.83160  Biso   1.000  C
  C192     1.0000 0.22980  0.93390  0.83160  Biso   1.000  C
  H153     1.0000 0.70360  0.52270  0.33770  Biso   1.000  H
  H154     1.0000 0.20360  0.02270  0.33770  Biso   1.000  H
  H155     1.0000 0.29640  0.52270  0.16230  Biso   1.000  H
  H156     1.0000 0.79640  0.02270  0.16230  Biso   1.000  H
  H157     1.0000 0.29640  0.47730  0.66230  Biso   1.000  H
  H158     1.0000 0.79640  0.97730  0.66230  Biso   1.000  H
  H159     1.0000 0.70360  0.47730  0.83770  Biso   1.000  H
  H160     1.0000 0.20360  0.97730  0.83770  Biso   1.000  H
  C193     1.0000 0.74780  0.72630  0.27120  Biso   1.000  C
  C194     1.0000 0.24780  0.22630  0.27120  Biso   1.000  C
  C195     1.0000 0.25220  0.72630  0.22880  Biso   1.000  C
  C196     1.0000 0.75220  0.22630  0.22880  Biso   1.000  C
  C197     1.0000 0.25220  0.27370  0.72880  Biso   1.000  C
  C198     1.0000 0.75220  0.77370  0.72880  Biso   1.000  C
  C199     1.0000 0.74780  0.27370  0.77120  Biso   1.000  C
  C200     1.0000 0.24780  0.77370  0.77120  Biso   1.000  C
  H161     1.0000 0.73390  0.79290  0.23560  Biso   1.000  H
  H162     1.0000 0.23390  0.29290  0.23560  Biso   1.000  H
  H163     1.0000 0.26610  0.79290  0.26440  Biso   1.000  H
  H164     1.0000 0.76610  0.29290  0.26440  Biso   1.000  H
  H165     1.0000 0.26610  0.20710  0.76440  Biso   1.000  H
  H166     1.0000 0.76610  0.70710  0.76440  Biso   1.000  H
  H167     1.0000 0.73390  0.20710  0.73560  Biso   1.000  H
  H168     1.0000 0.23390  0.70710  0.73560  Biso   1.000  H
  C201     1.0000 0.70960  0.65960  0.27860  Biso   1.000  C
  C202     1.0000 0.20960  0.15960  0.27860  Biso   1.000  C
  C203     1.0000 0.29040  0.65960  0.22140  Biso   1.000  C
  C204     1.0000 0.79040  0.15960  0.22140  Biso   1.000  C
  C205     1.0000 0.29040  0.34040  0.72140  Biso   1.000  C
  C206     1.0000 0.79040  0.84040  0.72140  Biso   1.000  C
  C207     1.0000 0.70960  0.34040  0.77860  Biso   1.000  C
  C208     1.0000 0.20960  0.84040  0.77860  Biso   1.000  C
  H169     1.0000 0.66940  0.67840  0.24700  Biso   1.000  H
  H170     1.0000 0.16940  0.17840  0.24700  Biso   1.000  H
  H171     1.0000 0.33060  0.67840  0.25300  Biso   1.000  H
  H172     1.0000 0.83060  0.17840  0.25300  Biso   1.000  H
  H173     1.0000 0.33060  0.32160  0.75300  Biso   1.000  H
  H174     1.0000 0.83060  0.82160  0.75300  Biso   1.000  H
  H175     1.0000 0.66940  0.32160  0.74700  Biso   1.000  H
  H176     1.0000 0.16940  0.82160  0.74700  Biso   1.000  H
  H177     1.0000 0.03430  0.38800  0.36400  Biso   1.000  H
  H178     1.0000 0.53430  0.88800  0.36400  Biso   1.000  H
  H179     1.0000 0.96570  0.38800  0.13600  Biso   1.000  H
  H180     1.0000 0.46570  0.88800  0.13600  Biso   1.000  H
  H181     1.0000 0.96570  0.61200  0.63600  Biso   1.000  H
  H182     1.0000 0.46570  0.11200  0.63600  Biso   1.000  H
  H183     1.0000 0.03430  0.61200  0.86400  Biso   1.000  H
  H184     1.0000 0.53430  0.11200  0.86400  Biso   1.000  H
