data_image0
_cell_length_a       9.5422
_cell_length_b       17.2975
_cell_length_c       11.6198
_cell_angle_alpha    90
_cell_angle_beta     92.983
_cell_angle_gamma    90

_symmetry_space_group_name_H-M    "P 1"
_symmetry_int_tables_number       1

loop_
  _symmetry_equiv_pos_as_xyz
  'x, y, z'

loop_
  _atom_site_label
  _atom_site_occupancy
  _atom_site_fract_x
  _atom_site_fract_y
  _atom_site_fract_z
  _atom_site_thermal_displace_type
  _atom_site_B_iso_or_equiv
  _atom_site_type_symbol
  Cu1      1.0000 0.90127  0.01226  0.41529  Biso   1.000  Cu
  Cu2      1.0000 0.09873  0.51226  0.08471  Biso   1.000  Cu
  Cu3      1.0000 0.09873  0.98774  0.58471  Biso   1.000  Cu
  Cu4      1.0000 0.90127  0.48774  0.91529  Biso   1.000  Cu
  N1       1.0000 0.73490  0.02844  0.28077  Biso   1.000  N
  N2       1.0000 0.26510  0.52844  0.21923  Biso   1.000  N
  N3       1.0000 0.26510  0.97156  0.71923  Biso   1.000  N
  N4       1.0000 0.73490  0.47156  0.78077  Biso   1.000  N
  N5       1.0000 0.59590  0.02563  0.29919  Biso   1.000  N
  N6       1.0000 0.40410  0.52563  0.20081  Biso   1.000  N
  N7       1.0000 0.40410  0.97437  0.70081  Biso   1.000  N
  N8       1.0000 0.59590  0.47437  0.79919  Biso   1.000  N
  O1       1.0000 0.02128  0.94294  0.32938  Biso   1.000  O
  O2       1.0000 0.97872  0.44294  0.17062  Biso   1.000  O
  O3       1.0000 0.97872  0.05706  0.67062  Biso   1.000  O
  O4       1.0000 0.02128  0.55706  0.82938  Biso   1.000  O
  O5       1.0000 0.02152  0.10036  0.37937  Biso   1.000  O
  O6       1.0000 0.97848  0.60036  0.12063  Biso   1.000  O
  O7       1.0000 0.97848  0.89964  0.62063  Biso   1.000  O
  O8       1.0000 0.02152  0.39964  0.87937  Biso   1.000  O
  O9       1.0000 0.18608  0.07961  0.51847  Biso   1.000  O
  O10      1.0000 0.81392  0.57961  0.98153  Biso   1.000  O
  O11      1.0000 0.81392  0.92039  0.48153  Biso   1.000  O
  O12      1.0000 0.18608  0.42039  0.01847  Biso   1.000  O
  O13      1.0000 0.18587  0.92248  0.46869  Biso   1.000  O
  O14      1.0000 0.81413  0.42248  0.03131  Biso   1.000  O
  O15      1.0000 0.81413  0.07752  0.53131  Biso   1.000  O
  O16      1.0000 0.18587  0.57752  0.96869  Biso   1.000  O
  O17      1.0000 0.53190  0.99970  0.40520  Biso   1.000  O
  O18      1.0000 0.46810  0.49970  0.09480  Biso   1.000  O
  O19      1.0000 0.46810  0.00030  0.59480  Biso   1.000  O
  O20      1.0000 0.53190  0.50030  0.90520  Biso   1.000  O
  O21      1.0000 0.49100  0.95770  0.49530  Biso   1.000  O
  O22      1.0000 0.50900  0.45770  0.00470  Biso   1.000  O
  O23      1.0000 0.50900  0.04230  0.50470  Biso   1.000  O
  O24      1.0000 0.49100  0.54230  0.99530  Biso   1.000  O
  C1       1.0000 0.12990  0.91053  0.37002  Biso   1.000  C
  C2       1.0000 0.87010  0.41053  0.12998  Biso   1.000  C
  C3       1.0000 0.87010  0.08947  0.62998  Biso   1.000  C
  C4       1.0000 0.12990  0.58947  0.87002  Biso   1.000  C
  C5       1.0000 0.19740  0.85140  0.29596  Biso   1.000  C
  C6       1.0000 0.80260  0.35140  0.20404  Biso   1.000  C
  C7       1.0000 0.80260  0.14860  0.70404  Biso   1.000  C
  C8       1.0000 0.19740  0.64860  0.79596  Biso   1.000  C
  C9       1.0000 0.14040  0.83630  0.18680  Biso   1.000  C
  C10      1.0000 0.85960  0.33630  0.31320  Biso   1.000  C
  C11      1.0000 0.85960  0.16370  0.81320  Biso   1.000  C
  C12      1.0000 0.14040  0.66370  0.68680  Biso   1.000  C
  H1       1.0000 0.06500  0.86530  0.15680  Biso   1.000  H
  H2       1.0000 0.93500  0.36530  0.34320  Biso   1.000  H
  H3       1.0000 0.93500  0.13470  0.84320  Biso   1.000  H
  H4       1.0000 0.06500  0.63470  0.65680  Biso   1.000  H
  C13      1.0000 0.19640  0.77750  0.12180  Biso   1.000  C
  C14      1.0000 0.80360  0.27750  0.37820  Biso   1.000  C
  C15      1.0000 0.80360  0.22250  0.87820  Biso   1.000  C
  C16      1.0000 0.19640  0.72250  0.62180  Biso   1.000  C
  H5       1.0000 0.15750  0.76710  0.04840  Biso   1.000  H
  H6       1.0000 0.84250  0.26710  0.45160  Biso   1.000  H
  H7       1.0000 0.84250  0.23290  0.95160  Biso   1.000  H
  H8       1.0000 0.15750  0.73290  0.54840  Biso   1.000  H
  C17      1.0000 0.30660  0.73535  0.16410  Biso   1.000  C
  C18      1.0000 0.69340  0.23535  0.33590  Biso   1.000  C
  C19      1.0000 0.69340  0.26465  0.83590  Biso   1.000  C
  C20      1.0000 0.30660  0.76465  0.66410  Biso   1.000  C
  H9       1.0000 0.34170  0.69530  0.12070  Biso   1.000  H
  H10      1.0000 0.65830  0.19530  0.37930  Biso   1.000  H
  H11      1.0000 0.65830  0.30470  0.87930  Biso   1.000  H
  H12      1.0000 0.34170  0.80470  0.62070  Biso   1.000  H
  C21      1.0000 0.36660  0.75180  0.27110  Biso   1.000  C
  C22      1.0000 0.63340  0.25180  0.22890  Biso   1.000  C
  C23      1.0000 0.63340  0.24820  0.72890  Biso   1.000  C
  C24      1.0000 0.36660  0.74820  0.77110  Biso   1.000  C
  H13      1.0000 0.44450  0.72400  0.29910  Biso   1.000  H
  H14      1.0000 0.55550  0.22400  0.20090  Biso   1.000  H
  H15      1.0000 0.55550  0.27600  0.70090  Biso   1.000  H
  H16      1.0000 0.44450  0.77600  0.79910  Biso   1.000  H
  C25      1.0000 0.31180  0.80948  0.33770  Biso   1.000  C
  C26      1.0000 0.68820  0.30948  0.16230  Biso   1.000  C
  C27      1.0000 0.68820  0.19052  0.66230  Biso   1.000  C
  C28      1.0000 0.31180  0.69052  0.83770  Biso   1.000  C
  H17      1.0000 0.35210  0.82000  0.41060  Biso   1.000  H
  H18      1.0000 0.64790  0.32000  0.08940  Biso   1.000  H
  H19      1.0000 0.64790  0.18000  0.58940  Biso   1.000  H
  H20      1.0000 0.35210  0.68000  0.91060  Biso   1.000  H
  C29      1.0000 0.13120  0.11806  0.43570  Biso   1.000  C
  C30      1.0000 0.86880  0.61806  0.06430  Biso   1.000  C
  C31      1.0000 0.86880  0.88194  0.56430  Biso   1.000  C
  C32      1.0000 0.13120  0.38194  0.93570  Biso   1.000  C
  C33      1.0000 0.20320  0.19194  0.40450  Biso   1.000  C
  C34      1.0000 0.79680  0.69194  0.09550  Biso   1.000  C
  C35      1.0000 0.79680  0.80806  0.59550  Biso   1.000  C
  C36      1.0000 0.20320  0.30806  0.90450  Biso   1.000  C
  C37      1.0000 0.15820  0.23293  0.30860  Biso   1.000  C
  C38      1.0000 0.84180  0.73293  0.19140  Biso   1.000  C
  C39      1.0000 0.84180  0.76707  0.69140  Biso   1.000  C
  C40      1.0000 0.15820  0.26707  0.80860  Biso   1.000  C
  H21      1.0000 0.08550  0.21380  0.26040  Biso   1.000  H
  H22      1.0000 0.91450  0.71380  0.23960  Biso   1.000  H
  H23      1.0000 0.91450  0.78620  0.73960  Biso   1.000  H
  H24      1.0000 0.08550  0.28620  0.76040  Biso   1.000  H
  C41      1.0000 0.22100  0.30300  0.28300  Biso   1.000  C
  C42      1.0000 0.77900  0.80300  0.21700  Biso   1.000  C
  C43      1.0000 0.77900  0.69700  0.71700  Biso   1.000  C
  C44      1.0000 0.22100  0.19700  0.78300  Biso   1.000  C
  H25      1.0000 0.18980  0.33120  0.21850  Biso   1.000  H
  H26      1.0000 0.81020  0.83120  0.28150  Biso   1.000  H
  H27      1.0000 0.81020  0.66880  0.78150  Biso   1.000  H
  H28      1.0000 0.18980  0.16880  0.71850  Biso   1.000  H
  C45      1.0000 0.33020  0.33030  0.35450  Biso   1.000  C
  C46      1.0000 0.66980  0.83030  0.14550  Biso   1.000  C
  C47      1.0000 0.66980  0.66970  0.64550  Biso   1.000  C
  C48      1.0000 0.33020  0.16970  0.85450  Biso   1.000  C
  H29      1.0000 0.37280  0.37700  0.33790  Biso   1.000  H
  H30      1.0000 0.62720  0.87700  0.16210  Biso   1.000  H
  H31      1.0000 0.62720  0.62300  0.66210  Biso   1.000  H
  H32      1.0000 0.37280  0.12300  0.83790  Biso   1.000  H
  C49      1.0000 0.37550  0.28950  0.44810  Biso   1.000  C
  C50      1.0000 0.62450  0.78950  0.05190  Biso   1.000  C
  C51      1.0000 0.62450  0.71050  0.55190  Biso   1.000  C
  C52      1.0000 0.37550  0.21050  0.94810  Biso   1.000  C
  H33      1.0000 0.44870  0.30860  0.49600  Biso   1.000  H
  H34      1.0000 0.55130  0.80860  0.00400  Biso   1.000  H
  H35      1.0000 0.55130  0.69140  0.50400  Biso   1.000  H
  H36      1.0000 0.44870  0.19140  0.99600  Biso   1.000  H
  C53      1.0000 0.31410  0.21972  0.47350  Biso   1.000  C
  C54      1.0000 0.68590  0.71972  0.02650  Biso   1.000  C
  C55      1.0000 0.68590  0.78028  0.52650  Biso   1.000  C
  C56      1.0000 0.31410  0.28028  0.97350  Biso   1.000  C
  H37      1.0000 0.34760  0.19140  0.53710  Biso   1.000  H
  H38      1.0000 0.65240  0.69140  0.96290  Biso   1.000  H
  H39      1.0000 0.65240  0.80860  0.46290  Biso   1.000  H
  H40      1.0000 0.34760  0.30860  0.03710  Biso   1.000  H
  C57      1.0000 0.88120  0.05220  0.11770  Biso   1.000  C
  C58      1.0000 0.11880  0.55220  0.38230  Biso   1.000  C
  C59      1.0000 0.11880  0.94780  0.88230  Biso   1.000  C
  C60      1.0000 0.88120  0.44780  0.61770  Biso   1.000  C
  H41      1.0000 0.94950  0.07140  0.17420  Biso   1.000  H
  H42      1.0000 0.05050  0.57140  0.32580  Biso   1.000  H
  H43      1.0000 0.05050  0.92860  0.82580  Biso   1.000  H
  H44      1.0000 0.94950  0.42860  0.67420  Biso   1.000  H
  H45      1.0000 0.87300  0.08750  0.05390  Biso   1.000  H
  H46      1.0000 0.12700  0.58750  0.44610  Biso   1.000  H
  H47      1.0000 0.12700  0.91250  0.94610  Biso   1.000  H
  H48      1.0000 0.87300  0.41250  0.55390  Biso   1.000  H
  H49      1.0000 0.91010  0.00250  0.09100  Biso   1.000  H
  H50      1.0000 0.08990  0.50250  0.40900  Biso   1.000  H
  H51      1.0000 0.08990  0.99750  0.90900  Biso   1.000  H
  H52      1.0000 0.91010  0.49750  0.59100  Biso   1.000  H
  C61      1.0000 0.74210  0.04489  0.17064  Biso   1.000  C
  C62      1.0000 0.25790  0.54489  0.32936  Biso   1.000  C
  C63      1.0000 0.25790  0.95511  0.82936  Biso   1.000  C
  C64      1.0000 0.74210  0.45511  0.67064  Biso   1.000  C
  C65      1.0000 0.60820  0.05296  0.11890  Biso   1.000  C
  C66      1.0000 0.39180  0.55296  0.38110  Biso   1.000  C
  C67      1.0000 0.39180  0.94704  0.88110  Biso   1.000  C
  C68      1.0000 0.60820  0.44704  0.61890  Biso   1.000  C
  H53      1.0000 0.58560  0.06430  0.04190  Biso   1.000  H
  H54      1.0000 0.41440  0.56430  0.45810  Biso   1.000  H
  H55      1.0000 0.41440  0.93570  0.95810  Biso   1.000  H
  H56      1.0000 0.58560  0.43570  0.54190  Biso   1.000  H
  C69      1.0000 0.51700  0.04110  0.20290  Biso   1.000  C
  C70      1.0000 0.48300  0.54110  0.29710  Biso   1.000  C
  C71      1.0000 0.48300  0.95890  0.79710  Biso   1.000  C
  C72      1.0000 0.51700  0.45890  0.70290  Biso   1.000  C
  C73      1.0000 0.35800  0.04220  0.20100  Biso   1.000  C
  C74      1.0000 0.64200  0.54220  0.29900  Biso   1.000  C
  C75      1.0000 0.64200  0.95780  0.79900  Biso   1.000  C
  C76      1.0000 0.35800  0.45780  0.70100  Biso   1.000  C
  H57      1.0000 0.32800  0.07320  0.26370  Biso   1.000  H
  H58      1.0000 0.67200  0.57320  0.23630  Biso   1.000  H
  H59      1.0000 0.67200  0.92680  0.73630  Biso   1.000  H
  H60      1.0000 0.32800  0.42680  0.76370  Biso   1.000  H
  H61      1.0000 0.32370  0.99040  0.20870  Biso   1.000  H
  H62      1.0000 0.67630  0.49040  0.29130  Biso   1.000  H
  H63      1.0000 0.67630  0.00960  0.79130  Biso   1.000  H
  H64      1.0000 0.32370  0.50960  0.70870  Biso   1.000  H
  H65      1.0000 0.32170  0.06370  0.12930  Biso   1.000  H
  H66      1.0000 0.67830  0.56370  0.37070  Biso   1.000  H
  H67      1.0000 0.67830  0.93630  0.87070  Biso   1.000  H
  H68      1.0000 0.32170  0.43630  0.62930  Biso   1.000  H
