data_image0
_cell_length_a       9.6137
_cell_length_b       12.034
_cell_length_c       14.482
_cell_angle_alpha    113.627
_cell_angle_beta     101.178
_cell_angle_gamma    102.45

_symmetry_space_group_name_H-M    "P 1"
_symmetry_int_tables_number       1

loop_
  _symmetry_equiv_pos_as_xyz
  'x, y, z'

loop_
  _atom_site_label
  _atom_site_occupancy
  _atom_site_fract_x
  _atom_site_fract_y
  _atom_site_fract_z
  _atom_site_thermal_displace_type
  _atom_site_B_iso_or_equiv
  _atom_site_type_symbol
  Cu1      1.0000 0.00000  0.00000  0.00000  Biso   1.000  Cu
  Cu2      1.0000 0.00000  0.00000  0.50000  Biso   1.000  Cu
  Cr1      1.0000 0.99500  0.10719  0.28048  Biso   1.000  Cr
  Cr2      1.0000 0.00500  0.89281  0.71952  Biso   1.000  Cr
  O1       1.0000 0.02470  0.01310  0.17420  Biso   1.000  O
  O2       1.0000 0.97530  0.98690  0.82580  Biso   1.000  O
  O3       1.0000 0.81340  0.05110  0.26380  Biso   1.000  O
  O4       1.0000 0.18660  0.94890  0.73620  Biso   1.000  O
  O5       1.0000 0.03700  0.24970  0.28880  Biso   1.000  O
  O6       1.0000 0.96300  0.75030  0.71120  Biso   1.000  O
  O7       1.0000 0.08890  0.10240  0.38490  Biso   1.000  O
  O8       1.0000 0.91110  0.89760  0.61510  Biso   1.000  O
  O9       1.0000 0.38570  0.10020  0.34260  Biso   1.000  O
  O10      1.0000 0.61430  0.89980  0.65740  Biso   1.000  O
  O11      1.0000 0.59870  0.14480  0.25730  Biso   1.000  O
  O12      1.0000 0.40130  0.85520  0.74270  Biso   1.000  O
  O13      1.0000 0.81220  0.38470  0.32640  Biso   1.000  O
  O14      1.0000 0.18780  0.61530  0.67360  Biso   1.000  O
  O15      1.0000 0.50140  0.64570  0.48700  Biso   1.000  O
  O16      1.0000 0.49860  0.35430  0.51300  Biso   1.000  O
  O17      1.0000 0.24610  0.45280  0.49190  Biso   1.000  O
  O18      1.0000 0.75390  0.54720  0.50810  Biso   1.000  O
  N1       1.0000 0.20070  0.98070  0.04130  Biso   1.000  N
  N2       1.0000 0.79930  0.01930  0.95870  Biso   1.000  N
  H1       1.0000 0.21660  0.99330  0.10930  Biso   1.000  H
  H2       1.0000 0.78340  0.00670  0.89070  Biso   1.000  H
  N3       1.0000 0.07810  0.19450  0.07300  Biso   1.000  N
  N4       1.0000 0.92190  0.80550  0.92700  Biso   1.000  N
  H3       1.0000 0.91880  0.78240  0.85850  Biso   1.000  H
  H4       1.0000 0.08120  0.21760  0.14150  Biso   1.000  H
  N5       1.0000 0.78820  0.98590  0.43000  Biso   1.000  N
  N6       1.0000 0.21180  0.01410  0.57000  Biso   1.000  N
  H5       1.0000 0.79210  0.00710  0.37660  Biso   1.000  H
  H6       1.0000 0.20790  0.99290  0.62340  Biso   1.000  H
  N7       1.0000 0.93600  0.81250  0.40760  Biso   1.000  N
  N8       1.0000 0.06400  0.18750  0.59240  Biso   1.000  N
  H7       1.0000 0.91370  0.77780  0.45060  Biso   1.000  H
  H8       1.0000 0.08630  0.22220  0.54940  Biso   1.000  H
  C1       1.0000 0.75740  0.73480  0.01930  Biso   1.000  C
  C2       1.0000 0.24260  0.26520  0.98070  Biso   1.000  C
  H9       1.0000 0.82640  0.69660  0.04140  Biso   1.000  H
  H10      1.0000 0.17360  0.30340  0.95860  Biso   1.000  H
  H11      1.0000 0.65740  0.68780  0.01060  Biso   1.000  H
  H12      1.0000 0.34260  0.31220  0.98940  Biso   1.000  H
  H13      1.0000 0.78340  0.82220  0.07210  Biso   1.000  H
  H14      1.0000 0.21660  0.17780  0.92790  Biso   1.000  H
  C3       1.0000 0.23490  0.26850  0.08080  Biso   1.000  C
  C4       1.0000 0.76510  0.73150  0.91920  Biso   1.000  C
  H15      1.0000 0.73830  0.64180  0.86600  Biso   1.000  H
  H16      1.0000 0.26170  0.35820  0.13400  Biso   1.000  H
  C5       1.0000 0.34080  0.20780  0.12140  Biso   1.000  C
  C6       1.0000 0.65920  0.79220  0.87860  Biso   1.000  C
  H17      1.0000 0.67710  0.79330  0.81530  Biso   1.000  H
  H18      1.0000 0.32290  0.20670  0.18470  Biso   1.000  H
  H19      1.0000 0.55710  0.73680  0.85760  Biso   1.000  H
  H20      1.0000 0.44290  0.26320  0.14240  Biso   1.000  H
  C7       1.0000 0.32970  0.07420  0.04620  Biso   1.000  C
  C8       1.0000 0.67030  0.92580  0.95380  Biso   1.000  C
  H21      1.0000 0.57970  0.94320  0.93020  Biso   1.000  H
  H22      1.0000 0.42030  0.05680  0.06980  Biso   1.000  H
  H23      1.0000 0.67970  0.93290  0.02400  Biso   1.000  H
  H24      1.0000 0.32030  0.06710  0.97600  Biso   1.000  H
  C9       1.0000 0.18970  0.84390  0.97900  Biso   1.000  C
  C10      1.0000 0.81030  0.15610  0.02100  Biso   1.000  C
  H25      1.0000 0.19380  0.82930  0.90810  Biso   1.000  H
  H26      1.0000 0.80620  0.17070  0.09190  Biso   1.000  H
  C11      1.0000 0.31570  0.80710  0.03020  Biso   1.000  C
  C12      1.0000 0.68430  0.19290  0.96980  Biso   1.000  C
  H27      1.0000 0.31700  0.82710  0.10230  Biso   1.000  H
  H28      1.0000 0.68300  0.17290  0.89770  Biso   1.000  H
  H29      1.0000 0.41130  0.85810  0.03350  Biso   1.000  H
  H30      1.0000 0.58870  0.14190  0.96650  Biso   1.000  H
  C13      1.0000 0.29780  0.66860  0.97080  Biso   1.000  C
  C14      1.0000 0.70220  0.33140  0.02920  Biso   1.000  C
  H31      1.0000 0.31040  0.65050  0.90190  Biso   1.000  H
  H32      1.0000 0.68960  0.34950  0.09810  Biso   1.000  H
  H33      1.0000 0.37480  0.64870  0.00930  Biso   1.000  H
  H34      1.0000 0.62520  0.35130  0.99070  Biso   1.000  H
  C15      1.0000 0.14240  0.58370  0.95580  Biso   1.000  C
  C16      1.0000 0.85760  0.41630  0.04420  Biso   1.000  C
  H35      1.0000 0.13520  0.59240  0.02410  Biso   1.000  H
  H36      1.0000 0.86480  0.40760  0.97590  Biso   1.000  H
  H37      1.0000 0.12930  0.49450  0.91090  Biso   1.000  H
  H38      1.0000 0.87070  0.50550  0.08910  Biso   1.000  H
  C17      1.0000 0.02170  0.62120  0.90630  Biso   1.000  C
  C18      1.0000 0.97830  0.37880  0.09370  Biso   1.000  C
  H39      1.0000 0.02250  0.60320  0.83490  Biso   1.000  H
  H40      1.0000 0.97750  0.39680  0.16510  Biso   1.000  H
  H41      1.0000 0.92520  0.56940  0.90110  Biso   1.000  H
  H42      1.0000 0.07480  0.43060  0.09890  Biso   1.000  H
  C19      1.0000 0.03920  0.76020  0.96780  Biso   1.000  C
  C20      1.0000 0.96080  0.23980  0.03220  Biso   1.000  C
  H43      1.0000 0.03880  0.77530  0.03950  Biso   1.000  H
  H44      1.0000 0.96120  0.22470  0.96050  Biso   1.000  H
  C21      1.0000 0.07120  0.77720  0.27270  Biso   1.000  C
  C22      1.0000 0.92880  0.22280  0.72730  Biso   1.000  C
  H45      1.0000 0.97660  0.74730  0.21900  Biso   1.000  H
  H46      1.0000 0.02340  0.25270  0.78100  Biso   1.000  H
  H47      1.0000 0.11540  0.86810  0.29970  Biso   1.000  H
  H48      1.0000 0.88460  0.13190  0.70030  Biso   1.000  H
  H49      1.0000 0.13690  0.73450  0.24260  Biso   1.000  H
  H50      1.0000 0.86310  0.26550  0.75740  Biso   1.000  H
  C23      1.0000 0.04730  0.74890  0.36150  Biso   1.000  C
  C24      1.0000 0.95270  0.25110  0.63850  Biso   1.000  C
  H51      1.0000 0.00220  0.65580  0.33210  Biso   1.000  H
  H52      1.0000 0.99780  0.34420  0.66790  Biso   1.000  H
  C25      1.0000 0.18520  0.79160  0.45040  Biso   1.000  C
  C26      1.0000 0.81480  0.20840  0.54960  Biso   1.000  C
  H53      1.0000 0.15630  0.77280  0.50450  Biso   1.000  H
  H54      1.0000 0.84370  0.22720  0.49550  Biso   1.000  H
  H55      1.0000 0.24710  0.74000  0.42430  Biso   1.000  H
  H56      1.0000 0.75290  0.26000  0.57570  Biso   1.000  H
  C27      1.0000 0.72010  0.07050  0.49770  Biso   1.000  C
  C28      1.0000 0.27990  0.92950  0.50230  Biso   1.000  C
  H57      1.0000 0.70560  0.04560  0.55200  Biso   1.000  H
  H58      1.0000 0.29440  0.95440  0.44800  Biso   1.000  H
  H59      1.0000 0.62240  0.05980  0.45500  Biso   1.000  H
  H60      1.0000 0.37760  0.94020  0.54500  Biso   1.000  H
  C29      1.0000 0.69570  0.85010  0.37970  Biso   1.000  C
  C30      1.0000 0.30430  0.14990  0.62030  Biso   1.000  C
  H61      1.0000 0.67930  0.82800  0.43590  Biso   1.000  H
  H62      1.0000 0.32070  0.17200  0.56410  Biso   1.000  H
  C31      1.0000 0.54460  0.81600  0.30250  Biso   1.000  C
  C32      1.0000 0.45540  0.18400  0.69750  Biso   1.000  C
  H63      1.0000 0.55870  0.84730  0.25160  Biso   1.000  H
  H64      1.0000 0.44130  0.15270  0.74840  Biso   1.000  H
  H65      1.0000 0.48460  0.85970  0.34100  Biso   1.000  H
  H66      1.0000 0.51540  0.14030  0.65900  Biso   1.000  H
  C33      1.0000 0.45870  0.67280  0.24250  Biso   1.000  C
  C34      1.0000 0.54130  0.32720  0.75750  Biso   1.000  C
  H67      1.0000 0.42440  0.64490  0.29070  Biso   1.000  H
  H68      1.0000 0.57560  0.35510  0.70930  Biso   1.000  H
  H69      1.0000 0.37110  0.65690  0.18680  Biso   1.000  H
  H70      1.0000 0.62890  0.34310  0.81320  Biso   1.000  H
  C35      1.0000 0.55240  0.59610  0.19440  Biso   1.000  C
  C36      1.0000 0.44760  0.40390  0.80560  Biso   1.000  C
  H71      1.0000 0.49730  0.50570  0.16560  Biso   1.000  H
  H72      1.0000 0.50270  0.49430  0.83440  Biso   1.000  H
  H73      1.0000 0.56900  0.61140  0.13590  Biso   1.000  H
  H74      1.0000 0.43100  0.38860  0.86410  Biso   1.000  H
  C37      1.0000 0.70040  0.62650  0.27060  Biso   1.000  C
  C38      1.0000 0.29960  0.37350  0.72940  Biso   1.000  C
  H75      1.0000 0.75920  0.57940  0.23340  Biso   1.000  H
  H76      1.0000 0.24080  0.42060  0.76660  Biso   1.000  H
  H77      1.0000 0.68570  0.60090  0.32450  Biso   1.000  H
  H78      1.0000 0.31430  0.39910  0.67550  Biso   1.000  H
  C39      1.0000 0.78290  0.76900  0.32210  Biso   1.000  C
  C40      1.0000 0.21710  0.23100  0.67790  Biso   1.000  C
  H79      1.0000 0.80110  0.79190  0.26670  Biso   1.000  H
  H80      1.0000 0.19890  0.20810  0.73330  Biso   1.000  H
