data_image0
_cell_length_a       6.744
_cell_length_b       19.885
_cell_length_c       20.572
_cell_angle_alpha    90
_cell_angle_beta     90
_cell_angle_gamma    90

_symmetry_space_group_name_H-M    "P 1"
_symmetry_int_tables_number       1

loop_
  _symmetry_equiv_pos_as_xyz
  'x, y, z'

loop_
  _atom_site_label
  _atom_site_occupancy
  _atom_site_fract_x
  _atom_site_fract_y
  _atom_site_fract_z
  _atom_site_thermal_displace_type
  _atom_site_B_iso_or_equiv
  _atom_site_type_symbol
  Cu1      1.0000 0.94018  0.19030  0.48541  Biso   1.000  Cu
  Cu2      1.0000 0.55982  0.80970  0.98541  Biso   1.000  Cu
  Cu3      1.0000 0.05982  0.69030  0.01459  Biso   1.000  Cu
  Cu4      1.0000 0.44018  0.30970  0.51459  Biso   1.000  Cu
  Cu5      1.0000 0.05982  0.80970  0.51459  Biso   1.000  Cu
  Cu6      1.0000 0.44018  0.19030  0.01459  Biso   1.000  Cu
  Cu7      1.0000 0.94018  0.30970  0.98541  Biso   1.000  Cu
  Cu8      1.0000 0.55982  0.69030  0.48541  Biso   1.000  Cu
  Cl1      1.0000 0.57253  0.94897  0.71796  Biso   1.000  Cl
  Cl2      1.0000 0.92747  0.05103  0.21796  Biso   1.000  Cl
  Cl3      1.0000 0.42747  0.44897  0.78204  Biso   1.000  Cl
  Cl4      1.0000 0.07253  0.55103  0.28204  Biso   1.000  Cl
  Cl5      1.0000 0.42747  0.05103  0.28204  Biso   1.000  Cl
  Cl6      1.0000 0.07253  0.94897  0.78204  Biso   1.000  Cl
  Cl7      1.0000 0.57253  0.55103  0.21796  Biso   1.000  Cl
  Cl8      1.0000 0.92747  0.44897  0.71796  Biso   1.000  Cl
  O1       1.0000 0.94049  0.17199  0.57658  Biso   1.000  O
  O2       1.0000 0.55951  0.82801  0.07658  Biso   1.000  O
  O3       1.0000 0.05951  0.67199  0.92342  Biso   1.000  O
  O4       1.0000 0.44049  0.32801  0.42342  Biso   1.000  O
  O5       1.0000 0.05951  0.82801  0.42342  Biso   1.000  O
  O6       1.0000 0.44049  0.17199  0.92342  Biso   1.000  O
  O7       1.0000 0.94049  0.32801  0.07658  Biso   1.000  O
  O8       1.0000 0.55951  0.67199  0.57658  Biso   1.000  O
  N1       1.0000 0.85480  0.09945  0.46330  Biso   1.000  N
  N2       1.0000 0.64520  0.90055  0.96330  Biso   1.000  N
  N3       1.0000 0.14520  0.59945  0.03670  Biso   1.000  N
  N4       1.0000 0.35480  0.40055  0.53670  Biso   1.000  N
  N5       1.0000 0.14520  0.90055  0.53670  Biso   1.000  N
  N6       1.0000 0.35480  0.09945  0.03670  Biso   1.000  N
  N7       1.0000 0.85480  0.40055  0.96330  Biso   1.000  N
  N8       1.0000 0.64520  0.59945  0.46330  Biso   1.000  N
  N9       1.0000 0.93850  0.20569  0.38542  Biso   1.000  N
  N10      1.0000 0.56150  0.79431  0.88542  Biso   1.000  N
  N11      1.0000 0.06150  0.70569  0.11458  Biso   1.000  N
  N12      1.0000 0.43850  0.29431  0.61458  Biso   1.000  N
  N13      1.0000 0.06150  0.79431  0.61458  Biso   1.000  N
  N14      1.0000 0.43850  0.20569  0.11458  Biso   1.000  N
  N15      1.0000 0.93850  0.29431  0.88542  Biso   1.000  N
  N16      1.0000 0.56150  0.70569  0.38542  Biso   1.000  N
  N17      1.0000 0.06240  0.27883  0.50315  Biso   1.000  N
  N18      1.0000 0.43760  0.72117  0.00315  Biso   1.000  N
  N19      1.0000 0.93760  0.77883  0.99685  Biso   1.000  N
  N20      1.0000 0.56240  0.22117  0.49685  Biso   1.000  N
  N21      1.0000 0.93760  0.72117  0.49685  Biso   1.000  N
  N22      1.0000 0.56240  0.27883  0.99685  Biso   1.000  N
  N23      1.0000 0.06240  0.22117  0.00315  Biso   1.000  N
  N24      1.0000 0.43760  0.77883  0.50315  Biso   1.000  N
  N25      1.0000 0.95540  0.32667  0.50743  Biso   1.000  N
  N26      1.0000 0.54460  0.67333  0.00743  Biso   1.000  N
  N27      1.0000 0.04460  0.82667  0.99257  Biso   1.000  N
  N28      1.0000 0.45540  0.17333  0.49257  Biso   1.000  N
  N29      1.0000 0.04460  0.67333  0.49257  Biso   1.000  N
  N30      1.0000 0.45540  0.32667  0.99257  Biso   1.000  N
  N31      1.0000 0.95540  0.17333  0.00743  Biso   1.000  N
  N32      1.0000 0.54460  0.82667  0.50743  Biso   1.000  N
  N33      1.0000 0.85840  0.37395  0.51167  Biso   1.000  N
  N34      1.0000 0.64160  0.62605  0.01167  Biso   1.000  N
  N35      1.0000 0.14160  0.87395  0.98833  Biso   1.000  N
  N36      1.0000 0.35840  0.12605  0.48833  Biso   1.000  N
  N37      1.0000 0.14160  0.62605  0.48833  Biso   1.000  N
  N38      1.0000 0.35840  0.37395  0.98833  Biso   1.000  N
  N39      1.0000 0.85840  0.12605  0.01167  Biso   1.000  N
  N40      1.0000 0.64160  0.87395  0.51167  Biso   1.000  N
  C1       1.0000 0.78340  0.06317  0.57267  Biso   1.000  C
  C2       1.0000 0.71660  0.93683  0.07267  Biso   1.000  C
  C3       1.0000 0.21660  0.56317  0.92733  Biso   1.000  C
  C4       1.0000 0.28340  0.43683  0.42733  Biso   1.000  C
  C5       1.0000 0.21660  0.93683  0.42733  Biso   1.000  C
  C6       1.0000 0.28340  0.06317  0.92733  Biso   1.000  C
  C7       1.0000 0.78340  0.43683  0.07267  Biso   1.000  C
  C8       1.0000 0.71660  0.56317  0.57267  Biso   1.000  C
  C9       1.0000 0.86070  0.12049  0.60542  Biso   1.000  C
  C10      1.0000 0.63930  0.87951  0.10542  Biso   1.000  C
  C11      1.0000 0.13930  0.62049  0.89458  Biso   1.000  C
  C12      1.0000 0.36070  0.37951  0.39458  Biso   1.000  C
  C13      1.0000 0.13930  0.87951  0.39458  Biso   1.000  C
  C14      1.0000 0.36070  0.12049  0.89458  Biso   1.000  C
  C15      1.0000 0.86070  0.37951  0.10542  Biso   1.000  C
  C16      1.0000 0.63930  0.62049  0.60542  Biso   1.000  C
  C17      1.0000 0.84680  0.12075  0.67411  Biso   1.000  C
  C18      1.0000 0.65320  0.87925  0.17411  Biso   1.000  C
  C19      1.0000 0.15320  0.62075  0.82589  Biso   1.000  C
  C20      1.0000 0.34680  0.37925  0.32589  Biso   1.000  C
  C21      1.0000 0.15320  0.87925  0.32589  Biso   1.000  C
  C22      1.0000 0.34680  0.12075  0.82589  Biso   1.000  C
  C23      1.0000 0.84680  0.37925  0.17411  Biso   1.000  C
  C24      1.0000 0.65320  0.62075  0.67411  Biso   1.000  C
  H1       1.0000 0.89870  0.15700  0.69700  Biso   1.000  H
  H2       1.0000 0.60130  0.84300  0.19700  Biso   1.000  H
  H3       1.0000 0.10130  0.65700  0.80300  Biso   1.000  H
  H4       1.0000 0.39870  0.34300  0.30300  Biso   1.000  H
  H5       1.0000 0.10130  0.84300  0.30300  Biso   1.000  H
  H6       1.0000 0.39870  0.15700  0.80300  Biso   1.000  H
  H7       1.0000 0.89870  0.34300  0.19700  Biso   1.000  H
  H8       1.0000 0.60130  0.65700  0.69700  Biso   1.000  H
  C25      1.0000 0.75960  0.06953  0.70796  Biso   1.000  C
  C26      1.0000 0.74040  0.93047  0.20796  Biso   1.000  C
  C27      1.0000 0.24040  0.56953  0.79204  Biso   1.000  C
  C28      1.0000 0.25960  0.43047  0.29204  Biso   1.000  C
  C29      1.0000 0.24040  0.93047  0.29204  Biso   1.000  C
  C30      1.0000 0.25960  0.06953  0.79204  Biso   1.000  C
  C31      1.0000 0.75960  0.43047  0.20796  Biso   1.000  C
  C32      1.0000 0.74040  0.56953  0.70796  Biso   1.000  C
  H9       1.0000 0.75220  0.07130  0.75310  Biso   1.000  H
  H10      1.0000 0.74780  0.92870  0.25310  Biso   1.000  H
  H11      1.0000 0.24780  0.57130  0.74690  Biso   1.000  H
  H12      1.0000 0.25220  0.42870  0.24690  Biso   1.000  H
  H13      1.0000 0.24780  0.92870  0.24690  Biso   1.000  H
  H14      1.0000 0.25220  0.07130  0.74690  Biso   1.000  H
  H15      1.0000 0.75220  0.42870  0.25310  Biso   1.000  H
  H16      1.0000 0.74780  0.57130  0.75310  Biso   1.000  H
  C33      1.0000 0.68190  0.01466  0.67455  Biso   1.000  C
  C34      1.0000 0.81810  0.98534  0.17455  Biso   1.000  C
  C35      1.0000 0.31810  0.51466  0.82545  Biso   1.000  C
  C36      1.0000 0.18190  0.48534  0.32545  Biso   1.000  C
  C37      1.0000 0.31810  0.98534  0.32545  Biso   1.000  C
  C38      1.0000 0.18190  0.01466  0.82545  Biso   1.000  C
  C39      1.0000 0.68190  0.48534  0.17455  Biso   1.000  C
  C40      1.0000 0.81810  0.51466  0.67455  Biso   1.000  C
  C41      1.0000 0.69420  0.01100  0.60876  Biso   1.000  C
  C42      1.0000 0.80580  0.98900  0.10876  Biso   1.000  C
  C43      1.0000 0.30580  0.51100  0.89124  Biso   1.000  C
  C44      1.0000 0.19420  0.48900  0.39124  Biso   1.000  C
  C45      1.0000 0.30580  0.98900  0.39124  Biso   1.000  C
  C46      1.0000 0.19420  0.01100  0.89124  Biso   1.000  C
  C47      1.0000 0.69420  0.48900  0.10876  Biso   1.000  C
  C48      1.0000 0.80580  0.51100  0.60876  Biso   1.000  C
  H17      1.0000 0.64330  0.97370  0.58730  Biso   1.000  H
  H18      1.0000 0.85670  0.02630  0.08730  Biso   1.000  H
  H19      1.0000 0.35670  0.47370  0.91270  Biso   1.000  H
  H20      1.0000 0.14330  0.52630  0.41270  Biso   1.000  H
  H21      1.0000 0.35670  0.02630  0.41270  Biso   1.000  H
  H22      1.0000 0.14330  0.97370  0.91270  Biso   1.000  H
  H23      1.0000 0.64330  0.52630  0.08730  Biso   1.000  H
  H24      1.0000 0.85670  0.47370  0.58730  Biso   1.000  H
  C49      1.0000 0.78930  0.05566  0.50327  Biso   1.000  C
  C50      1.0000 0.71070  0.94434  0.00327  Biso   1.000  C
  C51      1.0000 0.21070  0.55566  0.99673  Biso   1.000  C
  C52      1.0000 0.28930  0.44434  0.49673  Biso   1.000  C
  C53      1.0000 0.21070  0.94434  0.49673  Biso   1.000  C
  C54      1.0000 0.28930  0.05566  0.99673  Biso   1.000  C
  C55      1.0000 0.78930  0.44434  0.00327  Biso   1.000  C
  C56      1.0000 0.71070  0.55566  0.50327  Biso   1.000  C
  H25      1.0000 0.74140  0.01560  0.48600  Biso   1.000  H
  H26      1.0000 0.75860  0.98440  0.98600  Biso   1.000  H
  H27      1.0000 0.25860  0.51560  0.01400  Biso   1.000  H
  H28      1.0000 0.24140  0.48440  0.51400  Biso   1.000  H
  H29      1.0000 0.25860  0.98440  0.51400  Biso   1.000  H
  H30      1.0000 0.24140  0.01560  0.01400  Biso   1.000  H
  H31      1.0000 0.74140  0.48440  0.98600  Biso   1.000  H
  H32      1.0000 0.75860  0.51560  0.48600  Biso   1.000  H
  C57      1.0000 0.84740  0.08662  0.39343  Biso   1.000  C
  C58      1.0000 0.65260  0.91338  0.89343  Biso   1.000  C
  C59      1.0000 0.15260  0.58662  0.10657  Biso   1.000  C
  C60      1.0000 0.34740  0.41338  0.60657  Biso   1.000  C
  C61      1.0000 0.15260  0.91338  0.60657  Biso   1.000  C
  C62      1.0000 0.34740  0.08662  0.10657  Biso   1.000  C
  C63      1.0000 0.84740  0.41338  0.89343  Biso   1.000  C
  C64      1.0000 0.65260  0.58662  0.39343  Biso   1.000  C
  H33      1.0000 0.74440  0.05420  0.38350  Biso   1.000  H
  H34      1.0000 0.75560  0.94580  0.88350  Biso   1.000  H
  H35      1.0000 0.25560  0.55420  0.11650  Biso   1.000  H
  H36      1.0000 0.24440  0.44580  0.61650  Biso   1.000  H
  H37      1.0000 0.25560  0.94580  0.61650  Biso   1.000  H
  H38      1.0000 0.24440  0.05420  0.11650  Biso   1.000  H
  H39      1.0000 0.74440  0.44580  0.88350  Biso   1.000  H
  H40      1.0000 0.75560  0.55420  0.38350  Biso   1.000  H
  H41      1.0000 0.97340  0.06890  0.37840  Biso   1.000  H
  H42      1.0000 0.52660  0.93110  0.87840  Biso   1.000  H
  H43      1.0000 0.02660  0.56890  0.12160  Biso   1.000  H
  H44      1.0000 0.47340  0.43110  0.62160  Biso   1.000  H
  H45      1.0000 0.02660  0.93110  0.62160  Biso   1.000  H
  H46      1.0000 0.47340  0.06890  0.12160  Biso   1.000  H
  H47      1.0000 0.97340  0.43110  0.87840  Biso   1.000  H
  H48      1.0000 0.52660  0.56890  0.37840  Biso   1.000  H
  C65      1.0000 0.80320  0.15322  0.36082  Biso   1.000  C
  C66      1.0000 0.69680  0.84678  0.86082  Biso   1.000  C
  C67      1.0000 0.19680  0.65322  0.13918  Biso   1.000  C
  C68      1.0000 0.30320  0.34678  0.63918  Biso   1.000  C
  C69      1.0000 0.19680  0.84678  0.63918  Biso   1.000  C
  C70      1.0000 0.30320  0.15322  0.13918  Biso   1.000  C
  C71      1.0000 0.80320  0.34678  0.86082  Biso   1.000  C
  C72      1.0000 0.69680  0.65322  0.36082  Biso   1.000  C
  H49      1.0000 0.81920  0.14870  0.31420  Biso   1.000  H
  H50      1.0000 0.68080  0.85130  0.81420  Biso   1.000  H
  H51      1.0000 0.18080  0.64870  0.18580  Biso   1.000  H
  H52      1.0000 0.31920  0.35130  0.68580  Biso   1.000  H
  H53      1.0000 0.18080  0.85130  0.68580  Biso   1.000  H
  H54      1.0000 0.31920  0.14870  0.18580  Biso   1.000  H
  H55      1.0000 0.81920  0.35130  0.81420  Biso   1.000  H
  H56      1.0000 0.68080  0.64870  0.31420  Biso   1.000  H
  H57      1.0000 0.66700  0.16610  0.36950  Biso   1.000  H
  H58      1.0000 0.83300  0.83390  0.86950  Biso   1.000  H
  H59      1.0000 0.33300  0.66610  0.13050  Biso   1.000  H
  H60      1.0000 0.16700  0.33390  0.63050  Biso   1.000  H
  H61      1.0000 0.33300  0.83390  0.63050  Biso   1.000  H
  H62      1.0000 0.16700  0.16610  0.13050  Biso   1.000  H
  H63      1.0000 0.66700  0.33390  0.86950  Biso   1.000  H
  H64      1.0000 0.83300  0.66610  0.36950  Biso   1.000  H
  C73      1.0000 0.14000  0.19694  0.35908  Biso   1.000  C
  C74      1.0000 0.36000  0.80306  0.85908  Biso   1.000  C
  C75      1.0000 0.86000  0.69694  0.14092  Biso   1.000  C
  C76      1.0000 0.64000  0.30306  0.64092  Biso   1.000  C
  C77      1.0000 0.86000  0.80306  0.64092  Biso   1.000  C
  C78      1.0000 0.64000  0.19694  0.14092  Biso   1.000  C
  C79      1.0000 0.14000  0.30306  0.85908  Biso   1.000  C
  C80      1.0000 0.36000  0.69694  0.35908  Biso   1.000  C
  H65      1.0000 0.13660  0.20120  0.31260  Biso   1.000  H
  H66      1.0000 0.36340  0.79880  0.81260  Biso   1.000  H
  H67      1.0000 0.86340  0.70120  0.18740  Biso   1.000  H
  H68      1.0000 0.63660  0.29880  0.68740  Biso   1.000  H
  H69      1.0000 0.86340  0.79880  0.68740  Biso   1.000  H
  H70      1.0000 0.63660  0.20120  0.18740  Biso   1.000  H
  H71      1.0000 0.13660  0.29880  0.81260  Biso   1.000  H
  H72      1.0000 0.36340  0.70120  0.31260  Biso   1.000  H
  H73      1.0000 0.18890  0.15320  0.37050  Biso   1.000  H
  H74      1.0000 0.31110  0.84680  0.87050  Biso   1.000  H
  H75      1.0000 0.81110  0.65320  0.12950  Biso   1.000  H
  H76      1.0000 0.68890  0.34680  0.62950  Biso   1.000  H
  H77      1.0000 0.81110  0.84680  0.62950  Biso   1.000  H
  H78      1.0000 0.68890  0.15320  0.12950  Biso   1.000  H
  H79      1.0000 0.18890  0.34680  0.87050  Biso   1.000  H
  H80      1.0000 0.31110  0.65320  0.37050  Biso   1.000  H
  H81      1.0000 0.22590  0.23070  0.37690  Biso   1.000  H
  H82      1.0000 0.27410  0.76930  0.87690  Biso   1.000  H
  H83      1.0000 0.77410  0.73070  0.12310  Biso   1.000  H
  H84      1.0000 0.72590  0.26930  0.62310  Biso   1.000  H
  H85      1.0000 0.77410  0.76930  0.62310  Biso   1.000  H
  H86      1.0000 0.72590  0.23070  0.12310  Biso   1.000  H
  H87      1.0000 0.22590  0.26930  0.87690  Biso   1.000  H
  H88      1.0000 0.27410  0.73070  0.37690  Biso   1.000  H
  C81      1.0000 0.86410  0.27248  0.36510  Biso   1.000  C
  C82      1.0000 0.63590  0.72752  0.86510  Biso   1.000  C
  C83      1.0000 0.13590  0.77248  0.13490  Biso   1.000  C
  C84      1.0000 0.36410  0.22752  0.63490  Biso   1.000  C
  C85      1.0000 0.13590  0.72752  0.63490  Biso   1.000  C
  C86      1.0000 0.36410  0.27248  0.13490  Biso   1.000  C
  C87      1.0000 0.86410  0.22752  0.86510  Biso   1.000  C
  C88      1.0000 0.63590  0.77248  0.36510  Biso   1.000  C
  H89      1.0000 0.95570  0.30660  0.37880  Biso   1.000  H
  H90      1.0000 0.54430  0.69340  0.87880  Biso   1.000  H
  H91      1.0000 0.04430  0.80660  0.12120  Biso   1.000  H
  H92      1.0000 0.45570  0.19340  0.62120  Biso   1.000  H
  H93      1.0000 0.04430  0.69340  0.62120  Biso   1.000  H
  H94      1.0000 0.45570  0.30660  0.12120  Biso   1.000  H
  H95      1.0000 0.95570  0.19340  0.87880  Biso   1.000  H
  H96      1.0000 0.54430  0.80660  0.37880  Biso   1.000  H
  H97      1.0000 0.73710  0.28050  0.38470  Biso   1.000  H
  H98      1.0000 0.76290  0.71950  0.88470  Biso   1.000  H
  H99      1.0000 0.26290  0.78050  0.11530  Biso   1.000  H
  H100     1.0000 0.23710  0.21950  0.61530  Biso   1.000  H
  H101     1.0000 0.26290  0.71950  0.61530  Biso   1.000  H
  H102     1.0000 0.23710  0.28050  0.11530  Biso   1.000  H
  H103     1.0000 0.73710  0.21950  0.88470  Biso   1.000  H
  H104     1.0000 0.76290  0.78050  0.38470  Biso   1.000  H
  H105     1.0000 0.85120  0.27360  0.31860  Biso   1.000  H
  H106     1.0000 0.64880  0.72640  0.81860  Biso   1.000  H
  H107     1.0000 0.14880  0.77360  0.18140  Biso   1.000  H
  H108     1.0000 0.35120  0.22640  0.68140  Biso   1.000  H
  H109     1.0000 0.14880  0.72640  0.68140  Biso   1.000  H
  H110     1.0000 0.35120  0.27360  0.18140  Biso   1.000  H
  H111     1.0000 0.85120  0.22640  0.81860  Biso   1.000  H
  H112     1.0000 0.64880  0.77360  0.31860  Biso   1.000  H
