data_image0
_cell_length_a       19.089
_cell_length_b       15.891
_cell_length_c       10.883
_cell_angle_alpha    90
_cell_angle_beta     100.45
_cell_angle_gamma    90

_symmetry_space_group_name_H-M    "P 1"
_symmetry_int_tables_number       1

loop_
  _symmetry_equiv_pos_as_xyz
  'x, y, z'

loop_
  _atom_site_label
  _atom_site_occupancy
  _atom_site_fract_x
  _atom_site_fract_y
  _atom_site_fract_z
  _atom_site_thermal_displace_type
  _atom_site_B_iso_or_equiv
  _atom_site_type_symbol
  Cu1      1.0000 0.00000  0.00000  0.50000  Biso   1.000  Cu
  Cu2      1.0000 0.50000  0.50000  0.50000  Biso   1.000  Cu
  Cu3      1.0000 0.00000  0.00000  0.00000  Biso   1.000  Cu
  Cu4      1.0000 0.50000  0.50000  0.00000  Biso   1.000  Cu
  S1       1.0000 0.71550  0.10240  0.24630  Biso   1.000  S
  S2       1.0000 0.21550  0.60240  0.24630  Biso   1.000  S
  S3       1.0000 0.28450  0.10240  0.25370  Biso   1.000  S
  S4       1.0000 0.78450  0.60240  0.25370  Biso   1.000  S
  S5       1.0000 0.28450  0.89760  0.75370  Biso   1.000  S
  S6       1.0000 0.78450  0.39760  0.75370  Biso   1.000  S
  S7       1.0000 0.71550  0.89760  0.74630  Biso   1.000  S
  S8       1.0000 0.21550  0.39760  0.74630  Biso   1.000  S
  O1       1.0000 0.89760  0.00720  0.45720  Biso   1.000  O
  O2       1.0000 0.39760  0.50720  0.45720  Biso   1.000  O
  O3       1.0000 0.10240  0.00720  0.04280  Biso   1.000  O
  O4       1.0000 0.60240  0.50720  0.04280  Biso   1.000  O
  O5       1.0000 0.10240  0.99280  0.54280  Biso   1.000  O
  O6       1.0000 0.60240  0.49280  0.54280  Biso   1.000  O
  O7       1.0000 0.89760  0.99280  0.95720  Biso   1.000  O
  O8       1.0000 0.39760  0.49280  0.95720  Biso   1.000  O
  O9       1.0000 0.87280  0.03840  0.64280  Biso   1.000  O
  O10      1.0000 0.37280  0.53840  0.64280  Biso   1.000  O
  O11      1.0000 0.12720  0.03840  0.85720  Biso   1.000  O
  O12      1.0000 0.62720  0.53840  0.85720  Biso   1.000  O
  O13      1.0000 0.12720  0.96160  0.35720  Biso   1.000  O
  O14      1.0000 0.62720  0.46160  0.35720  Biso   1.000  O
  O15      1.0000 0.87280  0.96160  0.14280  Biso   1.000  O
  O16      1.0000 0.37280  0.46160  0.14280  Biso   1.000  O
  O17      1.0000 0.69740  0.05780  0.13290  Biso   1.000  O
  O18      1.0000 0.19740  0.55780  0.13290  Biso   1.000  O
  O19      1.0000 0.30260  0.05780  0.36710  Biso   1.000  O
  O20      1.0000 0.80260  0.55780  0.36710  Biso   1.000  O
  O21      1.0000 0.30260  0.94220  0.86710  Biso   1.000  O
  O22      1.0000 0.80260  0.44220  0.86710  Biso   1.000  O
  O23      1.0000 0.69740  0.94220  0.63290  Biso   1.000  O
  O24      1.0000 0.19740  0.44220  0.63290  Biso   1.000  O
  O25      1.0000 0.66100  0.12680  0.31180  Biso   1.000  O
  O26      1.0000 0.16100  0.62680  0.31180  Biso   1.000  O
  O27      1.0000 0.33900  0.12680  0.18820  Biso   1.000  O
  O28      1.0000 0.83900  0.62680  0.18820  Biso   1.000  O
  O29      1.0000 0.33900  0.87320  0.68820  Biso   1.000  O
  O30      1.0000 0.83900  0.37320  0.68820  Biso   1.000  O
  O31      1.0000 0.66100  0.87320  0.81180  Biso   1.000  O
  O32      1.0000 0.16100  0.37320  0.81180  Biso   1.000  O
  O33      1.0000 0.00000  0.02710  0.25000  Biso   1.000  O
  O34      1.0000 0.50000  0.52710  0.25000  Biso   1.000  O
  O35      1.0000 0.00000  0.97290  0.75000  Biso   1.000  O
  O36      1.0000 0.50000  0.47290  0.75000  Biso   1.000  O
  N1       1.0000 0.76950  0.04400  0.33800  Biso   1.000  N
  N2       1.0000 0.26950  0.54400  0.33800  Biso   1.000  N
  N3       1.0000 0.23050  0.04400  0.16200  Biso   1.000  N
  N4       1.0000 0.73050  0.54400  0.16200  Biso   1.000  N
  N5       1.0000 0.23050  0.95600  0.66200  Biso   1.000  N
  N6       1.0000 0.73050  0.45600  0.66200  Biso   1.000  N
  N7       1.0000 0.76950  0.95600  0.83800  Biso   1.000  N
  N8       1.0000 0.26950  0.45600  0.83800  Biso   1.000  N
  N9       1.0000 0.00500  0.12370  0.51890  Biso   1.000  N
  N10      1.0000 0.50500  0.62370  0.51890  Biso   1.000  N
  N11      1.0000 0.99500  0.12370  0.98110  Biso   1.000  N
  N12      1.0000 0.49500  0.62370  0.98110  Biso   1.000  N
  N13      1.0000 0.99500  0.87630  0.48110  Biso   1.000  N
  N14      1.0000 0.49500  0.37630  0.48110  Biso   1.000  N
  N15      1.0000 0.00500  0.87630  0.01890  Biso   1.000  N
  N16      1.0000 0.50500  0.37630  0.01890  Biso   1.000  N
  C1       1.0000 0.85830  0.03410  0.52920  Biso   1.000  C
  C2       1.0000 0.35830  0.53410  0.52920  Biso   1.000  C
  C3       1.0000 0.14170  0.03410  0.97080  Biso   1.000  C
  C4       1.0000 0.64170  0.53410  0.97080  Biso   1.000  C
  C5       1.0000 0.14170  0.96590  0.47080  Biso   1.000  C
  C6       1.0000 0.64170  0.46590  0.47080  Biso   1.000  C
  C7       1.0000 0.85830  0.96590  0.02920  Biso   1.000  C
  C8       1.0000 0.35830  0.46590  0.02920  Biso   1.000  C
  C9       1.0000 0.78770  0.06760  0.46850  Biso   1.000  C
  C10      1.0000 0.28770  0.56760  0.46850  Biso   1.000  C
  C11      1.0000 0.21230  0.06760  0.03150  Biso   1.000  C
  C12      1.0000 0.71230  0.56760  0.03150  Biso   1.000  C
  C13      1.0000 0.21230  0.93240  0.53150  Biso   1.000  C
  C14      1.0000 0.71230  0.43240  0.53150  Biso   1.000  C
  C15      1.0000 0.78770  0.93240  0.96850  Biso   1.000  C
  C16      1.0000 0.28770  0.43240  0.96850  Biso   1.000  C
  C17      1.0000 0.76130  0.19320  0.21850  Biso   1.000  C
  C18      1.0000 0.26130  0.69320  0.21850  Biso   1.000  C
  C19      1.0000 0.23870  0.19320  0.28150  Biso   1.000  C
  C20      1.0000 0.73870  0.69320  0.28150  Biso   1.000  C
  C21      1.0000 0.23870  0.80680  0.78150  Biso   1.000  C
  C22      1.0000 0.73870  0.30680  0.78150  Biso   1.000  C
  C23      1.0000 0.76130  0.80680  0.71850  Biso   1.000  C
  C24      1.0000 0.26130  0.30680  0.71850  Biso   1.000  C
  C25      1.0000 0.81030  0.18850  0.14210  Biso   1.000  C
  C26      1.0000 0.31030  0.68850  0.14210  Biso   1.000  C
  C27      1.0000 0.18970  0.18850  0.35790  Biso   1.000  C
  C28      1.0000 0.68970  0.68850  0.35790  Biso   1.000  C
  C29      1.0000 0.18970  0.81150  0.85790  Biso   1.000  C
  C30      1.0000 0.68970  0.31150  0.85790  Biso   1.000  C
  C31      1.0000 0.81030  0.81150  0.64210  Biso   1.000  C
  C32      1.0000 0.31030  0.31150  0.64210  Biso   1.000  C
  C33      1.0000 0.84790  0.25900  0.12450  Biso   1.000  C
  C34      1.0000 0.34790  0.75900  0.12450  Biso   1.000  C
  C35      1.0000 0.15210  0.25900  0.37550  Biso   1.000  C
  C36      1.0000 0.65210  0.75900  0.37550  Biso   1.000  C
  C37      1.0000 0.15210  0.74100  0.87550  Biso   1.000  C
  C38      1.0000 0.65210  0.24100  0.87550  Biso   1.000  C
  C39      1.0000 0.84790  0.74100  0.62450  Biso   1.000  C
  C40      1.0000 0.34790  0.24100  0.62450  Biso   1.000  C
  C41      1.0000 0.83960  0.33310  0.18130  Biso   1.000  C
  C42      1.0000 0.33960  0.83310  0.18130  Biso   1.000  C
  C43      1.0000 0.16040  0.33310  0.31870  Biso   1.000  C
  C44      1.0000 0.66040  0.83310  0.31870  Biso   1.000  C
  C45      1.0000 0.16040  0.66690  0.81870  Biso   1.000  C
  C46      1.0000 0.66040  0.16690  0.81870  Biso   1.000  C
  C47      1.0000 0.83960  0.66690  0.68130  Biso   1.000  C
  C48      1.0000 0.33960  0.16690  0.68130  Biso   1.000  C
  C49      1.0000 0.78890  0.33590  0.25510  Biso   1.000  C
  C50      1.0000 0.28890  0.83590  0.25510  Biso   1.000  C
  C51      1.0000 0.21110  0.33590  0.24490  Biso   1.000  C
  C52      1.0000 0.71110  0.83590  0.24490  Biso   1.000  C
  C53      1.0000 0.21110  0.66410  0.74490  Biso   1.000  C
  C54      1.0000 0.71110  0.16410  0.74490  Biso   1.000  C
  C55      1.0000 0.78890  0.66410  0.75510  Biso   1.000  C
  C56      1.0000 0.28890  0.16410  0.75510  Biso   1.000  C
  C57      1.0000 0.75050  0.26740  0.27540  Biso   1.000  C
  C58      1.0000 0.25050  0.76740  0.27540  Biso   1.000  C
  C59      1.0000 0.24950  0.26740  0.22460  Biso   1.000  C
  C60      1.0000 0.74950  0.76740  0.22460  Biso   1.000  C
  C61      1.0000 0.24950  0.73260  0.72460  Biso   1.000  C
  C62      1.0000 0.74950  0.23260  0.72460  Biso   1.000  C
  C63      1.0000 0.75050  0.73260  0.77540  Biso   1.000  C
  C64      1.0000 0.25050  0.23260  0.77540  Biso   1.000  C
  C65      1.0000 0.88480  0.40860  0.16520  Biso   1.000  C
  C66      1.0000 0.38480  0.90860  0.16520  Biso   1.000  C
  C67      1.0000 0.11520  0.40860  0.33480  Biso   1.000  C
  C68      1.0000 0.61520  0.90860  0.33480  Biso   1.000  C
  C69      1.0000 0.11520  0.59140  0.83480  Biso   1.000  C
  C70      1.0000 0.61520  0.09140  0.83480  Biso   1.000  C
  C71      1.0000 0.88480  0.59140  0.66520  Biso   1.000  C
  C72      1.0000 0.38480  0.09140  0.66520  Biso   1.000  C
  C73      1.0000 0.04640  0.16200  0.61310  Biso   1.000  C
  C74      1.0000 0.54640  0.66200  0.61310  Biso   1.000  C
  C75      1.0000 0.95360  0.16200  0.88690  Biso   1.000  C
  C76      1.0000 0.45360  0.66200  0.88690  Biso   1.000  C
  C77      1.0000 0.95360  0.83800  0.38690  Biso   1.000  C
  C78      1.0000 0.45360  0.33800  0.38690  Biso   1.000  C
  C79      1.0000 0.04640  0.83800  0.11310  Biso   1.000  C
  C80      1.0000 0.54640  0.33800  0.11310  Biso   1.000  C
  C81      1.0000 0.04500  0.24640  0.63280  Biso   1.000  C
  C82      1.0000 0.54500  0.74640  0.63280  Biso   1.000  C
  C83      1.0000 0.95500  0.24640  0.86720  Biso   1.000  C
  C84      1.0000 0.45500  0.74640  0.86720  Biso   1.000  C
  C85      1.0000 0.95500  0.75360  0.36720  Biso   1.000  C
  C86      1.0000 0.45500  0.25360  0.36720  Biso   1.000  C
  C87      1.0000 0.04500  0.75360  0.13280  Biso   1.000  C
  C88      1.0000 0.54500  0.25360  0.13280  Biso   1.000  C
  C89      1.0000 0.99950  0.29710  0.55350  Biso   1.000  C
  C90      1.0000 0.49950  0.79710  0.55350  Biso   1.000  C
  C91      1.0000 0.00050  0.29710  0.94650  Biso   1.000  C
  C92      1.0000 0.50050  0.79710  0.94650  Biso   1.000  C
  C93      1.0000 0.00050  0.70290  0.44650  Biso   1.000  C
  C94      1.0000 0.50050  0.20290  0.44650  Biso   1.000  C
  C95      1.0000 0.99950  0.70290  0.05350  Biso   1.000  C
  C96      1.0000 0.49950  0.20290  0.05350  Biso   1.000  C
  C97      1.0000 0.95790  0.25750  0.45470  Biso   1.000  C
  C98      1.0000 0.45790  0.75750  0.45470  Biso   1.000  C
  C99      1.0000 0.04210  0.25750  0.04530  Biso   1.000  C
  C100     1.0000 0.54210  0.75750  0.04530  Biso   1.000  C
  C101     1.0000 0.04210  0.74250  0.54530  Biso   1.000  C
  C102     1.0000 0.54210  0.24250  0.54530  Biso   1.000  C
  C103     1.0000 0.95790  0.74250  0.95470  Biso   1.000  C
  C104     1.0000 0.45790  0.24250  0.95470  Biso   1.000  C
  C105     1.0000 0.96170  0.17330  0.43950  Biso   1.000  C
  C106     1.0000 0.46170  0.67330  0.43950  Biso   1.000  C
  C107     1.0000 0.03830  0.17330  0.06050  Biso   1.000  C
  C108     1.0000 0.53830  0.67330  0.06050  Biso   1.000  C
  C109     1.0000 0.03830  0.82670  0.56050  Biso   1.000  C
  C110     1.0000 0.53830  0.32670  0.56050  Biso   1.000  C
  C111     1.0000 0.96170  0.82670  0.93950  Biso   1.000  C
  C112     1.0000 0.46170  0.32670  0.93950  Biso   1.000  C
  C113     1.0000 0.99510  0.38960  0.57370  Biso   1.000  C
  C114     1.0000 0.49510  0.88960  0.57370  Biso   1.000  C
  C115     1.0000 0.00490  0.38960  0.92630  Biso   1.000  C
  C116     1.0000 0.50490  0.88960  0.92630  Biso   1.000  C
  C117     1.0000 0.00490  0.61040  0.42630  Biso   1.000  C
  C118     1.0000 0.50490  0.11040  0.42630  Biso   1.000  C
  C119     1.0000 0.99510  0.61040  0.07370  Biso   1.000  C
  C120     1.0000 0.49510  0.11040  0.07370  Biso   1.000  C
  H1       1.0000 0.75500  0.04800  0.52100  Biso   1.000  H
  H2       1.0000 0.25500  0.54800  0.52100  Biso   1.000  H
  H3       1.0000 0.24500  0.04800  0.97900  Biso   1.000  H
  H4       1.0000 0.74500  0.54800  0.97900  Biso   1.000  H
  H5       1.0000 0.24500  0.95200  0.47900  Biso   1.000  H
  H6       1.0000 0.74500  0.45200  0.47900  Biso   1.000  H
  H7       1.0000 0.75500  0.95200  0.02100  Biso   1.000  H
  H8       1.0000 0.25500  0.45200  0.02100  Biso   1.000  H
  H9       1.0000 0.78400  0.13700  0.49300  Biso   1.000  H
  H10      1.0000 0.28400  0.63700  0.49300  Biso   1.000  H
  H11      1.0000 0.21600  0.13700  0.00700  Biso   1.000  H
  H12      1.0000 0.71600  0.63700  0.00700  Biso   1.000  H
  H13      1.0000 0.21600  0.86300  0.50700  Biso   1.000  H
  H14      1.0000 0.71600  0.36300  0.50700  Biso   1.000  H
  H15      1.0000 0.78400  0.86300  0.99300  Biso   1.000  H
  H16      1.0000 0.28400  0.36300  0.99300  Biso   1.000  H
  H17      1.0000 0.80400  0.02200  0.31000  Biso   1.000  H
  H18      1.0000 0.30400  0.52200  0.31000  Biso   1.000  H
  H19      1.0000 0.19600  0.02200  0.19000  Biso   1.000  H
  H20      1.0000 0.69600  0.52200  0.19000  Biso   1.000  H
  H21      1.0000 0.19600  0.97800  0.69000  Biso   1.000  H
  H22      1.0000 0.69600  0.47800  0.69000  Biso   1.000  H
  H23      1.0000 0.80400  0.97800  0.81000  Biso   1.000  H
  H24      1.0000 0.30400  0.47800  0.81000  Biso   1.000  H
  H25      1.0000 0.79900  0.15300  0.06900  Biso   1.000  H
  H26      1.0000 0.29900  0.65300  0.06900  Biso   1.000  H
  H27      1.0000 0.20100  0.15300  0.43100  Biso   1.000  H
  H28      1.0000 0.70100  0.65300  0.43100  Biso   1.000  H
  H29      1.0000 0.20100  0.84700  0.93100  Biso   1.000  H
  H30      1.0000 0.70100  0.34700  0.93100  Biso   1.000  H
  H31      1.0000 0.79900  0.84700  0.56900  Biso   1.000  H
  H32      1.0000 0.29900  0.34700  0.56900  Biso   1.000  H
  H33      1.0000 0.87400  0.25800  0.06100  Biso   1.000  H
  H34      1.0000 0.37400  0.75800  0.06100  Biso   1.000  H
  H35      1.0000 0.12600  0.25800  0.43900  Biso   1.000  H
  H36      1.0000 0.62600  0.75800  0.43900  Biso   1.000  H
  H37      1.0000 0.12600  0.74200  0.93900  Biso   1.000  H
  H38      1.0000 0.62600  0.24200  0.93900  Biso   1.000  H
  H39      1.0000 0.87400  0.74200  0.56100  Biso   1.000  H
  H40      1.0000 0.37400  0.24200  0.56100  Biso   1.000  H
  H41      1.0000 0.78300  0.38200  0.30400  Biso   1.000  H
  H42      1.0000 0.28300  0.88200  0.30400  Biso   1.000  H
  H43      1.0000 0.21700  0.38200  0.19600  Biso   1.000  H
  H44      1.0000 0.71700  0.88200  0.19600  Biso   1.000  H
  H45      1.0000 0.21700  0.61800  0.69600  Biso   1.000  H
  H46      1.0000 0.71700  0.11800  0.69600  Biso   1.000  H
  H47      1.0000 0.78300  0.61800  0.80400  Biso   1.000  H
  H48      1.0000 0.28300  0.11800  0.80400  Biso   1.000  H
  H49      1.0000 0.71700  0.26800  0.33900  Biso   1.000  H
  H50      1.0000 0.21700  0.76800  0.33900  Biso   1.000  H
  H51      1.0000 0.28300  0.26800  0.16100  Biso   1.000  H
  H52      1.0000 0.78300  0.76800  0.16100  Biso   1.000  H
  H53      1.0000 0.28300  0.73200  0.66100  Biso   1.000  H
  H54      1.0000 0.78300  0.23200  0.66100  Biso   1.000  H
  H55      1.0000 0.71700  0.73200  0.83900  Biso   1.000  H
  H56      1.0000 0.21700  0.23200  0.83900  Biso   1.000  H
  H57      1.0000 0.87900  0.46400  0.20900  Biso   1.000  H
  H58      1.0000 0.37900  0.96400  0.20900  Biso   1.000  H
  H59      1.0000 0.12100  0.46400  0.29100  Biso   1.000  H
  H60      1.0000 0.62100  0.96400  0.29100  Biso   1.000  H
  H61      1.0000 0.12100  0.53600  0.79100  Biso   1.000  H
  H62      1.0000 0.62100  0.03600  0.79100  Biso   1.000  H
  H63      1.0000 0.87900  0.53600  0.70900  Biso   1.000  H
  H64      1.0000 0.37900  0.03600  0.70900  Biso   1.000  H
  H65      1.0000 0.93400  0.39200  0.19500  Biso   1.000  H
  H66      1.0000 0.43400  0.89200  0.19500  Biso   1.000  H
  H67      1.0000 0.06600  0.39200  0.30500  Biso   1.000  H
  H68      1.0000 0.56600  0.89200  0.30500  Biso   1.000  H
  H69      1.0000 0.06600  0.60800  0.80500  Biso   1.000  H
  H70      1.0000 0.56600  0.10800  0.80500  Biso   1.000  H
  H71      1.0000 0.93400  0.60800  0.69500  Biso   1.000  H
  H72      1.0000 0.43400  0.10800  0.69500  Biso   1.000  H
  H73      1.0000 0.87800  0.42200  0.07400  Biso   1.000  H
  H74      1.0000 0.37800  0.92200  0.07400  Biso   1.000  H
  H75      1.0000 0.12200  0.42200  0.42600  Biso   1.000  H
  H76      1.0000 0.62200  0.92200  0.42600  Biso   1.000  H
  H77      1.0000 0.12200  0.57800  0.92600  Biso   1.000  H
  H78      1.0000 0.62200  0.07800  0.92600  Biso   1.000  H
  H79      1.0000 0.87800  0.57800  0.57400  Biso   1.000  H
  H80      1.0000 0.37800  0.07800  0.57400  Biso   1.000  H
  H81      1.0000 0.07900  0.12400  0.68200  Biso   1.000  H
  H82      1.0000 0.57900  0.62400  0.68200  Biso   1.000  H
  H83      1.0000 0.92100  0.12400  0.81800  Biso   1.000  H
  H84      1.0000 0.42100  0.62400  0.81800  Biso   1.000  H
  H85      1.0000 0.92100  0.87600  0.31800  Biso   1.000  H
  H86      1.0000 0.42100  0.37600  0.31800  Biso   1.000  H
  H87      1.0000 0.07900  0.87600  0.18200  Biso   1.000  H
  H88      1.0000 0.57900  0.37600  0.18200  Biso   1.000  H
  H89      1.0000 0.08500  0.27400  0.70300  Biso   1.000  H
  H90      1.0000 0.58500  0.77400  0.70300  Biso   1.000  H
  H91      1.0000 0.91500  0.27400  0.79700  Biso   1.000  H
  H92      1.0000 0.41500  0.77400  0.79700  Biso   1.000  H
  H93      1.0000 0.91500  0.72600  0.29700  Biso   1.000  H
  H94      1.0000 0.41500  0.22600  0.29700  Biso   1.000  H
  H95      1.0000 0.08500  0.72600  0.20300  Biso   1.000  H
  H96      1.0000 0.58500  0.22600  0.20300  Biso   1.000  H
  H97      1.0000 0.91800  0.28700  0.39700  Biso   1.000  H
  H98      1.0000 0.41800  0.78700  0.39700  Biso   1.000  H
  H99      1.0000 0.08200  0.28700  0.10300  Biso   1.000  H
  H100     1.0000 0.58200  0.78700  0.10300  Biso   1.000  H
  H101     1.0000 0.08200  0.71300  0.60300  Biso   1.000  H
  H102     1.0000 0.58200  0.21300  0.60300  Biso   1.000  H
  H103     1.0000 0.91800  0.71300  0.89700  Biso   1.000  H
  H104     1.0000 0.41800  0.21300  0.89700  Biso   1.000  H
  H105     1.0000 0.92300  0.14100  0.36200  Biso   1.000  H
  H106     1.0000 0.42300  0.64100  0.36200  Biso   1.000  H
  H107     1.0000 0.07700  0.14100  0.13800  Biso   1.000  H
  H108     1.0000 0.57700  0.64100  0.13800  Biso   1.000  H
  H109     1.0000 0.07700  0.85900  0.63800  Biso   1.000  H
  H110     1.0000 0.57700  0.35900  0.63800  Biso   1.000  H
  H111     1.0000 0.92300  0.85900  0.86200  Biso   1.000  H
  H112     1.0000 0.42300  0.35900  0.86200  Biso   1.000  H
  H113     1.0000 0.02300  0.42300  0.64400  Biso   1.000  H
  H114     1.0000 0.52300  0.92300  0.64400  Biso   1.000  H
  H115     1.0000 0.97700  0.42300  0.85600  Biso   1.000  H
  H116     1.0000 0.47700  0.92300  0.85600  Biso   1.000  H
  H117     1.0000 0.97700  0.57700  0.35600  Biso   1.000  H
  H118     1.0000 0.47700  0.07700  0.35600  Biso   1.000  H
  H119     1.0000 0.02300  0.57700  0.14400  Biso   1.000  H
  H120     1.0000 0.52300  0.07700  0.14400  Biso   1.000  H
  H121     1.0000 0.94600  0.40000  0.58600  Biso   1.000  H
  H122     1.0000 0.44600  0.90000  0.58600  Biso   1.000  H
  H123     1.0000 0.05400  0.40000  0.91400  Biso   1.000  H
  H124     1.0000 0.55400  0.90000  0.91400  Biso   1.000  H
  H125     1.0000 0.05400  0.60000  0.41400  Biso   1.000  H
  H126     1.0000 0.55400  0.10000  0.41400  Biso   1.000  H
  H127     1.0000 0.94600  0.60000  0.08600  Biso   1.000  H
  H128     1.0000 0.44600  0.10000  0.08600  Biso   1.000  H
  H129     1.0000 0.00100  0.41800  0.49600  Biso   1.000  H
  H130     1.0000 0.50100  0.91800  0.49600  Biso   1.000  H
  H131     1.0000 0.99900  0.41800  0.00400  Biso   1.000  H
  H132     1.0000 0.49900  0.91800  0.00400  Biso   1.000  H
  H133     1.0000 0.99900  0.58200  0.50400  Biso   1.000  H
  H134     1.0000 0.49900  0.08200  0.50400  Biso   1.000  H
  H135     1.0000 0.00100  0.58200  0.99600  Biso   1.000  H
  H136     1.0000 0.50100  0.08200  0.99600  Biso   1.000  H
  H137     1.0000 0.04000  0.99700  0.27900  Biso   1.000  H
  H138     1.0000 0.54000  0.49700  0.27900  Biso   1.000  H
  H139     1.0000 0.96000  0.99700  0.22100  Biso   1.000  H
  H140     1.0000 0.46000  0.49700  0.22100  Biso   1.000  H
  H141     1.0000 0.96000  0.00300  0.72100  Biso   1.000  H
  H142     1.0000 0.46000  0.50300  0.72100  Biso   1.000  H
  H143     1.0000 0.04000  0.00300  0.77900  Biso   1.000  H
  H144     1.0000 0.54000  0.50300  0.77900  Biso   1.000  H
