data_image0
_cell_length_a       10.0284
_cell_length_b       7.4125
_cell_length_c       10.0343
_cell_angle_alpha    90
_cell_angle_beta     103.52
_cell_angle_gamma    90

_symmetry_space_group_name_H-M    "P 1"
_symmetry_int_tables_number       1

loop_
  _symmetry_equiv_pos_as_xyz
  'x, y, z'

loop_
  _atom_site_label
  _atom_site_occupancy
  _atom_site_fract_x
  _atom_site_fract_y
  _atom_site_fract_z
  _atom_site_thermal_displace_type
  _atom_site_B_iso_or_equiv
  _atom_site_type_symbol
  Br1      1.0000 0.99980  0.39990  0.01530  Biso   1.000  Br
  Br2      1.0000 0.00020  0.89990  0.98470  Biso   1.000  Br
  Br3      1.0000 0.12910  0.10320  0.38410  Biso   1.000  Br
  Br4      1.0000 0.87090  0.60320  0.61590  Biso   1.000  Br
  Cu1      1.0000 0.43090  0.57630  0.77130  Biso   1.000  Cu
  Cu2      1.0000 0.56910  0.07630  0.22870  Biso   1.000  Cu
  O1       1.0000 0.51580  0.43820  0.64420  Biso   1.000  O
  O2       1.0000 0.48420  0.93820  0.35580  Biso   1.000  O
  O3       1.0000 0.26310  0.38980  0.81970  Biso   1.000  O
  O4       1.0000 0.73690  0.88980  0.18030  Biso   1.000  O
  O5       1.0000 0.38490  0.15600  0.79060  Biso   1.000  O
  O6       1.0000 0.61510  0.65600  0.20940  Biso   1.000  O
  O7       1.0000 0.16880  0.12640  0.76350  Biso   1.000  O
  O8       1.0000 0.83120  0.62640  0.23650  Biso   1.000  O
  O9       1.0000 0.57820  0.80710  0.70990  Biso   1.000  O
  O10      1.0000 0.42180  0.30710  0.29010  Biso   1.000  O
  O11      1.0000 0.56180  0.07620  0.61490  Biso   1.000  O
  O12      1.0000 0.43820  0.57620  0.38510  Biso   1.000  O
  O13      1.0000 0.67210  0.04560  0.82810  Biso   1.000  O
  O14      1.0000 0.32790  0.54560  0.17190  Biso   1.000  O
  N1       1.0000 0.57810  0.47160  0.92380  Biso   1.000  N
  N2       1.0000 0.42190  0.97160  0.07620  Biso   1.000  N
  N3       1.0000 0.63820  0.25230  0.10070  Biso   1.000  N
  N4       1.0000 0.36180  0.75230  0.89930  Biso   1.000  N
  N5       1.0000 0.28420  0.65780  0.60880  Biso   1.000  N
  N6       1.0000 0.71580  0.15780  0.39120  Biso   1.000  N
  N7       1.0000 0.13010  0.55050  0.40450  Biso   1.000  N
  N8       1.0000 0.86990  0.05050  0.59550  Biso   1.000  N
  N9       1.0000 0.27000  0.22590  0.78640  Biso   1.000  N
  N10      1.0000 0.73000  0.72590  0.21360  Biso   1.000  N
  N11      1.0000 0.60430  0.98120  0.72110  Biso   1.000  N
  N12      1.0000 0.39570  0.48120  0.27890  Biso   1.000  N
  C1       1.0000 0.54750  0.36020  0.01620  Biso   1.000  C
  C2       1.0000 0.45250  0.86020  0.98380  Biso   1.000  C
  C3       1.0000 0.76800  0.26060  0.09770  Biso   1.000  C
  C4       1.0000 0.23200  0.76060  0.90230  Biso   1.000  C
  C5       1.0000 0.81290  0.38000  0.00690  Biso   1.000  C
  C6       1.0000 0.18710  0.88000  0.99310  Biso   1.000  C
  C7       1.0000 0.71330  0.48200  0.91850  Biso   1.000  C
  C8       1.0000 0.28670  0.98200  0.08150  Biso   1.000  C
  C9       1.0000 0.21460  0.53000  0.52650  Biso   1.000  C
  C10      1.0000 0.78540  0.03000  0.47350  Biso   1.000  C
  C11      1.0000 0.10680  0.72100  0.36340  Biso   1.000  C
  C12      1.0000 0.89320  0.22100  0.63660  Biso   1.000  C
  C13      1.0000 0.16750  0.86320  0.44250  Biso   1.000  C
  C14      1.0000 0.83250  0.36320  0.55750  Biso   1.000  C
  C15      1.0000 0.25860  0.82760  0.56520  Biso   1.000  C
  C16      1.0000 0.74140  0.32760  0.43480  Biso   1.000  C
  H1       1.0000 0.45470  0.35630  0.02340  Biso   1.000  H
  H2       1.0000 0.54530  0.85630  0.97660  Biso   1.000  H
  H3       1.0000 0.83270  0.18580  0.15710  Biso   1.000  H
  H4       1.0000 0.16730  0.68580  0.84290  Biso   1.000  H
  H5       1.0000 0.73940  0.55980  0.85380  Biso   1.000  H
  H6       1.0000 0.26060  0.05980  0.14620  Biso   1.000  H
  H7       1.0000 0.22740  0.40990  0.55980  Biso   1.000  H
  H8       1.0000 0.77260  0.90990  0.44020  Biso   1.000  H
  H9       1.0000 0.04660  0.74410  0.27700  Biso   1.000  H
  H10      1.0000 0.95340  0.24410  0.72300  Biso   1.000  H
  H11      1.0000 0.30380  0.92450  0.61950  Biso   1.000  H
  H12      1.0000 0.69620  0.42450  0.38050  Biso   1.000  H
