data_image0
_cell_length_a       7.4256
_cell_length_b       11.2727
_cell_length_c       29.133
_cell_angle_alpha    90
_cell_angle_beta     90
_cell_angle_gamma    90

_symmetry_space_group_name_H-M    "P 1"
_symmetry_int_tables_number       1

loop_
  _symmetry_equiv_pos_as_xyz
  'x, y, z'

loop_
  _atom_site_label
  _atom_site_occupancy
  _atom_site_fract_x
  _atom_site_fract_y
  _atom_site_fract_z
  _atom_site_thermal_displace_type
  _atom_site_B_iso_or_equiv
  _atom_site_type_symbol
  Cu1      1.0000 0.39587  0.74415  0.92039  Biso   1.000  Cu
  Cu2      1.0000 0.10413  0.25585  0.42039  Biso   1.000  Cu
  Cu3      1.0000 0.89587  0.75585  0.07961  Biso   1.000  Cu
  Cu4      1.0000 0.60413  0.24415  0.57961  Biso   1.000  Cu
  S1       1.0000 0.44390  0.35936  0.96024  Biso   1.000  S
  S2       1.0000 0.05610  0.64064  0.46024  Biso   1.000  S
  S3       1.0000 0.94390  0.14064  0.03976  Biso   1.000  S
  S4       1.0000 0.55610  0.85936  0.53976  Biso   1.000  S
  O1       1.0000 0.27480  0.82010  0.97127  Biso   1.000  O
  O2       1.0000 0.22520  0.17990  0.47127  Biso   1.000  O
  O3       1.0000 0.77480  0.67990  0.02873  Biso   1.000  O
  O4       1.0000 0.72520  0.32010  0.52873  Biso   1.000  O
  O5       1.0000 0.14160  0.78380  0.03755  Biso   1.000  O
  O6       1.0000 0.35840  0.21620  0.53755  Biso   1.000  O
  O7       1.0000 0.64160  0.71620  0.96245  Biso   1.000  O
  O8       1.0000 0.85840  0.28380  0.46245  Biso   1.000  O
  N1       1.0000 0.46310  0.89750  0.88896  Biso   1.000  N
  N2       1.0000 0.03690  0.10250  0.38896  Biso   1.000  N
  N3       1.0000 0.96310  0.60250  0.11104  Biso   1.000  N
  N4       1.0000 0.53690  0.39750  0.61104  Biso   1.000  N
  N5       1.0000 0.52200  0.67330  0.86653  Biso   1.000  N
  N6       1.0000 0.97800  0.32670  0.36653  Biso   1.000  N
  N7       1.0000 0.02200  0.82670  0.13347  Biso   1.000  N
  N8       1.0000 0.47800  0.17330  0.63347  Biso   1.000  N
  N9       1.0000 0.22070  0.61050  0.93568  Biso   1.000  N
  N10      1.0000 0.27930  0.38950  0.43568  Biso   1.000  N
  N11      1.0000 0.72070  0.88950  0.06432  Biso   1.000  N
  N12      1.0000 0.77930  0.11050  0.56432  Biso   1.000  N
  H1       1.0000 0.27280  0.53930  0.92930  Biso   1.000  H
  H2       1.0000 0.22720  0.46070  0.42930  Biso   1.000  H
  H3       1.0000 0.77280  0.96070  0.07070  Biso   1.000  H
  H4       1.0000 0.72720  0.03930  0.57070  Biso   1.000  H
  C1       1.0000 0.43170  0.00850  0.90210  Biso   1.000  C
  C2       1.0000 0.06830  0.99150  0.40210  Biso   1.000  C
  C3       1.0000 0.93170  0.49150  0.09790  Biso   1.000  C
  C4       1.0000 0.56830  0.50850  0.59790  Biso   1.000  C
  H5       1.0000 0.38110  0.02240  0.93080  Biso   1.000  H
  H6       1.0000 0.11890  0.97760  0.43080  Biso   1.000  H
  H7       1.0000 0.88110  0.47760  0.06920  Biso   1.000  H
  H8       1.0000 0.61890  0.52240  0.56920  Biso   1.000  H
  C5       1.0000 0.47400  0.10760  0.87300  Biso   1.000  C
  C6       1.0000 0.02600  0.89240  0.37300  Biso   1.000  C
  C7       1.0000 0.97400  0.39240  0.12700  Biso   1.000  C
  C8       1.0000 0.52600  0.60760  0.62700  Biso   1.000  C
  H9       1.0000 0.45380  0.18510  0.88270  Biso   1.000  H
  H10      1.0000 0.04620  0.81490  0.38270  Biso   1.000  H
  H11      1.0000 0.95380  0.31490  0.11730  Biso   1.000  H
  H12      1.0000 0.54620  0.68510  0.61730  Biso   1.000  H
  C9       1.0000 0.54570  0.08380  0.83020  Biso   1.000  C
  C10      1.0000 0.95430  0.91620  0.33020  Biso   1.000  C
  C11      1.0000 0.04570  0.41620  0.16980  Biso   1.000  C
  C12      1.0000 0.45430  0.58380  0.66980  Biso   1.000  C
  H13      1.0000 0.57230  0.14650  0.81050  Biso   1.000  H
  H14      1.0000 0.92770  0.85350  0.31050  Biso   1.000  H
  H15      1.0000 0.07230  0.35350  0.18950  Biso   1.000  H
  H16      1.0000 0.42770  0.64650  0.68950  Biso   1.000  H
  C13      1.0000 0.57900  0.96840  0.81596  Biso   1.000  C
  C14      1.0000 0.92100  0.03160  0.31596  Biso   1.000  C
  C15      1.0000 0.07900  0.53160  0.18404  Biso   1.000  C
  C16      1.0000 0.42100  0.46840  0.68404  Biso   1.000  C
  C17      1.0000 0.64790  0.93580  0.77230  Biso   1.000  C
  C18      1.0000 0.85210  0.06420  0.27230  Biso   1.000  C
  C19      1.0000 0.14790  0.56420  0.22770  Biso   1.000  C
  C20      1.0000 0.35210  0.43580  0.72770  Biso   1.000  C
  H17      1.0000 0.67240  0.99550  0.75120  Biso   1.000  H
  H18      1.0000 0.82760  0.00450  0.25120  Biso   1.000  H
  H19      1.0000 0.17240  0.50450  0.24880  Biso   1.000  H
  H20      1.0000 0.32760  0.49550  0.74880  Biso   1.000  H
  C21      1.0000 0.67950  0.82290  0.76000  Biso   1.000  C
  C22      1.0000 0.82050  0.17710  0.26000  Biso   1.000  C
  C23      1.0000 0.17950  0.67710  0.24000  Biso   1.000  C
  C24      1.0000 0.32050  0.32290  0.74000  Biso   1.000  C
  H21      1.0000 0.72560  0.80580  0.73110  Biso   1.000  H
  H22      1.0000 0.77440  0.19420  0.23110  Biso   1.000  H
  H23      1.0000 0.22560  0.69420  0.26890  Biso   1.000  H
  H24      1.0000 0.27440  0.30580  0.76890  Biso   1.000  H
  C25      1.0000 0.64170  0.72850  0.79187  Biso   1.000  C
  C26      1.0000 0.85830  0.27150  0.29187  Biso   1.000  C
  C27      1.0000 0.14170  0.77150  0.20813  Biso   1.000  C
  C28      1.0000 0.35830  0.22850  0.70813  Biso   1.000  C
  C29      1.0000 0.67850  0.61000  0.78310  Biso   1.000  C
  C30      1.0000 0.82150  0.39000  0.28310  Biso   1.000  C
  C31      1.0000 0.17850  0.89000  0.21690  Biso   1.000  C
  C32      1.0000 0.32150  0.11000  0.71690  Biso   1.000  C
  H25      1.0000 0.72960  0.58750  0.75530  Biso   1.000  H
  H26      1.0000 0.77040  0.41250  0.25530  Biso   1.000  H
  H27      1.0000 0.22960  0.91250  0.24470  Biso   1.000  H
  H28      1.0000 0.27040  0.08750  0.74470  Biso   1.000  H
  C33      1.0000 0.63930  0.52610  0.81570  Biso   1.000  C
  C34      1.0000 0.86070  0.47390  0.31570  Biso   1.000  C
  C35      1.0000 0.13930  0.97390  0.18430  Biso   1.000  C
  C36      1.0000 0.36070  0.02610  0.68430  Biso   1.000  C
  H29      1.0000 0.66530  0.44650  0.81040  Biso   1.000  H
  H30      1.0000 0.83470  0.55350  0.31040  Biso   1.000  H
  H31      1.0000 0.16530  0.05350  0.18960  Biso   1.000  H
  H32      1.0000 0.33470  0.94650  0.68960  Biso   1.000  H
  C37      1.0000 0.56050  0.56100  0.85670  Biso   1.000  C
  C38      1.0000 0.93950  0.43900  0.35670  Biso   1.000  C
  C39      1.0000 0.06050  0.93900  0.14330  Biso   1.000  C
  C40      1.0000 0.43950  0.06100  0.64330  Biso   1.000  C
  H33      1.0000 0.53340  0.50310  0.87840  Biso   1.000  H
  H34      1.0000 0.96660  0.49690  0.37840  Biso   1.000  H
  H35      1.0000 0.03340  0.99690  0.12160  Biso   1.000  H
  H36      1.0000 0.46660  0.00310  0.62160  Biso   1.000  H
  C41      1.0000 0.56650  0.75620  0.83455  Biso   1.000  C
  C42      1.0000 0.93350  0.24380  0.33455  Biso   1.000  C
  C43      1.0000 0.06650  0.74380  0.16545  Biso   1.000  C
  C44      1.0000 0.43350  0.25620  0.66545  Biso   1.000  C
  C45      1.0000 0.53410  0.87820  0.84724  Biso   1.000  C
  C46      1.0000 0.96590  0.12180  0.34724  Biso   1.000  C
  C47      1.0000 0.03410  0.62180  0.15276  Biso   1.000  C
  C48      1.0000 0.46590  0.37820  0.65276  Biso   1.000  C
  C49      1.0000 0.10800  0.63950  0.82360  Biso   1.000  C
  C50      1.0000 0.39200  0.36050  0.32360  Biso   1.000  C
  C51      1.0000 0.60800  0.86050  0.17640  Biso   1.000  C
  C52      1.0000 0.89200  0.13950  0.67640  Biso   1.000  C
  H37      1.0000 0.11900  0.55740  0.82220  Biso   1.000  H
  H38      1.0000 0.38100  0.44260  0.32220  Biso   1.000  H
  H39      1.0000 0.61900  0.94260  0.17780  Biso   1.000  H
  H40      1.0000 0.88100  0.05740  0.67780  Biso   1.000  H
  C53      1.0000 0.12950  0.70540  0.78460  Biso   1.000  C
  C54      1.0000 0.37050  0.29460  0.28460  Biso   1.000  C
  C55      1.0000 0.62950  0.79460  0.21540  Biso   1.000  C
  C56      1.0000 0.87050  0.20540  0.71540  Biso   1.000  C
  H41      1.0000 0.15870  0.66780  0.75720  Biso   1.000  H
  H42      1.0000 0.34130  0.33220  0.25720  Biso   1.000  H
  H43      1.0000 0.65870  0.83220  0.24280  Biso   1.000  H
  H44      1.0000 0.84130  0.16780  0.74280  Biso   1.000  H
  C57      1.0000 0.10860  0.82650  0.78530  Biso   1.000  C
  C58      1.0000 0.39140  0.17350  0.28530  Biso   1.000  C
  C59      1.0000 0.60860  0.67350  0.21470  Biso   1.000  C
  C60      1.0000 0.89140  0.32650  0.71470  Biso   1.000  C
  H45      1.0000 0.12050  0.86990  0.75840  Biso   1.000  H
  H46      1.0000 0.37950  0.13010  0.25840  Biso   1.000  H
  H47      1.0000 0.62050  0.63010  0.24160  Biso   1.000  H
  H48      1.0000 0.87950  0.36990  0.74160  Biso   1.000  H
  C61      1.0000 0.07020  0.88340  0.82560  Biso   1.000  C
  C62      1.0000 0.42980  0.11660  0.32560  Biso   1.000  C
  C63      1.0000 0.57020  0.61660  0.17440  Biso   1.000  C
  C64      1.0000 0.92980  0.38340  0.67440  Biso   1.000  C
  H49      1.0000 0.05700  0.96540  0.82610  Biso   1.000  H
  H50      1.0000 0.44300  0.03460  0.32610  Biso   1.000  H
  H51      1.0000 0.55700  0.53460  0.17390  Biso   1.000  H
  H52      1.0000 0.94300  0.46540  0.67390  Biso   1.000  H
  C65      1.0000 0.05100  0.81810  0.86590  Biso   1.000  C
  C66      1.0000 0.44900  0.18190  0.36590  Biso   1.000  C
  C67      1.0000 0.55100  0.68190  0.13410  Biso   1.000  C
  C68      1.0000 0.94900  0.31810  0.63410  Biso   1.000  C
  H53      1.0000 0.02560  0.85660  0.89340  Biso   1.000  H
  H54      1.0000 0.47440  0.14340  0.39340  Biso   1.000  H
  H55      1.0000 0.52560  0.64340  0.10660  Biso   1.000  H
  H56      1.0000 0.97440  0.35660  0.60660  Biso   1.000  H
  C69      1.0000 0.07030  0.69340  0.86490  Biso   1.000  C
  C70      1.0000 0.42970  0.30660  0.36490  Biso   1.000  C
  C71      1.0000 0.57030  0.80660  0.13510  Biso   1.000  C
  C72      1.0000 0.92970  0.19340  0.63510  Biso   1.000  C
  C73      1.0000 0.04760  0.62310  0.90850  Biso   1.000  C
  C74      1.0000 0.45240  0.37690  0.40850  Biso   1.000  C
  C75      1.0000 0.54760  0.87690  0.09150  Biso   1.000  C
  C76      1.0000 0.95240  0.12310  0.59150  Biso   1.000  C
  H57      1.0000 0.00290  0.54470  0.90090  Biso   1.000  H
  H58      1.0000 0.49710  0.45530  0.40090  Biso   1.000  H
  H59      1.0000 0.50290  0.95530  0.09910  Biso   1.000  H
  H60      1.0000 0.99710  0.04470  0.59910  Biso   1.000  H
  H61      1.0000 0.95800  0.66170  0.92760  Biso   1.000  H
  H62      1.0000 0.54200  0.33830  0.42760  Biso   1.000  H
  H63      1.0000 0.45800  0.83830  0.07240  Biso   1.000  H
  H64      1.0000 0.04200  0.16170  0.57240  Biso   1.000  H
  C77      1.0000 0.18410  0.61930  0.98560  Biso   1.000  C
  C78      1.0000 0.31590  0.38070  0.48560  Biso   1.000  C
  C79      1.0000 0.68410  0.88070  0.01440  Biso   1.000  C
  C80      1.0000 0.81590  0.11930  0.51440  Biso   1.000  C
  H65      1.0000 0.06110  0.59170  0.99160  Biso   1.000  H
  H66      1.0000 0.43890  0.40830  0.49160  Biso   1.000  H
  H67      1.0000 0.56110  0.90830  0.00840  Biso   1.000  H
  H68      1.0000 0.93890  0.09170  0.50840  Biso   1.000  H
  C81      1.0000 0.19860  0.75050  0.99941  Biso   1.000  C
  C82      1.0000 0.30140  0.24950  0.49941  Biso   1.000  C
  C83      1.0000 0.69860  0.74950  0.00059  Biso   1.000  C
  C84      1.0000 0.80140  0.25050  0.50059  Biso   1.000  C
  C85      1.0000 0.31470  0.54790  0.01530  Biso   1.000  C
  C86      1.0000 0.18530  0.45210  0.51530  Biso   1.000  C
  C87      1.0000 0.81470  0.95210  0.98470  Biso   1.000  C
  C88      1.0000 0.68530  0.04790  0.48470  Biso   1.000  C
  H69      1.0000 0.43630  0.57510  0.00920  Biso   1.000  H
  H70      1.0000 0.06370  0.42490  0.50920  Biso   1.000  H
  H71      1.0000 0.93630  0.92490  0.99080  Biso   1.000  H
  H72      1.0000 0.56370  0.07510  0.49080  Biso   1.000  H
  H73      1.0000 0.28880  0.56400  0.04730  Biso   1.000  H
  H74      1.0000 0.21120  0.43600  0.54730  Biso   1.000  H
  H75      1.0000 0.78880  0.93600  0.95270  Biso   1.000  H
  H76      1.0000 0.71120  0.06400  0.45270  Biso   1.000  H
  C89      1.0000 0.30740  0.41430  0.00760  Biso   1.000  C
  C90      1.0000 0.19260  0.58570  0.50760  Biso   1.000  C
  C91      1.0000 0.80740  0.08570  0.99240  Biso   1.000  C
  C92      1.0000 0.69260  0.91430  0.49240  Biso   1.000  C
  H77      1.0000 0.18310  0.39190  0.00220  Biso   1.000  H
  H78      1.0000 0.31690  0.60810  0.50220  Biso   1.000  H
  H79      1.0000 0.68310  0.10810  0.99780  Biso   1.000  H
  H80      1.0000 0.81690  0.89190  0.49780  Biso   1.000  H
  H81      1.0000 0.34610  0.37510  0.03560  Biso   1.000  H
  H82      1.0000 0.15390  0.62490  0.53560  Biso   1.000  H
  H83      1.0000 0.84610  0.12490  0.96440  Biso   1.000  H
  H84      1.0000 0.65390  0.87510  0.46440  Biso   1.000  H
  C93      1.0000 0.66690  0.39390  0.98040  Biso   1.000  C
  C94      1.0000 0.83310  0.60610  0.48040  Biso   1.000  C
  C95      1.0000 0.16690  0.10610  0.01960  Biso   1.000  C
  C96      1.0000 0.33310  0.89390  0.51960  Biso   1.000  C
  H85      1.0000 0.75370  0.36960  0.95790  Biso   1.000  H
  H86      1.0000 0.74630  0.63040  0.45790  Biso   1.000  H
  H87      1.0000 0.25370  0.13040  0.04210  Biso   1.000  H
  H88      1.0000 0.24630  0.86960  0.54210  Biso   1.000  H
  H89      1.0000 0.68910  0.35270  0.00870  Biso   1.000  H
  H90      1.0000 0.81090  0.64730  0.50870  Biso   1.000  H
  H91      1.0000 0.18910  0.14730  0.99130  Biso   1.000  H
  H92      1.0000 0.31090  0.85270  0.49130  Biso   1.000  H
  H93      1.0000 0.67680  0.47780  0.98540  Biso   1.000  H
  H94      1.0000 0.82320  0.52220  0.48540  Biso   1.000  H
  H95      1.0000 0.17680  0.02220  0.01460  Biso   1.000  H
  H96      1.0000 0.32320  0.97780  0.51460  Biso   1.000  H
  Cl1      1.0000 0.01190  0.26560  0.86447  Biso   1.000  Cl
  Cl2      1.0000 0.48810  0.73440  0.36447  Biso   1.000  Cl
  Cl3      1.0000 0.51190  0.23440  0.13553  Biso   1.000  Cl
  Cl4      1.0000 0.98810  0.76560  0.63553  Biso   1.000  Cl
  O9       1.0000 0.15650  0.33930  0.85560  Biso   1.000  O
  O10      1.0000 0.34350  0.66070  0.35560  Biso   1.000  O
  O11      1.0000 0.65650  0.16070  0.14440  Biso   1.000  O
  O12      1.0000 0.84350  0.83930  0.64440  Biso   1.000  O
  O13      1.0000 0.02400  0.19830  0.82660  Biso   1.000  O
  O14      1.0000 0.47600  0.80170  0.32660  Biso   1.000  O
  O15      1.0000 0.52400  0.30170  0.17340  Biso   1.000  O
  O16      1.0000 0.97600  0.69830  0.67340  Biso   1.000  O
  O17      1.0000 0.04080  0.19760  0.89850  Biso   1.000  O
  O18      1.0000 0.45920  0.80240  0.39850  Biso   1.000  O
  O19      1.0000 0.54080  0.30240  0.10150  Biso   1.000  O
  O20      1.0000 0.95920  0.69760  0.60150  Biso   1.000  O
  O21      1.0000 0.84610  0.31190  0.86450  Biso   1.000  O
  O22      1.0000 0.65390  0.68810  0.36450  Biso   1.000  O
  O23      1.0000 0.34610  0.18810  0.13550  Biso   1.000  O
  O24      1.0000 0.15390  0.81190  0.63550  Biso   1.000  O
