data_image0
_cell_length_a       11.836
_cell_length_b       13.005
_cell_length_c       11.389
_cell_angle_alpha    90
_cell_angle_beta     107.64
_cell_angle_gamma    90

_symmetry_space_group_name_H-M    "P 1"
_symmetry_int_tables_number       1

loop_
  _symmetry_equiv_pos_as_xyz
  'x, y, z'

loop_
  _atom_site_label
  _atom_site_occupancy
  _atom_site_fract_x
  _atom_site_fract_y
  _atom_site_fract_z
  _atom_site_thermal_displace_type
  _atom_site_B_iso_or_equiv
  _atom_site_type_symbol
  Cu1      1.0000 0.56193  0.59144  0.89808  Biso   1.000  Cu
  Cu2      1.0000 0.43807  0.09144  0.60192  Biso   1.000  Cu
  Cu3      1.0000 0.43807  0.40856  0.10192  Biso   1.000  Cu
  Cu4      1.0000 0.56193  0.90856  0.39808  Biso   1.000  Cu
  O1       1.0000 0.60887  0.70455  0.95080  Biso   1.000  O
  O2       1.0000 0.39113  0.20455  0.54920  Biso   1.000  O
  O3       1.0000 0.39113  0.29545  0.04920  Biso   1.000  O
  O4       1.0000 0.60887  0.79545  0.45080  Biso   1.000  O
  O5       1.0000 0.57417  0.87311  0.91619  Biso   1.000  O
  O6       1.0000 0.42583  0.37311  0.58381  Biso   1.000  O
  O7       1.0000 0.42583  0.12689  0.08381  Biso   1.000  O
  O8       1.0000 0.57417  0.62689  0.41619  Biso   1.000  O
  O9       1.0000 0.43282  0.95774  0.59643  Biso   1.000  O
  O10      1.0000 0.56718  0.45774  0.90357  Biso   1.000  O
  O11      1.0000 0.56718  0.04226  0.40357  Biso   1.000  O
  O12      1.0000 0.43282  0.54226  0.09643  Biso   1.000  O
  O13      1.0000 0.33550  0.92112  0.72300  Biso   1.000  O
  O14      1.0000 0.66450  0.42112  0.77700  Biso   1.000  O
  O15      1.0000 0.66450  0.07888  0.27700  Biso   1.000  O
  O16      1.0000 0.33550  0.57888  0.22300  Biso   1.000  O
  N1       1.0000 0.48099  0.64367  0.77403  Biso   1.000  N
  N2       1.0000 0.51901  0.14367  0.72597  Biso   1.000  N
  N3       1.0000 0.51901  0.35633  0.22597  Biso   1.000  N
  N4       1.0000 0.48099  0.85633  0.27403  Biso   1.000  N
  N5       1.0000 0.34675  0.73842  0.53605  Biso   1.000  N
  N6       1.0000 0.65325  0.23842  0.96395  Biso   1.000  N
  N7       1.0000 0.65325  0.26158  0.46395  Biso   1.000  N
  N8       1.0000 0.34675  0.76158  0.03605  Biso   1.000  N
  N9       1.0000 0.80250  0.59175  0.20429  Biso   1.000  N
  N10      1.0000 0.19750  0.09175  0.29571  Biso   1.000  N
  N11      1.0000 0.19750  0.40825  0.79571  Biso   1.000  N
  N12      1.0000 0.80250  0.90825  0.70429  Biso   1.000  N
  N13      1.0000 0.66391  0.54053  0.04632  Biso   1.000  N
  N14      1.0000 0.33609  0.04053  0.45368  Biso   1.000  N
  N15      1.0000 0.33609  0.45947  0.95368  Biso   1.000  N
  N16      1.0000 0.66391  0.95947  0.54632  Biso   1.000  N
  C1       1.0000 0.77472  0.59234  0.07871  Biso   1.000  C
  C2       1.0000 0.22528  0.09234  0.42129  Biso   1.000  C
  C3       1.0000 0.22528  0.40766  0.92129  Biso   1.000  C
  C4       1.0000 0.77472  0.90766  0.57871  Biso   1.000  C
  C5       1.0000 0.47577  0.73372  0.75905  Biso   1.000  C
  C6       1.0000 0.52423  0.23372  0.74095  Biso   1.000  C
  C7       1.0000 0.52423  0.26628  0.24095  Biso   1.000  C
  C8       1.0000 0.47577  0.76628  0.25905  Biso   1.000  C
  C9       1.0000 0.40987  0.78402  0.64735  Biso   1.000  C
  C10      1.0000 0.59013  0.28402  0.85265  Biso   1.000  C
  C11      1.0000 0.59013  0.21598  0.35265  Biso   1.000  C
  C12      1.0000 0.40987  0.71598  0.14735  Biso   1.000  C
  C13      1.0000 0.35187  0.64082  0.53625  Biso   1.000  C
  C14      1.0000 0.64813  0.14082  0.96375  Biso   1.000  C
  C15      1.0000 0.64813  0.35918  0.46375  Biso   1.000  C
  C16      1.0000 0.35187  0.85918  0.03625  Biso   1.000  C
  C17      1.0000 0.41747  0.58882  0.64585  Biso   1.000  C
  C18      1.0000 0.58253  0.08882  0.85415  Biso   1.000  C
  C19      1.0000 0.58253  0.41118  0.35415  Biso   1.000  C
  C20      1.0000 0.41747  0.91118  0.14585  Biso   1.000  C
  C21      1.0000 0.54927  0.77952  0.83767  Biso   1.000  C
  C22      1.0000 0.45073  0.27952  0.66233  Biso   1.000  C
  C23      1.0000 0.45073  0.22048  0.16233  Biso   1.000  C
  C24      1.0000 0.54927  0.72048  0.33767  Biso   1.000  C
  C25      1.0000 0.41385  0.89481  0.65908  Biso   1.000  C
  C26      1.0000 0.58615  0.39481  0.84092  Biso   1.000  C
  C27      1.0000 0.58615  0.10519  0.34092  Biso   1.000  C
  C28      1.0000 0.41385  0.60519  0.15908  Biso   1.000  C
  C29      1.0000 0.98720  0.39536  0.49890  Biso   1.000  C
  C30      1.0000 0.01280  0.89536  0.00110  Biso   1.000  C
  C31      1.0000 0.01280  0.60464  0.50110  Biso   1.000  C
  C32      1.0000 0.98720  0.10464  0.99890  Biso   1.000  C
  C33      1.0000 0.72354  0.55401  0.24815  Biso   1.000  C
  C34      1.0000 0.27646  0.05401  0.25185  Biso   1.000  C
  C35      1.0000 0.27646  0.44599  0.75185  Biso   1.000  C
  C36      1.0000 0.72354  0.94599  0.74815  Biso   1.000  C
  C37      1.0000 0.63084  0.52215  0.14962  Biso   1.000  C
  C38      1.0000 0.36916  0.02215  0.35038  Biso   1.000  C
  C39      1.0000 0.36916  0.47785  0.85038  Biso   1.000  C
  C40      1.0000 0.63084  0.97785  0.64962  Biso   1.000  C
  C41      1.0000 0.89145  0.45365  0.39303  Biso   1.000  C
  C42      1.0000 0.10855  0.95365  0.10697  Biso   1.000  C
  C43      1.0000 0.10855  0.54635  0.60697  Biso   1.000  C
  C44      1.0000 0.89145  0.04635  0.89303  Biso   1.000  C
  C45      1.0000 0.92621  0.56047  0.39577  Biso   1.000  C
  C46      1.0000 0.07379  0.06047  0.10423  Biso   1.000  C
  C47      1.0000 0.07379  0.43953  0.60423  Biso   1.000  C
  C48      1.0000 0.92621  0.93953  0.89577  Biso   1.000  C
  C49      1.0000 0.86990  0.63609  0.28823  Biso   1.000  C
  C50      1.0000 0.13010  0.13609  0.21177  Biso   1.000  C
  C51      1.0000 0.13010  0.36391  0.71177  Biso   1.000  C
  C52      1.0000 0.86990  0.86391  0.78823  Biso   1.000  C
  H1       1.0000 0.42870  0.51106  0.66945  Biso   1.000  H
  H2       1.0000 0.57130  0.01106  0.83055  Biso   1.000  H
  H3       1.0000 0.57130  0.48894  0.33055  Biso   1.000  H
  H4       1.0000 0.42870  0.98894  0.16945  Biso   1.000  H
  H5       1.0000 0.31173  0.59447  0.46492  Biso   1.000  H
  H6       1.0000 0.68827  0.09447  0.03508  Biso   1.000  H
  H7       1.0000 0.68827  0.40553  0.53508  Biso   1.000  H
  H8       1.0000 0.31173  0.90553  0.96492  Biso   1.000  H
  H9       1.0000 0.55671  0.47919  0.16349  Biso   1.000  H
  H10      1.0000 0.44329  0.97919  0.33651  Biso   1.000  H
  H11      1.0000 0.44329  0.52081  0.83651  Biso   1.000  H
  H12      1.0000 0.55671  0.02081  0.66349  Biso   1.000  H
  H13      1.0000 0.72429  0.55285  0.34469  Biso   1.000  H
  H14      1.0000 0.27571  0.05285  0.15531  Biso   1.000  H
  H15      1.0000 0.27571  0.44715  0.65531  Biso   1.000  H
  H16      1.0000 0.72429  0.94715  0.84469  Biso   1.000  H
  H17      1.0000 0.81049  0.64254  0.03259  Biso   1.000  H
  H18      1.0000 0.18951  0.14254  0.46741  Biso   1.000  H
  H19      1.0000 0.18951  0.35746  0.96741  Biso   1.000  H
  H20      1.0000 0.81049  0.85746  0.53259  Biso   1.000  H
  H21      1.0000 0.97697  0.31726  0.48267  Biso   1.000  H
  H22      1.0000 0.02303  0.81726  0.01733  Biso   1.000  H
  H23      1.0000 0.02303  0.68274  0.51733  Biso   1.000  H
  H24      1.0000 0.97697  0.18274  0.98267  Biso   1.000  H
  H25      1.0000 0.82069  0.42028  0.32705  Biso   1.000  H
  H26      1.0000 0.17931  0.92028  0.17295  Biso   1.000  H
  H27      1.0000 0.17931  0.57972  0.67295  Biso   1.000  H
  H28      1.0000 0.82069  0.07972  0.82705  Biso   1.000  H
  H29      1.0000 0.93449  0.67094  0.25536  Biso   1.000  H
  H30      1.0000 0.06551  0.17094  0.24464  Biso   1.000  H
  H31      1.0000 0.06551  0.32906  0.74464  Biso   1.000  H
  H32      1.0000 0.93449  0.82906  0.75536  Biso   1.000  H
  H33      1.0000 0.82165  0.68775  0.32129  Biso   1.000  H
  H34      1.0000 0.17835  0.18775  0.17871  Biso   1.000  H
  H35      1.0000 0.17835  0.31225  0.67871  Biso   1.000  H
  H36      1.0000 0.82165  0.81225  0.82129  Biso   1.000  H
  O17      1.0000 0.76735  0.96552  0.97243  Biso   1.000  O
  O18      1.0000 0.23265  0.46552  0.52757  Biso   1.000  O
  O19      1.0000 0.23265  0.03448  0.02757  Biso   1.000  O
  O20      1.0000 0.76735  0.53448  0.47243  Biso   1.000  O
  O21      1.0000 0.88861  0.11504  0.69768  Biso   1.000  O
  O22      1.0000 0.11139  0.61504  0.80232  Biso   1.000  O
  O23      1.0000 0.11139  0.88496  0.30232  Biso   1.000  O
  O24      1.0000 0.88861  0.38496  0.19768  Biso   1.000  O
