data_image0
_cell_length_a       15.529
_cell_length_b       9.4144
_cell_length_c       14.66
_cell_angle_alpha    90
_cell_angle_beta     116.848
_cell_angle_gamma    90

_symmetry_space_group_name_H-M    "P 1"
_symmetry_int_tables_number       1

loop_
  _symmetry_equiv_pos_as_xyz
  'x, y, z'

loop_
  _atom_site_label
  _atom_site_occupancy
  _atom_site_fract_x
  _atom_site_fract_y
  _atom_site_fract_z
  _atom_site_thermal_displace_type
  _atom_site_B_iso_or_equiv
  _atom_site_type_symbol
  U1       1.0000 0.75060  0.94881  0.53778  Biso   1.000  U
  U2       1.0000 0.25060  0.44881  0.53778  Biso   1.000  U
  U3       1.0000 0.24940  0.94881  0.96222  Biso   1.000  U
  U4       1.0000 0.74940  0.44881  0.96222  Biso   1.000  U
  U5       1.0000 0.24940  0.05119  0.46222  Biso   1.000  U
  U6       1.0000 0.74940  0.55119  0.46222  Biso   1.000  U
  U7       1.0000 0.75060  0.05119  0.03778  Biso   1.000  U
  U8       1.0000 0.25060  0.55119  0.03778  Biso   1.000  U
  O1       1.0000 0.62720  0.93800  0.50590  Biso   1.000  O
  O2       1.0000 0.12720  0.43800  0.50590  Biso   1.000  O
  O3       1.0000 0.37280  0.93800  0.99410  Biso   1.000  O
  O4       1.0000 0.87280  0.43800  0.99410  Biso   1.000  O
  O5       1.0000 0.37280  0.06200  0.49410  Biso   1.000  O
  O6       1.0000 0.87280  0.56200  0.49410  Biso   1.000  O
  O7       1.0000 0.62720  0.06200  0.00590  Biso   1.000  O
  O8       1.0000 0.12720  0.56200  0.00590  Biso   1.000  O
  O9       1.0000 0.87540  0.96520  0.57050  Biso   1.000  O
  O10      1.0000 0.37540  0.46520  0.57050  Biso   1.000  O
  O11      1.0000 0.12460  0.96520  0.92950  Biso   1.000  O
  O12      1.0000 0.62460  0.46520  0.92950  Biso   1.000  O
  O13      1.0000 0.12460  0.03480  0.42950  Biso   1.000  O
  O14      1.0000 0.62460  0.53480  0.42950  Biso   1.000  O
  O15      1.0000 0.87540  0.03480  0.07050  Biso   1.000  O
  O16      1.0000 0.37540  0.53480  0.07050  Biso   1.000  O
  O17      1.0000 0.19830  0.41050  0.88340  Biso   1.000  O
  O18      1.0000 0.69830  0.91050  0.88340  Biso   1.000  O
  O19      1.0000 0.80170  0.41050  0.61660  Biso   1.000  O
  O20      1.0000 0.30170  0.91050  0.61660  Biso   1.000  O
  O21      1.0000 0.80170  0.58950  0.11660  Biso   1.000  O
  O22      1.0000 0.30170  0.08950  0.11660  Biso   1.000  O
  O23      1.0000 0.19830  0.58950  0.38340  Biso   1.000  O
  O24      1.0000 0.69830  0.08950  0.38340  Biso   1.000  O
  O25      1.0000 0.25160  0.18640  0.90790  Biso   1.000  O
  O26      1.0000 0.75160  0.68640  0.90790  Biso   1.000  O
  O27      1.0000 0.74840  0.18640  0.59210  Biso   1.000  O
  O28      1.0000 0.24840  0.68640  0.59210  Biso   1.000  O
  O29      1.0000 0.74840  0.81360  0.09210  Biso   1.000  O
  O30      1.0000 0.24840  0.31360  0.09210  Biso   1.000  O
  O31      1.0000 0.25160  0.81360  0.40790  Biso   1.000  O
  O32      1.0000 0.75160  0.31360  0.40790  Biso   1.000  O
  C1       1.0000 0.20000  0.28240  0.85590  Biso   1.000  C
  C2       1.0000 0.70000  0.78240  0.85590  Biso   1.000  C
  C3       1.0000 0.80000  0.28240  0.64410  Biso   1.000  C
  C4       1.0000 0.30000  0.78240  0.64410  Biso   1.000  C
  C5       1.0000 0.80000  0.71760  0.14410  Biso   1.000  C
  C6       1.0000 0.30000  0.21760  0.14410  Biso   1.000  C
  C7       1.0000 0.20000  0.71760  0.35590  Biso   1.000  C
  C8       1.0000 0.70000  0.21760  0.35590  Biso   1.000  C
  C9       1.0000 0.13030  0.25240  0.74690  Biso   1.000  C
  C10      1.0000 0.63030  0.75240  0.74690  Biso   1.000  C
  C11      1.0000 0.86970  0.25240  0.75310  Biso   1.000  C
  C12      1.0000 0.36970  0.75240  0.75310  Biso   1.000  C
  C13      1.0000 0.86970  0.74760  0.25310  Biso   1.000  C
  C14      1.0000 0.36970  0.24760  0.25310  Biso   1.000  C
  C15      1.0000 0.13030  0.74760  0.24690  Biso   1.000  C
  C16      1.0000 0.63030  0.24760  0.24690  Biso   1.000  C
  N1       1.0000 0.06970  0.35700  0.68280  Biso   1.000  N
  N2       1.0000 0.56970  0.85700  0.68280  Biso   1.000  N
  N3       1.0000 0.93030  0.35700  0.81720  Biso   1.000  N
  N4       1.0000 0.43030  0.85700  0.81720  Biso   1.000  N
  N5       1.0000 0.93030  0.64300  0.31720  Biso   1.000  N
  N6       1.0000 0.43030  0.14300  0.31720  Biso   1.000  N
  N7       1.0000 0.06970  0.64300  0.18280  Biso   1.000  N
  N8       1.0000 0.56970  0.14300  0.18280  Biso   1.000  N
  H1       1.0000 0.06790  0.44410  0.69970  Biso   1.000  H
  H2       1.0000 0.56790  0.94410  0.69970  Biso   1.000  H
  H3       1.0000 0.93210  0.44410  0.80030  Biso   1.000  H
  H4       1.0000 0.43210  0.94410  0.80030  Biso   1.000  H
  H5       1.0000 0.93210  0.55590  0.30030  Biso   1.000  H
  H6       1.0000 0.43210  0.05590  0.30030  Biso   1.000  H
  H7       1.0000 0.06790  0.55590  0.19970  Biso   1.000  H
  H8       1.0000 0.56790  0.05590  0.19970  Biso   1.000  H
  C17      1.0000 0.01540  0.30110  0.59160  Biso   1.000  C
  C18      1.0000 0.51540  0.80110  0.59160  Biso   1.000  C
  C19      1.0000 0.98460  0.30110  0.90840  Biso   1.000  C
  C20      1.0000 0.48460  0.80110  0.90840  Biso   1.000  C
  C21      1.0000 0.98460  0.69890  0.40840  Biso   1.000  C
  C22      1.0000 0.48460  0.19890  0.40840  Biso   1.000  C
  C23      1.0000 0.01540  0.69890  0.09160  Biso   1.000  C
  C24      1.0000 0.51540  0.19890  0.09160  Biso   1.000  C
  H9       1.0000 0.96900  0.35040  0.53630  Biso   1.000  H
  H10      1.0000 0.46900  0.85040  0.53630  Biso   1.000  H
  H11      1.0000 0.03100  0.35040  0.96370  Biso   1.000  H
  H12      1.0000 0.53100  0.85040  0.96370  Biso   1.000  H
  H13      1.0000 0.03100  0.64960  0.46370  Biso   1.000  H
  H14      1.0000 0.53100  0.14960  0.46370  Biso   1.000  H
  H15      1.0000 0.96900  0.64960  0.03630  Biso   1.000  H
  H16      1.0000 0.46900  0.14960  0.03630  Biso   1.000  H
  N9       1.0000 0.03640  0.16590  0.59050  Biso   1.000  N
  N10      1.0000 0.53640  0.66590  0.59050  Biso   1.000  N
  N11      1.0000 0.96360  0.16590  0.90950  Biso   1.000  N
  N12      1.0000 0.46360  0.66590  0.90950  Biso   1.000  N
  N13      1.0000 0.96360  0.83410  0.40950  Biso   1.000  N
  N14      1.0000 0.46360  0.33410  0.40950  Biso   1.000  N
  N15      1.0000 0.03640  0.83410  0.09050  Biso   1.000  N
  N16      1.0000 0.53640  0.33410  0.09050  Biso   1.000  N
  C25      1.0000 0.10780  0.13210  0.68640  Biso   1.000  C
  C26      1.0000 0.60780  0.63210  0.68640  Biso   1.000  C
  C27      1.0000 0.89220  0.13210  0.81360  Biso   1.000  C
  C28      1.0000 0.39220  0.63210  0.81360  Biso   1.000  C
  C29      1.0000 0.89220  0.86790  0.31360  Biso   1.000  C
  C30      1.0000 0.39220  0.36790  0.31360  Biso   1.000  C
  C31      1.0000 0.10780  0.86790  0.18640  Biso   1.000  C
  C32      1.0000 0.60780  0.36790  0.18640  Biso   1.000  C
  C33      1.0000 0.14080  0.98220  0.70210  Biso   1.000  C
  C34      1.0000 0.64080  0.48220  0.70210  Biso   1.000  C
  C35      1.0000 0.85920  0.98220  0.79790  Biso   1.000  C
  C36      1.0000 0.35920  0.48220  0.79790  Biso   1.000  C
  C37      1.0000 0.85920  0.01780  0.29790  Biso   1.000  C
  C38      1.0000 0.35920  0.51780  0.29790  Biso   1.000  C
  C39      1.0000 0.14080  0.01780  0.20210  Biso   1.000  C
  C40      1.0000 0.64080  0.51780  0.20210  Biso   1.000  C
  O33      1.0000 0.20770  0.93880  0.78450  Biso   1.000  O
  O34      1.0000 0.70770  0.43880  0.78450  Biso   1.000  O
  O35      1.0000 0.79230  0.93880  0.71550  Biso   1.000  O
  O36      1.0000 0.29230  0.43880  0.71550  Biso   1.000  O
  O37      1.0000 0.79230  0.06120  0.21550  Biso   1.000  O
  O38      1.0000 0.29230  0.56120  0.21550  Biso   1.000  O
  O39      1.0000 0.20770  0.06120  0.28450  Biso   1.000  O
  O40      1.0000 0.70770  0.56120  0.28450  Biso   1.000  O
  O41      1.0000 0.09750  0.90420  0.62470  Biso   1.000  O
  O42      1.0000 0.59750  0.40420  0.62470  Biso   1.000  O
  O43      1.0000 0.90250  0.90420  0.87530  Biso   1.000  O
  O44      1.0000 0.40250  0.40420  0.87530  Biso   1.000  O
  O45      1.0000 0.90250  0.09580  0.37530  Biso   1.000  O
  O46      1.0000 0.40250  0.59580  0.37530  Biso   1.000  O
  O47      1.0000 0.09750  0.09580  0.12470  Biso   1.000  O
  O48      1.0000 0.59750  0.59580  0.12470  Biso   1.000  O
  Cu1      1.0000 0.00000  0.00000  0.50000  Biso   1.000  Cu
  Cu2      1.0000 0.50000  0.50000  0.50000  Biso   1.000  Cu
  Cu3      1.0000 0.00000  0.00000  0.00000  Biso   1.000  Cu
  Cu4      1.0000 0.50000  0.50000  0.00000  Biso   1.000  Cu
  O49      1.0000 0.92720  0.64990  0.78150  Biso   1.000  O
  O50      1.0000 0.42720  0.14990  0.78150  Biso   1.000  O
  O51      1.0000 0.07280  0.64990  0.71850  Biso   1.000  O
  O52      1.0000 0.57280  0.14990  0.71850  Biso   1.000  O
  O53      1.0000 0.07280  0.35010  0.21850  Biso   1.000  O
  O54      1.0000 0.57280  0.85010  0.21850  Biso   1.000  O
  O55      1.0000 0.92720  0.35010  0.28150  Biso   1.000  O
  O56      1.0000 0.42720  0.85010  0.28150  Biso   1.000  O
  O57      1.0000 0.73120  0.79150  0.40770  Biso   1.000  O
  O58      1.0000 0.23120  0.29150  0.40770  Biso   1.000  O
  O59      1.0000 0.26880  0.79150  0.09230  Biso   1.000  O
  O60      1.0000 0.76880  0.29150  0.09230  Biso   1.000  O
  O61      1.0000 0.26880  0.20850  0.59230  Biso   1.000  O
  O62      1.0000 0.76880  0.70850  0.59230  Biso   1.000  O
  O63      1.0000 0.73120  0.20850  0.90770  Biso   1.000  O
  O64      1.0000 0.23120  0.70850  0.90770  Biso   1.000  O
