data_image0
_cell_length_a       5.3964
_cell_length_b       13.7766
_cell_length_c       20.9426
_cell_angle_alpha    90
_cell_angle_beta     94.216
_cell_angle_gamma    90

_symmetry_space_group_name_H-M    "P 1"
_symmetry_int_tables_number       1

loop_
  _symmetry_equiv_pos_as_xyz
  'x, y, z'

loop_
  _atom_site_label
  _atom_site_occupancy
  _atom_site_fract_x
  _atom_site_fract_y
  _atom_site_fract_z
  _atom_site_thermal_displace_type
  _atom_site_B_iso_or_equiv
  _atom_site_type_symbol
  U1       1.0000 0.96990  0.12209  0.11215  Biso   1.000  U
  U2       1.0000 0.53010  0.62209  0.38785  Biso   1.000  U
  U3       1.0000 0.03010  0.87791  0.88785  Biso   1.000  U
  U4       1.0000 0.46990  0.37791  0.61215  Biso   1.000  U
  Cu1      1.0000 0.25878  0.36320  0.26205  Biso   1.000  Cu
  Cu2      1.0000 0.24122  0.86320  0.23795  Biso   1.000  Cu
  Cu3      1.0000 0.74122  0.63680  0.73795  Biso   1.000  Cu
  Cu4      1.0000 0.75878  0.13680  0.76205  Biso   1.000  Cu
  Cu5      1.0000 0.50000  0.50000  0.00000  Biso   1.000  Cu
  Cu6      1.0000 0.00000  0.00000  0.50000  Biso   1.000  Cu
  C1       1.0000 0.65540  0.27040  0.21200  Biso   1.000  C
  C2       1.0000 0.84460  0.77040  0.28800  Biso   1.000  C
  C3       1.0000 0.34460  0.72960  0.78800  Biso   1.000  C
  C4       1.0000 0.15540  0.22960  0.71200  Biso   1.000  C
  C5       1.0000 0.56400  0.34150  0.16350  Biso   1.000  C
  C6       1.0000 0.93600  0.84150  0.33650  Biso   1.000  C
  C7       1.0000 0.43600  0.65850  0.83650  Biso   1.000  C
  C8       1.0000 0.06400  0.15850  0.66350  Biso   1.000  C
  C9       1.0000 0.83290  0.34470  0.06490  Biso   1.000  C
  C10      1.0000 0.66710  0.84470  0.43510  Biso   1.000  C
  C11      1.0000 0.16710  0.65530  0.93510  Biso   1.000  C
  C12      1.0000 0.33290  0.15530  0.56490  Biso   1.000  C
  C13      1.0000 0.62670  0.37150  0.10430  Biso   1.000  C
  C14      1.0000 0.87330  0.87150  0.39570  Biso   1.000  C
  C15      1.0000 0.37330  0.62850  0.89570  Biso   1.000  C
  C16      1.0000 0.12670  0.12850  0.60430  Biso   1.000  C
  C17      1.0000 0.34850  0.04330  0.80560  Biso   1.000  C
  C18      1.0000 0.15150  0.54330  0.69440  Biso   1.000  C
  C19      1.0000 0.65150  0.95670  0.19440  Biso   1.000  C
  C20      1.0000 0.84850  0.45670  0.30560  Biso   1.000  C
  C21      1.0000 0.68010  0.22500  0.89510  Biso   1.000  C
  C22      1.0000 0.81990  0.72500  0.60490  Biso   1.000  C
  C23      1.0000 0.31990  0.77500  0.10490  Biso   1.000  C
  C24      1.0000 0.18010  0.27500  0.39510  Biso   1.000  C
  H1       1.0000 0.80370  0.27210  0.89930  Biso   1.000  H
  H2       1.0000 0.69630  0.77210  0.60070  Biso   1.000  H
  H3       1.0000 0.19630  0.72790  0.10070  Biso   1.000  H
  H4       1.0000 0.30370  0.22790  0.39930  Biso   1.000  H
  C25      1.0000 0.43940  0.10880  0.85800  Biso   1.000  C
  C26      1.0000 0.06060  0.60880  0.64200  Biso   1.000  C
  C27      1.0000 0.56060  0.89120  0.14200  Biso   1.000  C
  C28      1.0000 0.93940  0.39120  0.35800  Biso   1.000  C
  C29      1.0000 0.31900  0.45860  0.13170  Biso   1.000  C
  C30      1.0000 0.18100  0.95860  0.36830  Biso   1.000  C
  C31      1.0000 0.68100  0.54140  0.86830  Biso   1.000  C
  C32      1.0000 0.81900  0.04140  0.63170  Biso   1.000  C
  H5       1.0000 0.19310  0.50480  0.13030  Biso   1.000  H
  H6       1.0000 0.30690  0.00480  0.36970  Biso   1.000  H
  H7       1.0000 0.80690  0.49520  0.86970  Biso   1.000  H
  H8       1.0000 0.69310  0.99520  0.63030  Biso   1.000  H
  C33      1.0000 0.36400  0.13140  0.91740  Biso   1.000  C
  C34      1.0000 0.13600  0.63140  0.58260  Biso   1.000  C
  C35      1.0000 0.63600  0.86860  0.08260  Biso   1.000  C
  C36      1.0000 0.86400  0.36860  0.41740  Biso   1.000  C
  C37      1.0000 0.15840  0.09840  0.95670  Biso   1.000  C
  C38      1.0000 0.34160  0.59840  0.54330  Biso   1.000  C
  C39      1.0000 0.84160  0.90160  0.04330  Biso   1.000  C
  C40      1.0000 0.65840  0.40160  0.45670  Biso   1.000  C
  N1       1.0000 0.36930  0.39760  0.18060  Biso   1.000  N
  N2       1.0000 0.13070  0.89760  0.31940  Biso   1.000  N
  N3       1.0000 0.63070  0.60240  0.81940  Biso   1.000  N
  N4       1.0000 0.86930  0.10240  0.68060  Biso   1.000  N
  N5       1.0000 0.47120  0.44520  0.08510  Biso   1.000  N
  N6       1.0000 0.02880  0.94520  0.41490  Biso   1.000  N
  N7       1.0000 0.52880  0.55480  0.91490  Biso   1.000  N
  N8       1.0000 0.97120  0.05480  0.58510  Biso   1.000  N
  N9       1.0000 0.51940  0.20540  0.93910  Biso   1.000  N
  N10      1.0000 0.98060  0.70540  0.56090  Biso   1.000  N
  N11      1.0000 0.48060  0.79460  0.06090  Biso   1.000  N
  N12      1.0000 0.01940  0.29460  0.43910  Biso   1.000  N
  H9       1.0000 0.51410  0.23450  0.97530  Biso   1.000  H
  H10      1.0000 0.98590  0.73450  0.52470  Biso   1.000  H
  H11      1.0000 0.48590  0.76550  0.02470  Biso   1.000  H
  H12      1.0000 0.01410  0.26550  0.47530  Biso   1.000  H
  N13      1.0000 0.63720  0.16730  0.84470  Biso   1.000  N
  N14      1.0000 0.86280  0.66730  0.65530  Biso   1.000  N
  N15      1.0000 0.36280  0.83270  0.15530  Biso   1.000  N
  N16      1.0000 0.13720  0.33270  0.34470  Biso   1.000  N
  O1       1.0000 0.82930  0.21200  0.20361  Biso   1.000  O
  O2       1.0000 0.67070  0.71200  0.29639  Biso   1.000  O
  O3       1.0000 0.17070  0.78800  0.79639  Biso   1.000  O
  O4       1.0000 0.32930  0.28800  0.70361  Biso   1.000  O
  O5       1.0000 0.54560  0.27310  0.26473  Biso   1.000  O
  O6       1.0000 0.95440  0.77310  0.23527  Biso   1.000  O
  O7       1.0000 0.45440  0.72690  0.73527  Biso   1.000  O
  O8       1.0000 0.04560  0.22690  0.76473  Biso   1.000  O
  O9       1.0000 0.14900  0.13880  0.00948  Biso   1.000  O
  O10      1.0000 0.35100  0.63880  0.49052  Biso   1.000  O
  O11      1.0000 0.85100  0.86120  0.99052  Biso   1.000  O
  O12      1.0000 0.64900  0.36120  0.50948  Biso   1.000  O
  O13      1.0000 0.99820  0.28520  0.08737  Biso   1.000  O
  O14      1.0000 0.50180  0.78520  0.41263  Biso   1.000  O
  O15      1.0000 0.00180  0.71480  0.91263  Biso   1.000  O
  O16      1.0000 0.49820  0.21480  0.58737  Biso   1.000  O
  O17      1.0000 0.26840  0.11630  0.15299  Biso   1.000  O
  O18      1.0000 0.23160  0.61630  0.34701  Biso   1.000  O
  O19      1.0000 0.73160  0.88370  0.84701  Biso   1.000  O
  O20      1.0000 0.76840  0.38370  0.65299  Biso   1.000  O
  O21      1.0000 0.16170  0.99000  0.80928  Biso   1.000  O
  O22      1.0000 0.33830  0.49000  0.69072  Biso   1.000  O
  O23      1.0000 0.83830  0.01000  0.19072  Biso   1.000  O
  O24      1.0000 0.66170  0.51000  0.30928  Biso   1.000  O
  O25      1.0000 0.00630  0.03530  0.93224  Biso   1.000  O
  O26      1.0000 0.49370  0.53530  0.56776  Biso   1.000  O
  O27      1.0000 0.99370  0.96470  0.06776  Biso   1.000  O
  O28      1.0000 0.50630  0.46470  0.43224  Biso   1.000  O
  O29      1.0000 0.46890  0.04890  0.75535  Biso   1.000  O
  O30      1.0000 0.03110  0.54890  0.74465  Biso   1.000  O
  O31      1.0000 0.53110  0.95110  0.24465  Biso   1.000  O
  O32      1.0000 0.96890  0.45110  0.25535  Biso   1.000  O
  O33      1.0000 0.83690  0.38510  0.01076  Biso   1.000  O
  O34      1.0000 0.66310  0.88510  0.48924  Biso   1.000  O
  O35      1.0000 0.16310  0.61490  0.98924  Biso   1.000  O
  O36      1.0000 0.33690  0.11490  0.51076  Biso   1.000  O
  O37      1.0000 0.71740  0.60800  0.03815  Biso   1.000  O
  O38      1.0000 0.78260  0.10800  0.46185  Biso   1.000  O
  O39      1.0000 0.28260  0.39200  0.96185  Biso   1.000  O
  O40      1.0000 0.21740  0.89200  0.53815  Biso   1.000  O
  O41      1.0000 0.64780  0.10510  0.33670  Biso   1.000  O
  O42      1.0000 0.85220  0.60510  0.16330  Biso   1.000  O
  O43      1.0000 0.35220  0.89490  0.66330  Biso   1.000  O
  O44      1.0000 0.14780  0.39490  0.83670  Biso   1.000  O
  O45      1.0000 0.66920  0.12730  0.07308  Biso   1.000  O
  O46      1.0000 0.83080  0.62730  0.42692  Biso   1.000  O
  O47      1.0000 0.33080  0.87270  0.92692  Biso   1.000  O
  O48      1.0000 0.16920  0.37270  0.57308  Biso   1.000  O
