data_image0
_cell_length_a       10.5448
_cell_length_b       10.6754
_cell_length_c       13.1285
_cell_angle_alpha    90
_cell_angle_beta     100.28
_cell_angle_gamma    90

_symmetry_space_group_name_H-M    "P 1"
_symmetry_int_tables_number       1

loop_
  _symmetry_equiv_pos_as_xyz
  'x, y, z'

loop_
  _atom_site_label
  _atom_site_occupancy
  _atom_site_fract_x
  _atom_site_fract_y
  _atom_site_fract_z
  _atom_site_thermal_displace_type
  _atom_site_B_iso_or_equiv
  _atom_site_type_symbol
  N1       1.0000 0.10570  0.64260  0.13710  Biso   1.000  N
  N2       1.0000 0.39430  0.14260  0.36290  Biso   1.000  N
  N3       1.0000 0.89430  0.35740  0.86290  Biso   1.000  N
  N4       1.0000 0.60570  0.85740  0.63710  Biso   1.000  N
  H1       1.0000 0.14320  0.66650  0.08740  Biso   1.000  H
  H2       1.0000 0.35680  0.16650  0.41260  Biso   1.000  H
  H3       1.0000 0.85680  0.33350  0.91260  Biso   1.000  H
  H4       1.0000 0.64320  0.83350  0.58740  Biso   1.000  H
  N5       1.0000 0.93000  0.16260  0.45020  Biso   1.000  N
  N6       1.0000 0.57000  0.66260  0.04980  Biso   1.000  N
  N7       1.0000 0.07000  0.83740  0.54980  Biso   1.000  N
  N8       1.0000 0.43000  0.33740  0.95020  Biso   1.000  N
  N9       1.0000 0.12040  0.30080  0.12050  Biso   1.000  N
  N10      1.0000 0.37960  0.80080  0.37950  Biso   1.000  N
  N11      1.0000 0.87960  0.69920  0.87950  Biso   1.000  N
  N12      1.0000 0.62040  0.19920  0.62050  Biso   1.000  N
  N13      1.0000 0.72190  0.42070  0.49480  Biso   1.000  N
  N14      1.0000 0.77810  0.92070  0.00520  Biso   1.000  N
  N15      1.0000 0.27810  0.57930  0.50520  Biso   1.000  N
  N16      1.0000 0.22190  0.07930  0.99480  Biso   1.000  N
  H5       1.0000 0.69180  0.39960  0.54910  Biso   1.000  H
  H6       1.0000 0.80820  0.89960  0.95090  Biso   1.000  H
  H7       1.0000 0.30820  0.60040  0.45090  Biso   1.000  H
  H8       1.0000 0.19180  0.10040  0.04910  Biso   1.000  H
  N17      1.0000 0.02260  0.52050  0.24130  Biso   1.000  N
  N18      1.0000 0.47740  0.02050  0.25870  Biso   1.000  N
  N19      1.0000 0.97740  0.47950  0.75870  Biso   1.000  N
  N20      1.0000 0.52260  0.97950  0.74130  Biso   1.000  N
  N21      1.0000 0.07260  0.26650  0.20780  Biso   1.000  N
  N22      1.0000 0.42740  0.76650  0.29220  Biso   1.000  N
  N23      1.0000 0.92740  0.73350  0.79220  Biso   1.000  N
  N24      1.0000 0.57260  0.23350  0.70780  Biso   1.000  N
  N25      1.0000 0.96790  0.19720  0.35880  Biso   1.000  N
  N26      1.0000 0.53210  0.69720  0.14120  Biso   1.000  N
  N27      1.0000 0.03210  0.80280  0.64120  Biso   1.000  N
  N28      1.0000 0.46790  0.30280  0.85880  Biso   1.000  N
  N29      1.0000 0.83390  0.41680  0.36960  Biso   1.000  N
  N30      1.0000 0.66610  0.91680  0.13040  Biso   1.000  N
  N31      1.0000 0.16610  0.58320  0.63040  Biso   1.000  N
  N32      1.0000 0.33390  0.08320  0.86960  Biso   1.000  N
  O1       1.0000 0.06290  0.00270  0.36550  Biso   1.000  O
  O2       1.0000 0.43710  0.50270  0.13450  Biso   1.000  O
  O3       1.0000 0.93710  0.99730  0.63450  Biso   1.000  O
  O4       1.0000 0.56290  0.49730  0.86550  Biso   1.000  O
  O5       1.0000 0.13430  0.06220  0.17810  Biso   1.000  O
  O6       1.0000 0.36570  0.56220  0.32190  Biso   1.000  O
  O7       1.0000 0.86570  0.93780  0.82190  Biso   1.000  O
  O8       1.0000 0.63430  0.43780  0.67810  Biso   1.000  O
  I1       1.0000 0.74634  0.35864  0.09327  Biso   1.000  I
  I2       1.0000 0.75366  0.85864  0.40673  Biso   1.000  I
  I3       1.0000 0.25366  0.64136  0.90673  Biso   1.000  I
  I4       1.0000 0.24634  0.14136  0.59327  Biso   1.000  I
  Cu1      1.0000 0.95912  0.35820  0.28522  Biso   1.000  Cu
  Cu2      1.0000 0.54088  0.85820  0.21478  Biso   1.000  Cu
  Cu3      1.0000 0.04088  0.64180  0.71478  Biso   1.000  Cu
  Cu4      1.0000 0.45912  0.14180  0.78522  Biso   1.000  Cu
  Cu5      1.0000 0.50000  0.50000  0.00000  Biso   1.000  Cu
  Cu6      1.0000 0.00000  0.00000  0.50000  Biso   1.000  Cu
  C1       1.0000 0.80970  0.35610  0.45270  Biso   1.000  C
  C2       1.0000 0.69030  0.85610  0.04730  Biso   1.000  C
  C3       1.0000 0.19030  0.64390  0.54730  Biso   1.000  C
  C4       1.0000 0.30970  0.14390  0.95270  Biso   1.000  C
  C5       1.0000 0.00920  0.64230  0.26820  Biso   1.000  C
  C6       1.0000 0.49080  0.14230  0.23180  Biso   1.000  C
  C7       1.0000 0.99080  0.35770  0.73180  Biso   1.000  C
  C8       1.0000 0.50920  0.85770  0.76820  Biso   1.000  C
  H9       1.0000 0.97080  0.66870  0.32300  Biso   1.000  H
  H10      1.0000 0.52920  0.16870  0.17700  Biso   1.000  H
  H11      1.0000 0.02920  0.33130  0.67700  Biso   1.000  H
  H12      1.0000 0.47080  0.83130  0.82300  Biso   1.000  H
  C9       1.0000 0.08350  0.52230  0.16060  Biso   1.000  C
  C10      1.0000 0.41650  0.02230  0.33940  Biso   1.000  C
  C11      1.0000 0.91650  0.47770  0.83940  Biso   1.000  C
  C12      1.0000 0.58350  0.97770  0.66060  Biso   1.000  C
  C13      1.0000 0.85870  0.23770  0.49190  Biso   1.000  C
  C14      1.0000 0.64130  0.73770  0.00810  Biso   1.000  C
  C15      1.0000 0.14130  0.76230  0.50810  Biso   1.000  C
  C16      1.0000 0.35870  0.26230  0.99190  Biso   1.000  C
  H13      1.0000 0.83670  0.21200  0.55410  Biso   1.000  H
  H14      1.0000 0.66330  0.71200  0.94590  Biso   1.000  H
  H15      1.0000 0.16330  0.78800  0.44590  Biso   1.000  H
  H16      1.0000 0.33670  0.28800  0.05410  Biso   1.000  H
  C17      1.0000 0.12130  0.41820  0.10280  Biso   1.000  C
  C18      1.0000 0.37870  0.91820  0.39720  Biso   1.000  C
  C19      1.0000 0.87870  0.58180  0.89720  Biso   1.000  C
  C20      1.0000 0.62130  0.08180  0.60280  Biso   1.000  C
  H17      1.0000 0.15110  0.44030  0.04270  Biso   1.000  H
  H18      1.0000 0.34890  0.94030  0.45730  Biso   1.000  H
  H19      1.0000 0.84890  0.55970  0.95730  Biso   1.000  H
  H20      1.0000 0.65110  0.05970  0.54270  Biso   1.000  H
  C21      1.0000 0.08690  0.14220  0.22620  Biso   1.000  C
  C22      1.0000 0.41310  0.64220  0.27380  Biso   1.000  C
  C23      1.0000 0.91310  0.85780  0.77380  Biso   1.000  C
  C24      1.0000 0.58690  0.35780  0.72620  Biso   1.000  C
  C25      1.0000 0.75780  0.52060  0.35970  Biso   1.000  C
  C26      1.0000 0.74220  0.02060  0.14030  Biso   1.000  C
  C27      1.0000 0.24220  0.47940  0.64030  Biso   1.000  C
  C28      1.0000 0.25780  0.97940  0.85970  Biso   1.000  C
  H21      1.0000 0.75320  0.58040  0.30770  Biso   1.000  H
  H22      1.0000 0.74680  0.08040  0.19230  Biso   1.000  H
  H23      1.0000 0.24680  0.41960  0.69230  Biso   1.000  H
  H24      1.0000 0.25320  0.91960  0.80770  Biso   1.000  H
  C29      1.0000 0.03690  0.10680  0.32440  Biso   1.000  C
  C30      1.0000 0.46310  0.60680  0.17560  Biso   1.000  C
  C31      1.0000 0.96310  0.89320  0.67560  Biso   1.000  C
  C32      1.0000 0.53690  0.39320  0.82440  Biso   1.000  C
  C33      1.0000 0.05950  0.71960  0.20400  Biso   1.000  C
  C34      1.0000 0.44050  0.21960  0.29600  Biso   1.000  C
  C35      1.0000 0.94050  0.28040  0.79600  Biso   1.000  C
  C36      1.0000 0.55950  0.78040  0.70400  Biso   1.000  C
  H25      1.0000 0.06190  0.80670  0.20550  Biso   1.000  H
  H26      1.0000 0.43810  0.30670  0.29450  Biso   1.000  H
  H27      1.0000 0.93810  0.19330  0.79450  Biso   1.000  H
  H28      1.0000 0.56190  0.69330  0.70550  Biso   1.000  H
  C37      1.0000 0.69010  0.52230  0.43800  Biso   1.000  C
  C38      1.0000 0.80990  0.02230  0.06200  Biso   1.000  C
  C39      1.0000 0.30990  0.47770  0.56200  Biso   1.000  C
  C40      1.0000 0.19010  0.97770  0.93800  Biso   1.000  C
  H29      1.0000 0.63180  0.58370  0.44980  Biso   1.000  H
  H30      1.0000 0.86820  0.08370  0.05020  Biso   1.000  H
  H31      1.0000 0.36820  0.41630  0.55020  Biso   1.000  H
  H32      1.0000 0.13180  0.91630  0.94980  Biso   1.000  H
