data_image0
_cell_length_a       11.022
_cell_length_b       3.8392
_cell_length_c       15.683
_cell_angle_alpha    90
_cell_angle_beta     110.12
_cell_angle_gamma    90

_symmetry_space_group_name_H-M    "P 1"
_symmetry_int_tables_number       1

loop_
  _symmetry_equiv_pos_as_xyz
  'x, y, z'

loop_
  _atom_site_label
  _atom_site_occupancy
  _atom_site_fract_x
  _atom_site_fract_y
  _atom_site_fract_z
  _atom_site_thermal_displace_type
  _atom_site_B_iso_or_equiv
  _atom_site_type_symbol
  Cu1      1.0000 0.39490  0.34936  0.35727  Biso   1.000  Cu
  Cu2      1.0000 0.39490  0.65064  0.85727  Biso   1.000  Cu
  O1       1.0000 0.52180  0.32450  0.29660  Biso   1.000  O
  O2       1.0000 0.52180  0.67550  0.79660  Biso   1.000  O
  N1       1.0000 0.28200  0.38780  0.43240  Biso   1.000  N
  N2       1.0000 0.28200  0.61220  0.93240  Biso   1.000  N
  N3       1.0000 0.53470  0.77610  0.61700  Biso   1.000  N
  N4       1.0000 0.53470  0.22390  0.11700  Biso   1.000  N
  O3       1.0000 0.69880  0.62830  0.42180  Biso   1.000  O
  O4       1.0000 0.69880  0.37170  0.92180  Biso   1.000  O
  C1       1.0000 0.66160  0.88370  0.63380  Biso   1.000  C
  C2       1.0000 0.66160  0.11630  0.13380  Biso   1.000  C
  C3       1.0000 0.47450  0.63880  0.53690  Biso   1.000  C
  C4       1.0000 0.47450  0.36120  0.03690  Biso   1.000  C
  C5       1.0000 0.33610  0.53480  0.51460  Biso   1.000  C
  C6       1.0000 0.33610  0.46520  0.01460  Biso   1.000  C
  C7       1.0000 0.64750  0.68050  0.48090  Biso   1.000  C
  C8       1.0000 0.64750  0.31950  0.98090  Biso   1.000  C
  C9       1.0000 0.73190  0.03640  0.71850  Biso   1.000  C
  C10      1.0000 0.73190  0.96360  0.21850  Biso   1.000  C
  H1       1.0000 0.69400  0.06390  0.76260  Biso   1.000  H
  H2       1.0000 0.69400  0.93610  0.26260  Biso   1.000  H
  C11      1.0000 0.15460  0.30520  0.40460  Biso   1.000  C
  C12      1.0000 0.15460  0.69480  0.90460  Biso   1.000  C
  H3       1.0000 0.11580  0.20490  0.34770  Biso   1.000  H
  H4       1.0000 0.11580  0.79510  0.84770  Biso   1.000  H
  C13      1.0000 0.91580  0.10320  0.66960  Biso   1.000  C
  C14      1.0000 0.91580  0.89680  0.16960  Biso   1.000  C
  H5       1.0000 0.00110  0.17280  0.68240  Biso   1.000  H
  H6       1.0000 0.00110  0.82720  0.18240  Biso   1.000  H
  C15      1.0000 0.08140  0.36640  0.45870  Biso   1.000  C
  C16      1.0000 0.08140  0.63360  0.95870  Biso   1.000  C
  H7       1.0000 0.99400  0.31080  0.43800  Biso   1.000  H
  H8       1.0000 0.99400  0.68920  0.93800  Biso   1.000  H
  C17      1.0000 0.85720  0.14420  0.73490  Biso   1.000  C
  C18      1.0000 0.85720  0.85580  0.23490  Biso   1.000  C
  H9       1.0000 0.90340  0.24610  0.79040  Biso   1.000  H
  H10      1.0000 0.90340  0.75390  0.29040  Biso   1.000  H
  C19      1.0000 0.72110  0.84470  0.56770  Biso   1.000  C
  C20      1.0000 0.72110  0.15530  0.06770  Biso   1.000  C
  C21      1.0000 0.13880  0.51190  0.54460  Biso   1.000  C
  C22      1.0000 0.13880  0.48810  0.04460  Biso   1.000  C
  H11      1.0000 0.09110  0.54900  0.58240  Biso   1.000  H
  H12      1.0000 0.09110  0.45100  0.08240  Biso   1.000  H
  C23      1.0000 0.84790  0.95970  0.58640  Biso   1.000  C
  C24      1.0000 0.84790  0.04030  0.08640  Biso   1.000  C
  H13      1.0000 0.88650  0.93930  0.54250  Biso   1.000  H
  H14      1.0000 0.88650  0.06070  0.04250  Biso   1.000  H
  C25      1.0000 0.26740  0.59960  0.57210  Biso   1.000  C
  C26      1.0000 0.26740  0.40040  0.07210  Biso   1.000  C
  H15      1.0000 0.30780  0.70100  0.62870  Biso   1.000  H
  H16      1.0000 0.30780  0.29900  0.12870  Biso   1.000  H
  N5       1.0000 0.52210  0.58460  0.46730  Biso   1.000  N
  N6       1.0000 0.52210  0.41540  0.96730  Biso   1.000  N
  Cl1      1.0000 0.27499  0.91690  0.26550  Biso   1.000  Cl
  Cl2      1.0000 0.27499  0.08310  0.76550  Biso   1.000  Cl
