data_image0
_cell_length_a       10.159
_cell_length_b       12.008
_cell_length_c       14.168
_cell_angle_alpha    72.34
_cell_angle_beta     80.93
_cell_angle_gamma    70.56

_symmetry_space_group_name_H-M    "P 1"
_symmetry_int_tables_number       1

loop_
  _symmetry_equiv_pos_as_xyz
  'x, y, z'

loop_
  _atom_site_label
  _atom_site_occupancy
  _atom_site_fract_x
  _atom_site_fract_y
  _atom_site_fract_z
  _atom_site_thermal_displace_type
  _atom_site_B_iso_or_equiv
  _atom_site_type_symbol
  Cu1      1.0000 0.73819  0.60360  0.51075  Biso   1.000  Cu
  Cu2      1.0000 0.26181  0.39640  0.48925  Biso   1.000  Cu
  Cu3      1.0000 0.97568  0.04733  0.14834  Biso   1.000  Cu
  Cu4      1.0000 0.02432  0.95267  0.85166  Biso   1.000  Cu
  Cl1      1.0000 0.60630  0.55822  0.64927  Biso   1.000  Cl
  Cl2      1.0000 0.39370  0.44178  0.35073  Biso   1.000  Cl
  Cl3      1.0000 0.78628  0.98845  0.20696  Biso   1.000  Cl
  Cl4      1.0000 0.21372  0.01155  0.79304  Biso   1.000  Cl
  O1       1.0000 0.78720  0.44990  0.46660  Biso   1.000  O
  O2       1.0000 0.21280  0.55010  0.53340  Biso   1.000  O
  O3       1.0000 0.11660  0.91690  0.24240  Biso   1.000  O
  O4       1.0000 0.88340  0.08310  0.75760  Biso   1.000  O
  O5       1.0000 0.47080  0.12430  0.99970  Biso   1.000  O
  O6       1.0000 0.52920  0.87570  0.00030  Biso   1.000  O
  O7       1.0000 0.44000  0.19300  0.15500  Biso   1.000  O
  O8       1.0000 0.56000  0.80700  0.84500  Biso   1.000  O
  O9       1.0000 0.33400  0.40900  0.90000  Biso   1.000  O
  O10      1.0000 0.66600  0.59100  0.10000  Biso   1.000  O
  O11      1.0000 0.45600  0.58400  0.87200  Biso   1.000  O
  O12      1.0000 0.54400  0.41600  0.12800  Biso   1.000  O
  O13      1.0000 0.16700  0.46300  0.97700  Biso   1.000  O
  O14      1.0000 0.83300  0.53700  0.02300  Biso   1.000  O
  O15      1.0000 0.37300  0.35000  0.13300  Biso   1.000  O
  O16      1.0000 0.62700  0.65000  0.86700  Biso   1.000  O
  N1       1.0000 0.76350  0.75920  0.52500  Biso   1.000  N
  N2       1.0000 0.23650  0.24080  0.47500  Biso   1.000  N
  N3       1.0000 0.89680  0.61830  0.41580  Biso   1.000  N
  N4       1.0000 0.10320  0.38170  0.58420  Biso   1.000  N
  N5       1.0000 0.94750  0.53530  0.36050  Biso   1.000  N
  N6       1.0000 0.05250  0.46470  0.63950  Biso   1.000  N
  N7       1.0000 0.94520  0.19150  0.23000  Biso   1.000  N
  N8       1.0000 0.05480  0.80850  0.77000  Biso   1.000  N
  N9       1.0000 0.90550  0.16670  0.01690  Biso   1.000  N
  N10      1.0000 0.09450  0.83330  0.98310  Biso   1.000  N
  N11      1.0000 0.15130  0.05990  0.07700  Biso   1.000  N
  N12      1.0000 0.84870  0.94010  0.92300  Biso   1.000  N
  N13      1.0000 0.27450  0.99010  0.12260  Biso   1.000  N
  N14      1.0000 0.72550  0.00990  0.87740  Biso   1.000  N
  N15      1.0000 0.57260  0.70300  0.40080  Biso   1.000  N
  N16      1.0000 0.42740  0.29700  0.59920  Biso   1.000  N
  C1       1.0000 0.68630  0.83140  0.58200  Biso   1.000  C
  C2       1.0000 0.31370  0.16860  0.41800  Biso   1.000  C
  H1       1.0000 0.61620  0.80700  0.62560  Biso   1.000  H
  H2       1.0000 0.38380  0.19300  0.37440  Biso   1.000  H
  C3       1.0000 0.70700  0.94100  0.57850  Biso   1.000  C
  C4       1.0000 0.29300  0.05900  0.42150  Biso   1.000  C
  H3       1.0000 0.65060  0.99040  0.61780  Biso   1.000  H
  H4       1.0000 0.34940  0.00960  0.38220  Biso   1.000  H
  C5       1.0000 0.81310  0.97520  0.51530  Biso   1.000  C
  C6       1.0000 0.18690  0.02480  0.48470  Biso   1.000  C
  H5       1.0000 0.83100  0.04700  0.51320  Biso   1.000  H
  H6       1.0000 0.16900  0.95300  0.48680  Biso   1.000  H
  C7       1.0000 0.89190  0.90350  0.45550  Biso   1.000  C
  C8       1.0000 0.10810  0.09650  0.54450  Biso   1.000  C
  H7       1.0000 0.96150  0.92730  0.41090  Biso   1.000  H
  H8       1.0000 0.03850  0.07270  0.58910  Biso   1.000  H
  C9       1.0000 0.86630  0.79450  0.46270  Biso   1.000  C
  C10      1.0000 0.13370  0.20550  0.53730  Biso   1.000  C
  C11      1.0000 0.93870  0.71200  0.40050  Biso   1.000  C
  C12      1.0000 0.06130  0.28800  0.59950  Biso   1.000  C
  H9       1.0000 0.01000  0.72660  0.35320  Biso   1.000  H
  H10      1.0000 0.99000  0.27340  0.64680  Biso   1.000  H
  C13      1.0000 0.87720  0.45440  0.39350  Biso   1.000  C
  C14      1.0000 0.12280  0.54560  0.60650  Biso   1.000  C
  C15      1.0000 0.83120  0.21990  0.28730  Biso   1.000  C
  C16      1.0000 0.16880  0.78010  0.71270  Biso   1.000  C
  H11      1.0000 0.76260  0.18340  0.29010  Biso   1.000  H
  H12      1.0000 0.23740  0.81660  0.70990  Biso   1.000  H
  C17      1.0000 0.80830  0.30060  0.34330  Biso   1.000  C
  C18      1.0000 0.19170  0.69940  0.65670  Biso   1.000  C
  H13      1.0000 0.72800  0.31500  0.38530  Biso   1.000  H
  H14      1.0000 0.27200  0.68500  0.61470  Biso   1.000  H
  C19      1.0000 0.90660  0.36070  0.33650  Biso   1.000  C
  C20      1.0000 0.09340  0.63930  0.66350  Biso   1.000  C
  C21      1.0000 0.02330  0.33200  0.27640  Biso   1.000  C
  C22      1.0000 0.97670  0.66800  0.72360  Biso   1.000  C
  H15      1.0000 0.09260  0.36880  0.27080  Biso   1.000  H
  H16      1.0000 0.90740  0.63120  0.72920  Biso   1.000  H
  C23      1.0000 0.03960  0.24860  0.22370  Biso   1.000  C
  C24      1.0000 0.96040  0.75140  0.77630  Biso   1.000  C
  H17      1.0000 0.11980  0.23150  0.18200  Biso   1.000  H
  H18      1.0000 0.88020  0.76850  0.81800  Biso   1.000  H
  C25      1.0000 0.77530  0.21900  0.98900  Biso   1.000  C
  C26      1.0000 0.22470  0.78100  0.01100  Biso   1.000  C
  H19      1.0000 0.70330  0.19510  0.03050  Biso   1.000  H
  H20      1.0000 0.29670  0.80490  0.96950  Biso   1.000  H
  C27      1.0000 0.74320  0.30870  0.89930  Biso   1.000  C
  C28      1.0000 0.25680  0.69130  0.10070  Biso   1.000  C
  H21      1.0000 0.65110  0.34350  0.88130  Biso   1.000  H
  H22      1.0000 0.34890  0.65650  0.11870  Biso   1.000  H
  C29      1.0000 0.84790  0.34470  0.83850  Biso   1.000  C
  C30      1.0000 0.15210  0.65530  0.16150  Biso   1.000  C
  H23      1.0000 0.82840  0.40510  0.77880  Biso   1.000  H
  H24      1.0000 0.17160  0.59490  0.22120  Biso   1.000  H
  C31      1.0000 0.98300  0.29010  0.86700  Biso   1.000  C
  C32      1.0000 0.01700  0.70990  0.13300  Biso   1.000  C
  H25      1.0000 0.05610  0.31330  0.82640  Biso   1.000  H
  H26      1.0000 0.94390  0.68670  0.17360  Biso   1.000  H
  C33      1.0000 0.00980  0.20130  0.95530  Biso   1.000  C
  C34      1.0000 0.99020  0.79870  0.04470  Biso   1.000  C
  C35      1.0000 0.14810  0.13590  0.99090  Biso   1.000  C
  C36      1.0000 0.85190  0.86410  0.00910  Biso   1.000  C
  H27      1.0000 0.22870  0.14820  0.95400  Biso   1.000  H
  H28      1.0000 0.77130  0.85180  0.04600  Biso   1.000  H
  C37      1.0000 0.24030  0.92020  0.20980  Biso   1.000  C
  C38      1.0000 0.75970  0.07980  0.79020  Biso   1.000  C
  C39      1.0000 0.44750  0.68640  0.41850  Biso   1.000  C
  C40      1.0000 0.55250  0.31360  0.58150  Biso   1.000  C
  H29      1.0000 0.43320  0.62620  0.47490  Biso   1.000  H
  H30      1.0000 0.56680  0.37380  0.52510  Biso   1.000  H
  C41      1.0000 0.33690  0.75260  0.35870  Biso   1.000  C
  C42      1.0000 0.66310  0.24740  0.64130  Biso   1.000  C
  H31      1.0000 0.25050  0.73840  0.37510  Biso   1.000  H
  H32      1.0000 0.74950  0.26160  0.62490  Biso   1.000  H
  C43      1.0000 0.35860  0.84030  0.27380  Biso   1.000  C
  C44      1.0000 0.64140  0.15970  0.72620  Biso   1.000  C
  C45      1.0000 0.48980  0.85710  0.25460  Biso   1.000  C
  C46      1.0000 0.51020  0.14290  0.74540  Biso   1.000  C
  H33      1.0000 0.50850  0.91510  0.19800  Biso   1.000  H
  H34      1.0000 0.49150  0.08490  0.80200  Biso   1.000  H
  C47      1.0000 0.59170  0.78770  0.31960  Biso   1.000  C
  C48      1.0000 0.40830  0.21230  0.68040  Biso   1.000  C
  H35      1.0000 0.67880  0.80070  0.30590  Biso   1.000  H
  H36      1.0000 0.32120  0.19930  0.69410  Biso   1.000  H
