data_image0
_cell_length_a       20.1391
_cell_length_b       4.9516
_cell_length_c       15.0761
_cell_angle_alpha    90
_cell_angle_beta     124.924
_cell_angle_gamma    90

_symmetry_space_group_name_H-M    "P 1"
_symmetry_int_tables_number       1

loop_
  _symmetry_equiv_pos_as_xyz
  'x, y, z'

loop_
  _atom_site_label
  _atom_site_occupancy
  _atom_site_fract_x
  _atom_site_fract_y
  _atom_site_fract_z
  _atom_site_thermal_displace_type
  _atom_site_B_iso_or_equiv
  _atom_site_type_symbol
  Cu1      1.0000 0.00000  0.00000  0.50000  Biso   1.000  Cu
  Cu2      1.0000 0.50000  0.50000  0.50000  Biso   1.000  Cu
  Cu3      1.0000 0.00000  0.00000  0.00000  Biso   1.000  Cu
  Cu4      1.0000 0.50000  0.50000  0.00000  Biso   1.000  Cu
  C1       1.0000 0.91957  0.05040  0.26483  Biso   1.000  C
  C2       1.0000 0.41957  0.55040  0.26483  Biso   1.000  C
  C3       1.0000 0.08043  0.05040  0.23517  Biso   1.000  C
  C4       1.0000 0.58043  0.55040  0.23517  Biso   1.000  C
  C5       1.0000 0.08043  0.94960  0.73517  Biso   1.000  C
  C6       1.0000 0.58043  0.44960  0.73517  Biso   1.000  C
  C7       1.0000 0.91957  0.94960  0.76483  Biso   1.000  C
  C8       1.0000 0.41957  0.44960  0.76483  Biso   1.000  C
  H1       1.0000 0.95330  0.90480  0.27280  Biso   1.000  H
  H2       1.0000 0.45330  0.40480  0.27280  Biso   1.000  H
  H3       1.0000 0.04670  0.90480  0.22720  Biso   1.000  H
  H4       1.0000 0.54670  0.40480  0.22720  Biso   1.000  H
  H5       1.0000 0.04670  0.09520  0.72720  Biso   1.000  H
  H6       1.0000 0.54670  0.59520  0.72720  Biso   1.000  H
  H7       1.0000 0.95330  0.09520  0.77280  Biso   1.000  H
  H8       1.0000 0.45330  0.59520  0.77280  Biso   1.000  H
  C9       1.0000 0.86747  0.16410  0.16356  Biso   1.000  C
  C10      1.0000 0.36747  0.66410  0.16356  Biso   1.000  C
  C11      1.0000 0.13253  0.16410  0.33644  Biso   1.000  C
  C12      1.0000 0.63253  0.66410  0.33644  Biso   1.000  C
  C13      1.0000 0.13253  0.83590  0.83644  Biso   1.000  C
  C14      1.0000 0.63253  0.33590  0.83644  Biso   1.000  C
  C15      1.0000 0.86747  0.83590  0.66356  Biso   1.000  C
  C16      1.0000 0.36747  0.33590  0.66356  Biso   1.000  C
  H9       1.0000 0.86570  0.09850  0.10310  Biso   1.000  H
  H10      1.0000 0.36570  0.59850  0.10310  Biso   1.000  H
  H11      1.0000 0.13430  0.09850  0.39690  Biso   1.000  H
  H12      1.0000 0.63430  0.59850  0.39690  Biso   1.000  H
  H13      1.0000 0.13430  0.90150  0.89690  Biso   1.000  H
  H14      1.0000 0.63430  0.40150  0.89690  Biso   1.000  H
  H15      1.0000 0.86570  0.90150  0.60310  Biso   1.000  H
  H16      1.0000 0.36570  0.40150  0.60310  Biso   1.000  H
  C17      1.0000 0.81777  0.37550  0.15182  Biso   1.000  C
  C18      1.0000 0.31777  0.87550  0.15182  Biso   1.000  C
  C19      1.0000 0.18223  0.37550  0.34818  Biso   1.000  C
  C20      1.0000 0.68223  0.87550  0.34818  Biso   1.000  C
  C21      1.0000 0.18223  0.62450  0.84818  Biso   1.000  C
  C22      1.0000 0.68223  0.12450  0.84818  Biso   1.000  C
  C23      1.0000 0.81777  0.62450  0.65182  Biso   1.000  C
  C24      1.0000 0.31777  0.12450  0.65182  Biso   1.000  C
  H17      1.0000 0.78200  0.45810  0.08320  Biso   1.000  H
  H18      1.0000 0.28200  0.95810  0.08320  Biso   1.000  H
  H19      1.0000 0.21800  0.45810  0.41680  Biso   1.000  H
  H20      1.0000 0.71800  0.95810  0.41680  Biso   1.000  H
  H21      1.0000 0.21800  0.54190  0.91680  Biso   1.000  H
  H22      1.0000 0.71800  0.04190  0.91680  Biso   1.000  H
  H23      1.0000 0.78200  0.54190  0.58320  Biso   1.000  H
  H24      1.0000 0.28200  0.04190  0.58320  Biso   1.000  H
  C25      1.0000 0.82100  0.46470  0.24141  Biso   1.000  C
  C26      1.0000 0.32100  0.96470  0.24141  Biso   1.000  C
  C27      1.0000 0.17900  0.46470  0.25859  Biso   1.000  C
  C28      1.0000 0.67900  0.96470  0.25859  Biso   1.000  C
  C29      1.0000 0.17900  0.53530  0.75859  Biso   1.000  C
  C30      1.0000 0.67900  0.03530  0.75859  Biso   1.000  C
  C31      1.0000 0.82100  0.53530  0.74141  Biso   1.000  C
  C32      1.0000 0.32100  0.03530  0.74141  Biso   1.000  C
  H25      1.0000 0.78700  0.60710  0.23540  Biso   1.000  H
  H26      1.0000 0.28700  0.10710  0.23540  Biso   1.000  H
  H27      1.0000 0.21300  0.60710  0.26460  Biso   1.000  H
  H28      1.0000 0.71300  0.10710  0.26460  Biso   1.000  H
  H29      1.0000 0.21300  0.39290  0.76460  Biso   1.000  H
  H30      1.0000 0.71300  0.89290  0.76460  Biso   1.000  H
  H31      1.0000 0.78700  0.39290  0.73540  Biso   1.000  H
  H32      1.0000 0.28700  0.89290  0.73540  Biso   1.000  H
  C33      1.0000 0.87509  0.34060  0.33984  Biso   1.000  C
  C34      1.0000 0.37509  0.84060  0.33984  Biso   1.000  C
  C35      1.0000 0.12491  0.34060  0.16016  Biso   1.000  C
  C36      1.0000 0.62491  0.84060  0.16016  Biso   1.000  C
  C37      1.0000 0.12491  0.65940  0.66016  Biso   1.000  C
  C38      1.0000 0.62491  0.15940  0.66016  Biso   1.000  C
  C39      1.0000 0.87509  0.65940  0.83984  Biso   1.000  C
  C40      1.0000 0.37509  0.15940  0.83984  Biso   1.000  C
  N1       1.0000 0.92394  0.13950  0.35219  Biso   1.000  N
  N2       1.0000 0.42394  0.63950  0.35219  Biso   1.000  N
  N3       1.0000 0.07606  0.13950  0.14781  Biso   1.000  N
  N4       1.0000 0.57606  0.63950  0.14781  Biso   1.000  N
  N5       1.0000 0.07606  0.86050  0.64781  Biso   1.000  N
  N6       1.0000 0.57606  0.36050  0.64781  Biso   1.000  N
  N7       1.0000 0.92394  0.86050  0.85219  Biso   1.000  N
  N8       1.0000 0.42394  0.36050  0.85219  Biso   1.000  N
  O1       1.0000 0.95794  0.29530  0.54611  Biso   1.000  O
  O2       1.0000 0.45794  0.79530  0.54611  Biso   1.000  O
  O3       1.0000 0.04206  0.29530  0.95389  Biso   1.000  O
  O4       1.0000 0.54206  0.79530  0.95389  Biso   1.000  O
  O5       1.0000 0.04206  0.70470  0.45389  Biso   1.000  O
  O6       1.0000 0.54206  0.20470  0.45389  Biso   1.000  O
  O7       1.0000 0.95794  0.70470  0.04611  Biso   1.000  O
  O8       1.0000 0.45794  0.20470  0.04611  Biso   1.000  O
  O9       1.0000 0.89060  0.72850  0.46714  Biso   1.000  O
  O10      1.0000 0.39060  0.22850  0.46714  Biso   1.000  O
  O11      1.0000 0.10940  0.72850  0.03286  Biso   1.000  O
  O12      1.0000 0.60940  0.22850  0.03286  Biso   1.000  O
  O13      1.0000 0.10940  0.27150  0.53286  Biso   1.000  O
  O14      1.0000 0.60940  0.77150  0.53286  Biso   1.000  O
  O15      1.0000 0.89060  0.27150  0.96714  Biso   1.000  O
  O16      1.0000 0.39060  0.77150  0.96714  Biso   1.000  O
  O17      1.0000 0.81258  0.33980  0.44940  Biso   1.000  O
  O18      1.0000 0.31258  0.83980  0.44940  Biso   1.000  O
  O19      1.0000 0.18742  0.33980  0.05060  Biso   1.000  O
  O20      1.0000 0.68742  0.83980  0.05060  Biso   1.000  O
  O21      1.0000 0.18742  0.66020  0.55060  Biso   1.000  O
  O22      1.0000 0.68742  0.16020  0.55060  Biso   1.000  O
  O23      1.0000 0.81258  0.66020  0.94940  Biso   1.000  O
  O24      1.0000 0.31258  0.16020  0.94940  Biso   1.000  O
  S1       1.0000 0.88135  0.43615  0.46016  Biso   1.000  S
  S2       1.0000 0.38135  0.93615  0.46016  Biso   1.000  S
  S3       1.0000 0.11865  0.43615  0.03984  Biso   1.000  S
  S4       1.0000 0.61865  0.93615  0.03984  Biso   1.000  S
  S5       1.0000 0.11865  0.56385  0.53984  Biso   1.000  S
  S6       1.0000 0.61865  0.06385  0.53984  Biso   1.000  S
  S7       1.0000 0.88135  0.56385  0.96016  Biso   1.000  S
  S8       1.0000 0.38135  0.06385  0.96016  Biso   1.000  S
