data_image0
_cell_length_a       10.571
_cell_length_b       9.254
_cell_length_c       12.17
_cell_angle_alpha    90
_cell_angle_beta     90
_cell_angle_gamma    99

_symmetry_space_group_name_H-M    "P 1"
_symmetry_int_tables_number       1

loop_
  _symmetry_equiv_pos_as_xyz
  'x, y, z'

loop_
  _atom_site_label
  _atom_site_occupancy
  _atom_site_fract_x
  _atom_site_fract_y
  _atom_site_fract_z
  _atom_site_thermal_displace_type
  _atom_site_B_iso_or_equiv
  _atom_site_type_symbol
  Cu1      1.0000 0.13890  0.19350  0.12730  Biso   1.000  Cu
  Cu2      1.0000 0.86110  0.30650  0.62730  Biso   1.000  Cu
  Cu3      1.0000 0.86110  0.80650  0.87270  Biso   1.000  Cu
  Cu4      1.0000 0.13890  0.69350  0.37270  Biso   1.000  Cu
  C1       1.0000 0.26690  0.47610  0.16220  Biso   1.000  C
  C2       1.0000 0.73310  0.02390  0.66220  Biso   1.000  C
  C3       1.0000 0.73310  0.52390  0.83780  Biso   1.000  C
  C4       1.0000 0.26690  0.97610  0.33780  Biso   1.000  C
  O1       1.0000 0.17750  0.27340  0.27410  Biso   1.000  O
  O2       1.0000 0.82250  0.22660  0.77410  Biso   1.000  O
  O3       1.0000 0.82250  0.72660  0.72590  Biso   1.000  O
  O4       1.0000 0.17750  0.77340  0.22590  Biso   1.000  O
  C5       1.0000 0.22800  0.40840  0.27230  Biso   1.000  C
  C6       1.0000 0.77200  0.09160  0.77230  Biso   1.000  C
  C7       1.0000 0.77200  0.59160  0.72770  Biso   1.000  C
  C8       1.0000 0.22800  0.90840  0.22770  Biso   1.000  C
  O5       1.0000 0.11320  0.15650  0.97040  Biso   1.000  O
  O6       1.0000 0.88680  0.34350  0.47040  Biso   1.000  O
  O7       1.0000 0.88680  0.84350  0.02960  Biso   1.000  O
  O8       1.0000 0.11320  0.65650  0.52960  Biso   1.000  O
  C9       1.0000 0.22500  0.40170  0.96870  Biso   1.000  C
  C10      1.0000 0.77500  0.09830  0.46870  Biso   1.000  C
  C11      1.0000 0.77500  0.59830  0.03130  Biso   1.000  C
  C12      1.0000 0.22500  0.90170  0.53130  Biso   1.000  C
  O9       1.0000 0.24620  0.48630  0.35500  Biso   1.000  O
  O10      1.0000 0.75380  0.01370  0.85500  Biso   1.000  O
  O11      1.0000 0.75380  0.51370  0.64500  Biso   1.000  O
  O12      1.0000 0.24620  0.98630  0.14500  Biso   1.000  O
  C13      1.0000 0.15410  0.26650  0.91030  Biso   1.000  C
  C14      1.0000 0.84590  0.23350  0.41030  Biso   1.000  C
  C15      1.0000 0.84590  0.73350  0.08970  Biso   1.000  C
  C16      1.0000 0.15410  0.76650  0.58970  Biso   1.000  C
  O13      1.0000 0.13950  0.27190  0.80970  Biso   1.000  O
  O14      1.0000 0.86050  0.22810  0.30970  Biso   1.000  O
  O15      1.0000 0.86050  0.72810  0.19030  Biso   1.000  O
  O16      1.0000 0.13950  0.77190  0.69030  Biso   1.000  O
  C17      1.0000 0.39830  0.30940  0.07090  Biso   1.000  C
  C18      1.0000 0.60170  0.19060  0.57090  Biso   1.000  C
  C19      1.0000 0.60170  0.69060  0.92910  Biso   1.000  C
  C20      1.0000 0.39830  0.80940  0.42910  Biso   1.000  C
  O17      1.0000 0.74390  0.14720  0.05280  Biso   1.000  O
  O18      1.0000 0.25610  0.35280  0.55280  Biso   1.000  O
  O19      1.0000 0.25610  0.85280  0.94720  Biso   1.000  O
  O20      1.0000 0.74390  0.64720  0.44720  Biso   1.000  O
  C21      1.0000 0.42910  0.23820  0.97810  Biso   1.000  C
  C22      1.0000 0.57090  0.26180  0.47810  Biso   1.000  C
  C23      1.0000 0.57090  0.76180  0.02190  Biso   1.000  C
  C24      1.0000 0.42910  0.73820  0.52190  Biso   1.000  C
  O21      1.0000 0.99150  0.05210  0.17980  Biso   1.000  O
  O22      1.0000 0.00850  0.44790  0.67980  Biso   1.000  O
  O23      1.0000 0.00850  0.94790  0.82020  Biso   1.000  O
  O24      1.0000 0.99150  0.55210  0.32020  Biso   1.000  O
  C25      1.0000 0.54330  0.18320  0.97180  Biso   1.000  C
  C26      1.0000 0.45670  0.31680  0.47180  Biso   1.000  C
  C27      1.0000 0.45670  0.81680  0.02820  Biso   1.000  C
  C28      1.0000 0.54330  0.68320  0.52820  Biso   1.000  C
  O25      1.0000 0.96830  0.36100  0.10880  Biso   1.000  O
  O26      1.0000 0.03170  0.13900  0.60880  Biso   1.000  O
  O27      1.0000 0.03170  0.63900  0.89120  Biso   1.000  O
  O28      1.0000 0.96830  0.86100  0.39120  Biso   1.000  O
  C29      1.0000 0.62980  0.19850  0.05840  Biso   1.000  C
  C30      1.0000 0.37020  0.30150  0.55840  Biso   1.000  C
  C31      1.0000 0.37020  0.80150  0.94160  Biso   1.000  C
  C32      1.0000 0.62980  0.69850  0.44160  Biso   1.000  C
  N1       1.0000 0.27330  0.36330  0.07660  Biso   1.000  N
  N2       1.0000 0.72670  0.13670  0.57660  Biso   1.000  N
  N3       1.0000 0.72670  0.63670  0.92340  Biso   1.000  N
  N4       1.0000 0.27330  0.86330  0.42340  Biso   1.000  N
  C33      1.0000 0.59670  0.26900  0.15140  Biso   1.000  C
  C34      1.0000 0.40330  0.23100  0.65140  Biso   1.000  C
  C35      1.0000 0.40330  0.73100  0.84860  Biso   1.000  C
  C36      1.0000 0.59670  0.76900  0.34860  Biso   1.000  C
  C37      1.0000 0.48240  0.32230  0.15840  Biso   1.000  C
  C38      1.0000 0.51760  0.17770  0.65840  Biso   1.000  C
  C39      1.0000 0.51760  0.67770  0.84160  Biso   1.000  C
  C40      1.0000 0.48240  0.82230  0.34160  Biso   1.000  C
