data_image0
_cell_length_a       9.281
_cell_length_b       10.472
_cell_length_c       14.731
_cell_angle_alpha    77.108
_cell_angle_beta     75.56
_cell_angle_gamma    82.591

_symmetry_space_group_name_H-M    "P 1"
_symmetry_int_tables_number       1

loop_
  _symmetry_equiv_pos_as_xyz
  'x, y, z'

loop_
  _atom_site_label
  _atom_site_occupancy
  _atom_site_fract_x
  _atom_site_fract_y
  _atom_site_fract_z
  _atom_site_thermal_displace_type
  _atom_site_B_iso_or_equiv
  _atom_site_type_symbol
  Cu1      1.0000 0.50000  0.00000  0.50000  Biso   1.000  Cu
  O1       1.0000 0.36380  0.81530  0.50430  Biso   1.000  O
  O2       1.0000 0.63620  0.18470  0.49570  Biso   1.000  O
  N1       1.0000 0.66960  0.93400  0.40260  Biso   1.000  N
  N2       1.0000 0.33040  0.06600  0.59740  Biso   1.000  N
  N3       1.0000 0.81330  0.83270  0.29300  Biso   1.000  N
  N4       1.0000 0.18670  0.16730  0.70700  Biso   1.000  N
  N5       1.0000 0.04570  0.50530  0.01950  Biso   1.000  N
  N6       1.0000 0.95430  0.49470  0.98050  Biso   1.000  N
  N7       1.0000 0.39540  0.09760  0.39800  Biso   1.000  N
  N8       1.0000 0.60460  0.90240  0.60200  Biso   1.000  N
  N9       1.0000 0.27740  0.14150  0.28100  Biso   1.000  N
  N10      1.0000 0.72260  0.85850  0.71900  Biso   1.000  N
  N11      1.0000 0.98200  0.05360  0.01410  Biso   1.000  N
  N12      1.0000 0.01800  0.94640  0.98590  Biso   1.000  N
  N13      1.0000 0.19350  0.66370  0.54690  Biso   1.000  N
  N14      1.0000 0.80650  0.33630  0.45310  Biso   1.000  N
  C1       1.0000 0.67370  0.85040  0.34670  Biso   1.000  C
  C2       1.0000 0.32630  0.14960  0.65330  Biso   1.000  C
  H1       1.0000 0.59190  0.80930  0.34460  Biso   1.000  H
  H2       1.0000 0.40810  0.19070  0.65540  Biso   1.000  H
  C3       1.0000 0.81170  0.97130  0.38410  Biso   1.000  C
  C4       1.0000 0.18830  0.02870  0.61590  Biso   1.000  C
  H3       1.0000 0.84180  0.02980  0.41350  Biso   1.000  H
  H4       1.0000 0.15820  0.97020  0.58650  Biso   1.000  H
  C5       1.0000 0.90200  0.91010  0.31650  Biso   1.000  C
  C6       1.0000 0.09800  0.08990  0.68350  Biso   1.000  C
  H5       1.0000 0.00340  0.91870  0.29120  Biso   1.000  H
  H6       1.0000 0.99660  0.08130  0.70880  Biso   1.000  H
  C7       1.0000 0.86270  0.75090  0.22370  Biso   1.000  C
  C8       1.0000 0.13730  0.24910  0.77630  Biso   1.000  C
  C9       1.0000 0.76550  0.72690  0.17280  Biso   1.000  C
  C10      1.0000 0.23450  0.27310  0.82720  Biso   1.000  C
  H7       1.0000 0.66800  0.76470  0.18210  Biso   1.000  H
  H8       1.0000 0.33200  0.23530  0.81790  Biso   1.000  H
  C11      1.0000 0.81820  0.64420  0.10700  Biso   1.000  C
  C12      1.0000 0.18180  0.35580  0.89300  Biso   1.000  C
  H9       1.0000 0.75440  0.62450  0.07330  Biso   1.000  H
  H10      1.0000 0.24560  0.37550  0.92670  Biso   1.000  H
  C13      1.0000 0.96550  0.59140  0.09190  Biso   1.000  C
  C14      1.0000 0.03450  0.40860  0.90810  Biso   1.000  C
  C15      1.0000 0.06010  0.61650  0.14230  Biso   1.000  C
  C16      1.0000 0.93990  0.38350  0.85770  Biso   1.000  C
  H11      1.0000 0.15820  0.58000  0.13220  Biso   1.000  H
  H12      1.0000 0.84180  0.42000  0.86780  Biso   1.000  H
  C17      1.0000 0.00880  0.69670  0.20890  Biso   1.000  C
  C18      1.0000 0.99120  0.30330  0.79110  Biso   1.000  C
  H13      1.0000 0.07260  0.71420  0.24360  Biso   1.000  H
  H14      1.0000 0.92740  0.28580  0.75640  Biso   1.000  H
  C19      1.0000 0.34370  0.04690  0.33920  Biso   1.000  C
  C20      1.0000 0.65630  0.95310  0.66080  Biso   1.000  C
  H15      1.0000 0.35170  0.95780  0.33810  Biso   1.000  H
  H16      1.0000 0.64830  0.04220  0.66190  Biso   1.000  H
  C21      1.0000 0.36080  0.23150  0.37600  Biso   1.000  C
  C22      1.0000 0.63920  0.76850  0.62400  Biso   1.000  C
  H17      1.0000 0.38380  0.29260  0.40630  Biso   1.000  H
  H18      1.0000 0.61620  0.70740  0.59370  Biso   1.000  H
  C23      1.0000 0.28860  0.26060  0.30430  Biso   1.000  C
  C24      1.0000 0.71140  0.73940  0.69570  Biso   1.000  C
  H19      1.0000 0.25360  0.34350  0.27620  Biso   1.000  H
  H20      1.0000 0.74640  0.65650  0.72380  Biso   1.000  H
  C25      1.0000 0.20640  0.12070  0.21010  Biso   1.000  C
  C26      1.0000 0.79360  0.87930  0.78990  Biso   1.000  C
  C27      1.0000 0.08560  0.20410  0.18860  Biso   1.000  C
  C28      1.0000 0.91440  0.79590  0.81140  Biso   1.000  C
  H21      1.0000 0.05170  0.27530  0.21850  Biso   1.000  H
  H22      1.0000 0.94830  0.72470  0.78150  Biso   1.000  H
  C29      1.0000 0.01620  0.17950  0.12160  Biso   1.000  C
  C30      1.0000 0.98380  0.82050  0.87840  Biso   1.000  C
  H23      1.0000 0.93640  0.23560  0.10530  Biso   1.000  H
  H24      1.0000 0.06360  0.76440  0.89470  Biso   1.000  H
  C31      1.0000 0.06590  0.07150  0.07890  Biso   1.000  C
  C32      1.0000 0.93410  0.92850  0.92110  Biso   1.000  C
  C33      1.0000 0.18820  0.99040  0.09920  Biso   1.000  C
  C34      1.0000 0.81180  0.00960  0.90080  Biso   1.000  C
  H25      1.0000 0.22180  0.91940  0.06910  Biso   1.000  H
  H26      1.0000 0.77820  0.08060  0.93090  Biso   1.000  H
  C35      1.0000 0.26100  0.01510  0.16470  Biso   1.000  C
  C36      1.0000 0.73900  0.98490  0.83530  Biso   1.000  C
  H27      1.0000 0.34460  0.96210  0.17790  Biso   1.000  H
  H28      1.0000 0.65540  0.03790  0.82210  Biso   1.000  H
  C37      1.0000 0.32580  0.70440  0.53950  Biso   1.000  C
  C38      1.0000 0.67420  0.29560  0.46050  Biso   1.000  C
  H29      1.0000 0.39600  0.64310  0.56320  Biso   1.000  H
  H30      1.0000 0.60400  0.35690  0.43680  Biso   1.000  H
  C39      1.0000 0.08090  0.74700  0.50440  Biso   1.000  C
  C40      1.0000 0.91910  0.25300  0.49560  Biso   1.000  C
  H31      1.0000 0.99310  0.70040  0.51740  Biso   1.000  H
  H32      1.0000 0.00690  0.29960  0.48260  Biso   1.000  H
  H33      1.0000 0.11850  0.77110  0.43650  Biso   1.000  H
  H34      1.0000 0.88150  0.22890  0.56350  Biso   1.000  H
  H35      1.0000 0.05640  0.82480  0.53110  Biso   1.000  H
  H36      1.0000 0.94360  0.17520  0.46890  Biso   1.000  H
  C41      1.0000 0.15910  0.52820  0.58890  Biso   1.000  C
  C42      1.0000 0.84090  0.47180  0.41110  Biso   1.000  C
  H37      1.0000 0.05820  0.51780  0.58790  Biso   1.000  H
  H38      1.0000 0.94180  0.48220  0.41210  Biso   1.000  H
  H39      1.0000 0.17010  0.50730  0.65380  Biso   1.000  H
  H40      1.0000 0.82990  0.49270  0.34620  Biso   1.000  H
  H41      1.0000 0.22620  0.47030  0.55270  Biso   1.000  H
  H42      1.0000 0.77380  0.52970  0.44730  Biso   1.000  H
  Cl1      1.0000 0.36796  0.61132  0.30092  Biso   1.000  Cl
  Cl2      1.0000 0.63204  0.38868  0.69908  Biso   1.000  Cl
  O3       1.0000 0.33950  0.74830  0.30040  Biso   1.000  O
  O4       1.0000 0.66050  0.25170  0.69960  Biso   1.000  O
  O5       1.0000 0.23850  0.54370  0.35230  Biso   1.000  O
  O6       1.0000 0.76150  0.45630  0.64770  Biso   1.000  O
  O7       1.0000 0.40520  0.59000  0.20560  Biso   1.000  O
  O8       1.0000 0.59480  0.41000  0.79440  Biso   1.000  O
  O9       1.0000 0.48780  0.56290  0.34770  Biso   1.000  O
  O10      1.0000 0.51220  0.43710  0.65230  Biso   1.000  O
  O11      1.0000 0.61010  0.01520  0.14190  Biso   1.000  O
  O12      1.0000 0.38990  0.98480  0.85810  Biso   1.000  O
  N15      1.0000 0.58840  0.22840  0.10370  Biso   1.000  N
  N16      1.0000 0.41160  0.77160  0.89630  Biso   1.000  N
  C43      1.0000 0.62900  0.11580  0.15480  Biso   1.000  C
  C44      1.0000 0.37100  0.88420  0.84520  Biso   1.000  C
  H43      1.0000 0.67530  0.11740  0.20370  Biso   1.000  H
  H44      1.0000 0.32470  0.88260  0.79630  Biso   1.000  H
  C45      1.0000 0.51500  0.22990  0.02640  Biso   1.000  C
  C46      1.0000 0.48500  0.77010  0.97360  Biso   1.000  C
  H45      1.0000 0.49290  0.31920  0.99620  Biso   1.000  H
  H46      1.0000 0.50710  0.68080  0.00380  Biso   1.000  H
  H47      1.0000 0.42320  0.18740  0.05210  Biso   1.000  H
  H48      1.0000 0.57680  0.81260  0.94790  Biso   1.000  H
  H49      1.0000 0.57900  0.18420  0.98000  Biso   1.000  H
  H50      1.0000 0.42100  0.81580  0.02000  Biso   1.000  H
  C47      1.0000 0.62600  0.34200  0.13090  Biso   1.000  C
  C48      1.0000 0.37400  0.65800  0.86910  Biso   1.000  C
  H51      1.0000 0.59390  0.42070  0.09050  Biso   1.000  H
  H52      1.0000 0.40610  0.57930  0.90950  Biso   1.000  H
  H53      1.0000 0.73180  0.33880  0.12390  Biso   1.000  H
  H54      1.0000 0.26820  0.66120  0.87610  Biso   1.000  H
  H55      1.0000 0.57640  0.34330  0.19630  Biso   1.000  H
  H56      1.0000 0.42360  0.65670  0.80370  Biso   1.000  H
