data_image0
_cell_length_a       8.5065
_cell_length_b       10.417
_cell_length_c       17.653
_cell_angle_alpha    90
_cell_angle_beta     99.18
_cell_angle_gamma    90

_symmetry_space_group_name_H-M    "P 1"
_symmetry_int_tables_number       1

loop_
  _symmetry_equiv_pos_as_xyz
  'x, y, z'

loop_
  _atom_site_label
  _atom_site_occupancy
  _atom_site_fract_x
  _atom_site_fract_y
  _atom_site_fract_z
  _atom_site_thermal_displace_type
  _atom_site_B_iso_or_equiv
  _atom_site_type_symbol
  Cu1      1.0000 0.26838  0.10289  0.51169  Biso   1.000  Cu
  Cu2      1.0000 0.23162  0.60289  0.98831  Biso   1.000  Cu
  Cu3      1.0000 0.73162  0.89711  0.48831  Biso   1.000  Cu
  Cu4      1.0000 0.76838  0.39711  0.01169  Biso   1.000  Cu
  Cl1      1.0000 0.81810  0.42160  0.66052  Biso   1.000  Cl
  Cl2      1.0000 0.68190  0.92160  0.83948  Biso   1.000  Cl
  Cl3      1.0000 0.18190  0.57840  0.33948  Biso   1.000  Cl
  Cl4      1.0000 0.31810  0.07840  0.16052  Biso   1.000  Cl
  O1       1.0000 0.98450  0.43030  0.68350  Biso   1.000  O
  O2       1.0000 0.51550  0.93030  0.81650  Biso   1.000  O
  O3       1.0000 0.01550  0.56970  0.31650  Biso   1.000  O
  O4       1.0000 0.48450  0.06970  0.18350  Biso   1.000  O
  O5       1.0000 0.75310  0.33700  0.70910  Biso   1.000  O
  O6       1.0000 0.74690  0.83700  0.79090  Biso   1.000  O
  O7       1.0000 0.24690  0.66300  0.29090  Biso   1.000  O
  O8       1.0000 0.25310  0.16300  0.20910  Biso   1.000  O
  O9       1.0000 0.74990  0.54450  0.66360  Biso   1.000  O
  O10      1.0000 0.75010  0.04450  0.83640  Biso   1.000  O
  O11      1.0000 0.25010  0.45550  0.33640  Biso   1.000  O
  O12      1.0000 0.24990  0.95550  0.16360  Biso   1.000  O
  O13      1.0000 0.78710  0.37380  0.58480  Biso   1.000  O
  O14      1.0000 0.71290  0.87380  0.91520  Biso   1.000  O
  O15      1.0000 0.21290  0.62620  0.41520  Biso   1.000  O
  O16      1.0000 0.28710  0.12620  0.08480  Biso   1.000  O
  O17      1.0000 0.28010  0.92530  0.54670  Biso   1.000  O
  O18      1.0000 0.21990  0.42530  0.95330  Biso   1.000  O
  O19      1.0000 0.71990  0.07470  0.45330  Biso   1.000  O
  O20      1.0000 0.78010  0.57470  0.04670  Biso   1.000  O
  O21      1.0000 0.54510  0.90700  0.56770  Biso   1.000  O
  O22      1.0000 0.95490  0.40700  0.93230  Biso   1.000  O
  O23      1.0000 0.45490  0.09300  0.43230  Biso   1.000  O
  O24      1.0000 0.04510  0.59300  0.06770  Biso   1.000  O
  C1       1.0000 0.40960  0.86420  0.56750  Biso   1.000  C
  C2       1.0000 0.09040  0.36420  0.93250  Biso   1.000  C
  C3       1.0000 0.59040  0.13580  0.43250  Biso   1.000  C
  C4       1.0000 0.90960  0.63580  0.06750  Biso   1.000  C
  C5       1.0000 0.39190  0.73020  0.59890  Biso   1.000  C
  C6       1.0000 0.10810  0.23020  0.90110  Biso   1.000  C
  C7       1.0000 0.60810  0.26980  0.40110  Biso   1.000  C
  C8       1.0000 0.89190  0.76980  0.09890  Biso   1.000  C
  N1       1.0000 0.41910  0.18810  0.60070  Biso   1.000  N
  N2       1.0000 0.08090  0.68810  0.89930  Biso   1.000  N
  N3       1.0000 0.58090  0.81190  0.39930  Biso   1.000  N
  N4       1.0000 0.91910  0.31190  0.10070  Biso   1.000  N
  C9       1.0000 0.39690  0.32820  0.59510  Biso   1.000  C
  C10      1.0000 0.10310  0.82820  0.90490  Biso   1.000  C
  C11      1.0000 0.60310  0.67180  0.40490  Biso   1.000  C
  C12      1.0000 0.89690  0.17180  0.09510  Biso   1.000  C
  C13      1.0000 0.23970  0.35890  0.55280  Biso   1.000  C
  C14      1.0000 0.26030  0.85890  0.94720  Biso   1.000  C
  C15      1.0000 0.76030  0.64110  0.44720  Biso   1.000  C
  C16      1.0000 0.73970  0.14110  0.05280  Biso   1.000  C
  N5       1.0000 0.20060  0.28440  0.48520  Biso   1.000  N
  N6       1.0000 0.29940  0.78440  0.01480  Biso   1.000  N
  N7       1.0000 0.79940  0.71560  0.51480  Biso   1.000  N
  N8       1.0000 0.70060  0.21560  0.98520  Biso   1.000  N
  C17      1.0000 0.04030  0.28460  0.44140  Biso   1.000  C
  C18      1.0000 0.45970  0.78460  0.05860  Biso   1.000  C
  C19      1.0000 0.95970  0.71540  0.55860  Biso   1.000  C
  C20      1.0000 0.54030  0.21540  0.94140  Biso   1.000  C
  C21      1.0000 0.04370  0.18380  0.38060  Biso   1.000  C
  C22      1.0000 0.45630  0.68380  0.11940  Biso   1.000  C
  C23      1.0000 0.95630  0.81620  0.61940  Biso   1.000  C
  C24      1.0000 0.54370  0.31620  0.88060  Biso   1.000  C
  N9       1.0000 0.09060  0.06030  0.42270  Biso   1.000  N
  N10      1.0000 0.40940  0.56030  0.07730  Biso   1.000  N
  N11      1.0000 0.90940  0.93970  0.57730  Biso   1.000  N
  N12      1.0000 0.59060  0.43970  0.92270  Biso   1.000  N
  C25      1.0000 0.13320  0.95560  0.36880  Biso   1.000  C
  C26      1.0000 0.36680  0.45560  0.13120  Biso   1.000  C
  C27      1.0000 0.86680  0.04440  0.63120  Biso   1.000  C
  C28      1.0000 0.63320  0.54440  0.86880  Biso   1.000  C
  C29      1.0000 0.99940  0.92290  0.30760  Biso   1.000  C
  C30      1.0000 0.50060  0.42290  0.19240  Biso   1.000  C
  C31      1.0000 0.00060  0.07710  0.69240  Biso   1.000  C
  C32      1.0000 0.49940  0.57710  0.80760  Biso   1.000  C
  O25      1.0000 0.86070  0.89690  0.34260  Biso   1.000  O
  O26      1.0000 0.63930  0.39690  0.15740  Biso   1.000  O
  O27      1.0000 0.13930  0.10310  0.65740  Biso   1.000  O
  O28      1.0000 0.36070  0.60310  0.84260  Biso   1.000  O
  C33      1.0000 0.73090  0.84660  0.29110  Biso   1.000  C
  C34      1.0000 0.76910  0.34660  0.20890  Biso   1.000  C
  C35      1.0000 0.26910  0.15340  0.70890  Biso   1.000  C
  C36      1.0000 0.23090  0.65340  0.79110  Biso   1.000  C
  C37      1.0000 0.42450  0.13420  0.67930  Biso   1.000  C
  C38      1.0000 0.07550  0.63420  0.82070  Biso   1.000  C
  C39      1.0000 0.57550  0.86580  0.32070  Biso   1.000  C
  C40      1.0000 0.92450  0.36580  0.17930  Biso   1.000  C
  H1       1.0000 0.29320  0.72010  0.61700  Biso   1.000  H
  H2       1.0000 0.20680  0.22010  0.88300  Biso   1.000  H
  H3       1.0000 0.70680  0.27990  0.38300  Biso   1.000  H
  H4       1.0000 0.79320  0.77990  0.11700  Biso   1.000  H
  H5       1.0000 0.39900  0.66920  0.55950  Biso   1.000  H
  H6       1.0000 0.10100  0.16920  0.94050  Biso   1.000  H
  H7       1.0000 0.60100  0.33080  0.44050  Biso   1.000  H
  H8       1.0000 0.89900  0.83080  0.05950  Biso   1.000  H
  H9       1.0000 0.47720  0.71720  0.64000  Biso   1.000  H
  H10      1.0000 0.02280  0.21720  0.86000  Biso   1.000  H
  H11      1.0000 0.52280  0.28280  0.36000  Biso   1.000  H
  H12      1.0000 0.97720  0.78280  0.14000  Biso   1.000  H
  H13      1.0000 0.51030  0.16930  0.58560  Biso   1.000  H
  H14      1.0000 0.98970  0.66930  0.91440  Biso   1.000  H
  H15      1.0000 0.48970  0.83070  0.41440  Biso   1.000  H
  H16      1.0000 0.01030  0.33070  0.08560  Biso   1.000  H
  H17      1.0000 0.47640  0.36490  0.56950  Biso   1.000  H
  H18      1.0000 0.02360  0.86490  0.93050  Biso   1.000  H
  H19      1.0000 0.52360  0.63510  0.43050  Biso   1.000  H
  H20      1.0000 0.97640  0.13510  0.06950  Biso   1.000  H
  H21      1.0000 0.40570  0.36300  0.64540  Biso   1.000  H
  H22      1.0000 0.09430  0.86300  0.85460  Biso   1.000  H
  H23      1.0000 0.59430  0.63700  0.35460  Biso   1.000  H
  H24      1.0000 0.90570  0.13700  0.14540  Biso   1.000  H
  H25      1.0000 0.23750  0.44740  0.53970  Biso   1.000  H
  H26      1.0000 0.26250  0.94740  0.96030  Biso   1.000  H
  H27      1.0000 0.76250  0.55260  0.46030  Biso   1.000  H
  H28      1.0000 0.73750  0.05260  0.03970  Biso   1.000  H
  H29      1.0000 0.16180  0.34210  0.58460  Biso   1.000  H
  H30      1.0000 0.33820  0.84210  0.91540  Biso   1.000  H
  H31      1.0000 0.83820  0.65790  0.41540  Biso   1.000  H
  H32      1.0000 0.66180  0.15790  0.08460  Biso   1.000  H
  H33      1.0000 0.26230  0.31400  0.45160  Biso   1.000  H
  H34      1.0000 0.23770  0.81400  0.04840  Biso   1.000  H
  H35      1.0000 0.73770  0.68600  0.54840  Biso   1.000  H
  H36      1.0000 0.76230  0.18600  0.95160  Biso   1.000  H
  H37      1.0000 0.96580  0.26230  0.47400  Biso   1.000  H
  H38      1.0000 0.53420  0.76230  0.02600  Biso   1.000  H
  H39      1.0000 0.03420  0.73770  0.52600  Biso   1.000  H
  H40      1.0000 0.46580  0.23770  0.97400  Biso   1.000  H
  H41      1.0000 0.01350  0.36610  0.41880  Biso   1.000  H
  H42      1.0000 0.48650  0.86610  0.08120  Biso   1.000  H
  H43      1.0000 0.98650  0.63390  0.58120  Biso   1.000  H
  H44      1.0000 0.51350  0.13390  0.91880  Biso   1.000  H
  H45      1.0000 0.12090  0.20530  0.34910  Biso   1.000  H
  H46      1.0000 0.37910  0.70530  0.15090  Biso   1.000  H
  H47      1.0000 0.87910  0.79470  0.65090  Biso   1.000  H
  H48      1.0000 0.62090  0.29470  0.84910  Biso   1.000  H
  H49      1.0000 0.94190  0.17610  0.34960  Biso   1.000  H
  H50      1.0000 0.55810  0.67610  0.15040  Biso   1.000  H
  H51      1.0000 0.05810  0.82390  0.65040  Biso   1.000  H
  H52      1.0000 0.44190  0.32390  0.84960  Biso   1.000  H
  H53      1.0000 0.00990  0.03360  0.44410  Biso   1.000  H
  H54      1.0000 0.49010  0.53360  0.05590  Biso   1.000  H
  H55      1.0000 0.99010  0.96640  0.55590  Biso   1.000  H
  H56      1.0000 0.50990  0.46640  0.94410  Biso   1.000  H
  H57      1.0000 0.21580  0.89710  0.38790  Biso   1.000  H
  H58      1.0000 0.28420  0.39710  0.11210  Biso   1.000  H
  H59      1.0000 0.78420  0.10290  0.61210  Biso   1.000  H
  H60      1.0000 0.71580  0.60290  0.88790  Biso   1.000  H
  H61      1.0000 0.97880  0.99280  0.27280  Biso   1.000  H
  H62      1.0000 0.52120  0.49280  0.22720  Biso   1.000  H
  H63      1.0000 0.02120  0.00720  0.72720  Biso   1.000  H
  H64      1.0000 0.47880  0.50720  0.77280  Biso   1.000  H
  H65      1.0000 0.02590  0.84890  0.28070  Biso   1.000  H
  H66      1.0000 0.47410  0.34890  0.21930  Biso   1.000  H
  H67      1.0000 0.97410  0.15110  0.71930  Biso   1.000  H
  H68      1.0000 0.52590  0.65110  0.78070  Biso   1.000  H
  H69      1.0000 0.74740  0.75730  0.28470  Biso   1.000  H
  H70      1.0000 0.75260  0.25730  0.21530  Biso   1.000  H
  H71      1.0000 0.25260  0.24270  0.71530  Biso   1.000  H
  H72      1.0000 0.24740  0.74270  0.78470  Biso   1.000  H
  H73      1.0000 0.72490  0.88870  0.24300  Biso   1.000  H
  H74      1.0000 0.77510  0.38870  0.25700  Biso   1.000  H
  H75      1.0000 0.27510  0.11130  0.75700  Biso   1.000  H
  H76      1.0000 0.22490  0.61130  0.74300  Biso   1.000  H
  H77      1.0000 0.44620  0.04480  0.67810  Biso   1.000  H
  H78      1.0000 0.05380  0.54480  0.82190  Biso   1.000  H
  H79      1.0000 0.55380  0.95520  0.32190  Biso   1.000  H
  H80      1.0000 0.94620  0.45520  0.17810  Biso   1.000  H
  H81      1.0000 0.50710  0.17570  0.71320  Biso   1.000  H
  H82      1.0000 0.99290  0.67570  0.78680  Biso   1.000  H
  H83      1.0000 0.49290  0.82430  0.28680  Biso   1.000  H
  H84      1.0000 0.00710  0.32430  0.21320  Biso   1.000  H
