data_image0
_cell_length_a       23.724
_cell_length_b       6.9405
_cell_length_c       24.043
_cell_angle_alpha    90
_cell_angle_beta     117.272
_cell_angle_gamma    90

_symmetry_space_group_name_H-M    "P 1"
_symmetry_int_tables_number       1

loop_
  _symmetry_equiv_pos_as_xyz
  'x, y, z'

loop_
  _atom_site_label
  _atom_site_occupancy
  _atom_site_fract_x
  _atom_site_fract_y
  _atom_site_fract_z
  _atom_site_thermal_displace_type
  _atom_site_B_iso_or_equiv
  _atom_site_type_symbol
  Cu1      1.0000 0.26296  0.08208  0.98431  Biso   1.000  Cu
  Cu2      1.0000 0.76296  0.58208  0.98431  Biso   1.000  Cu
  Cu3      1.0000 0.73704  0.08208  0.51569  Biso   1.000  Cu
  Cu4      1.0000 0.23704  0.58208  0.51569  Biso   1.000  Cu
  Cu5      1.0000 0.73704  0.91792  0.01569  Biso   1.000  Cu
  Cu6      1.0000 0.23704  0.41792  0.01569  Biso   1.000  Cu
  Cu7      1.0000 0.26296  0.91792  0.48431  Biso   1.000  Cu
  Cu8      1.0000 0.76296  0.41792  0.48431  Biso   1.000  Cu
  O1       1.0000 0.17527  0.01050  0.96456  Biso   1.000  O
  O2       1.0000 0.67527  0.51050  0.96456  Biso   1.000  O
  O3       1.0000 0.82473  0.01050  0.53544  Biso   1.000  O
  O4       1.0000 0.32473  0.51050  0.53544  Biso   1.000  O
  O5       1.0000 0.82473  0.98950  0.03544  Biso   1.000  O
  O6       1.0000 0.32473  0.48950  0.03544  Biso   1.000  O
  O7       1.0000 0.17527  0.98950  0.46456  Biso   1.000  O
  O8       1.0000 0.67527  0.48950  0.46456  Biso   1.000  O
  C1       1.0000 0.13800  0.13610  0.96780  Biso   1.000  C
  C2       1.0000 0.63800  0.63610  0.96780  Biso   1.000  C
  C3       1.0000 0.86200  0.13610  0.53220  Biso   1.000  C
  C4       1.0000 0.36200  0.63610  0.53220  Biso   1.000  C
  C5       1.0000 0.86200  0.86390  0.03220  Biso   1.000  C
  C6       1.0000 0.36200  0.36390  0.03220  Biso   1.000  C
  C7       1.0000 0.13800  0.86390  0.46780  Biso   1.000  C
  C8       1.0000 0.63800  0.36390  0.46780  Biso   1.000  C
  O9       1.0000 0.15303  0.30380  0.98845  Biso   1.000  O
  O10      1.0000 0.65303  0.80380  0.98845  Biso   1.000  O
  O11      1.0000 0.84697  0.30380  0.51155  Biso   1.000  O
  O12      1.0000 0.34697  0.80380  0.51155  Biso   1.000  O
  O13      1.0000 0.84697  0.69620  0.01155  Biso   1.000  O
  O14      1.0000 0.34697  0.19620  0.01155  Biso   1.000  O
  O15      1.0000 0.15303  0.69620  0.48845  Biso   1.000  O
  O16      1.0000 0.65303  0.19620  0.48845  Biso   1.000  O
  C9       1.0000 0.07040  0.07690  0.94600  Biso   1.000  C
  C10      1.0000 0.57040  0.57690  0.94600  Biso   1.000  C
  C11      1.0000 0.92960  0.07690  0.55400  Biso   1.000  C
  C12      1.0000 0.42960  0.57690  0.55400  Biso   1.000  C
  C13      1.0000 0.92960  0.92310  0.05400  Biso   1.000  C
  C14      1.0000 0.42960  0.42310  0.05400  Biso   1.000  C
  C15      1.0000 0.07040  0.92310  0.44600  Biso   1.000  C
  C16      1.0000 0.57040  0.42310  0.44600  Biso   1.000  C
  C17      1.0000 0.02790  0.20530  0.95070  Biso   1.000  C
  C18      1.0000 0.52790  0.70530  0.95070  Biso   1.000  C
  C19      1.0000 0.97210  0.20530  0.54930  Biso   1.000  C
  C20      1.0000 0.47210  0.70530  0.54930  Biso   1.000  C
  C21      1.0000 0.97210  0.79470  0.04930  Biso   1.000  C
  C22      1.0000 0.47210  0.29470  0.04930  Biso   1.000  C
  C23      1.0000 0.02790  0.79470  0.45070  Biso   1.000  C
  C24      1.0000 0.52790  0.29470  0.45070  Biso   1.000  C
  C25      1.0000 0.96500  0.15080  0.93050  Biso   1.000  C
  C26      1.0000 0.46500  0.65080  0.93050  Biso   1.000  C
  C27      1.0000 0.03500  0.15080  0.56950  Biso   1.000  C
  C28      1.0000 0.53500  0.65080  0.56950  Biso   1.000  C
  C29      1.0000 0.03500  0.84920  0.06950  Biso   1.000  C
  C30      1.0000 0.53500  0.34920  0.06950  Biso   1.000  C
  C31      1.0000 0.96500  0.84920  0.43050  Biso   1.000  C
  C32      1.0000 0.46500  0.34920  0.43050  Biso   1.000  C
  C33      1.0000 0.94530  0.96880  0.90480  Biso   1.000  C
  C34      1.0000 0.44530  0.46880  0.90480  Biso   1.000  C
  C35      1.0000 0.05470  0.96880  0.59520  Biso   1.000  C
  C36      1.0000 0.55470  0.46880  0.59520  Biso   1.000  C
  C37      1.0000 0.05470  0.03120  0.09520  Biso   1.000  C
  C38      1.0000 0.55470  0.53120  0.09520  Biso   1.000  C
  C39      1.0000 0.94530  0.03120  0.40480  Biso   1.000  C
  C40      1.0000 0.44530  0.53120  0.40480  Biso   1.000  C
  S1       1.0000 0.86352  0.91550  0.88061  Biso   1.000  S
  S2       1.0000 0.36352  0.41550  0.88061  Biso   1.000  S
  S3       1.0000 0.13648  0.91550  0.61939  Biso   1.000  S
  S4       1.0000 0.63648  0.41550  0.61939  Biso   1.000  S
  S5       1.0000 0.13648  0.08450  0.11939  Biso   1.000  S
  S6       1.0000 0.63648  0.58450  0.11939  Biso   1.000  S
  S7       1.0000 0.86352  0.08450  0.38061  Biso   1.000  S
  S8       1.0000 0.36352  0.58450  0.38061  Biso   1.000  S
  S9       1.0000 0.85737  0.62516  0.87528  Biso   1.000  S
  S10      1.0000 0.35737  0.12516  0.87528  Biso   1.000  S
  S11      1.0000 0.14263  0.62516  0.62472  Biso   1.000  S
  S12      1.0000 0.64263  0.12516  0.62472  Biso   1.000  S
  S13      1.0000 0.14263  0.37484  0.12472  Biso   1.000  S
  S14      1.0000 0.64263  0.87484  0.12472  Biso   1.000  S
  S15      1.0000 0.85737  0.37484  0.37528  Biso   1.000  S
  S16      1.0000 0.35737  0.87484  0.37528  Biso   1.000  S
  C41      1.0000 0.83940  0.56520  0.79680  Biso   1.000  C
  C42      1.0000 0.33940  0.06520  0.79680  Biso   1.000  C
  C43      1.0000 0.16060  0.56520  0.70320  Biso   1.000  C
  C44      1.0000 0.66060  0.06520  0.70320  Biso   1.000  C
  C45      1.0000 0.16060  0.43480  0.20320  Biso   1.000  C
  C46      1.0000 0.66060  0.93480  0.20320  Biso   1.000  C
  C47      1.0000 0.83940  0.43480  0.29680  Biso   1.000  C
  C48      1.0000 0.33940  0.93480  0.29680  Biso   1.000  C
  C49      1.0000 0.81820  0.37820  0.77880  Biso   1.000  C
  C50      1.0000 0.31820  0.87820  0.77880  Biso   1.000  C
  C51      1.0000 0.18180  0.37820  0.72120  Biso   1.000  C
  C52      1.0000 0.68180  0.87820  0.72120  Biso   1.000  C
  C53      1.0000 0.18180  0.62180  0.22120  Biso   1.000  C
  C54      1.0000 0.68180  0.12180  0.22120  Biso   1.000  C
  C55      1.0000 0.81820  0.62180  0.27880  Biso   1.000  C
  C56      1.0000 0.31820  0.12180  0.27880  Biso   1.000  C
  C57      1.0000 0.80330  0.31770  0.71890  Biso   1.000  C
  C58      1.0000 0.30330  0.81770  0.71890  Biso   1.000  C
  C59      1.0000 0.19670  0.31770  0.78110  Biso   1.000  C
  C60      1.0000 0.69670  0.81770  0.78110  Biso   1.000  C
  C61      1.0000 0.19670  0.68230  0.28110  Biso   1.000  C
  C62      1.0000 0.69670  0.18230  0.28110  Biso   1.000  C
  C63      1.0000 0.80330  0.68230  0.21890  Biso   1.000  C
  C64      1.0000 0.30330  0.18230  0.21890  Biso   1.000  C
  C65      1.0000 0.80820  0.44210  0.67620  Biso   1.000  C
  C66      1.0000 0.30820  0.94210  0.67620  Biso   1.000  C
  C67      1.0000 0.19180  0.44210  0.82380  Biso   1.000  C
  C68      1.0000 0.69180  0.94210  0.82380  Biso   1.000  C
  C69      1.0000 0.19180  0.55790  0.32380  Biso   1.000  C
  C70      1.0000 0.69180  0.05790  0.32380  Biso   1.000  C
  C71      1.0000 0.80820  0.55790  0.17620  Biso   1.000  C
  C72      1.0000 0.30820  0.05790  0.17620  Biso   1.000  C
  C73      1.0000 0.82950  0.62990  0.69450  Biso   1.000  C
  C74      1.0000 0.32950  0.12990  0.69450  Biso   1.000  C
  C75      1.0000 0.17050  0.62990  0.80550  Biso   1.000  C
  C76      1.0000 0.67050  0.12990  0.80550  Biso   1.000  C
  C77      1.0000 0.17050  0.37010  0.30550  Biso   1.000  C
  C78      1.0000 0.67050  0.87010  0.30550  Biso   1.000  C
  C79      1.0000 0.82950  0.37010  0.19450  Biso   1.000  C
  C80      1.0000 0.32950  0.87010  0.19450  Biso   1.000  C
  C81      1.0000 0.84530  0.69040  0.75520  Biso   1.000  C
  C82      1.0000 0.34530  0.19040  0.75520  Biso   1.000  C
  C83      1.0000 0.15470  0.69040  0.74480  Biso   1.000  C
  C84      1.0000 0.65470  0.19040  0.74480  Biso   1.000  C
  C85      1.0000 0.15470  0.30960  0.24480  Biso   1.000  C
  C86      1.0000 0.65470  0.80960  0.24480  Biso   1.000  C
  C87      1.0000 0.84530  0.30960  0.25520  Biso   1.000  C
  C88      1.0000 0.34530  0.80960  0.25520  Biso   1.000  C
  C89      1.0000 0.78790  0.37450  0.61030  Biso   1.000  C
  C90      1.0000 0.28790  0.87450  0.61030  Biso   1.000  C
  C91      1.0000 0.21210  0.37450  0.88970  Biso   1.000  C
  C92      1.0000 0.71210  0.87450  0.88970  Biso   1.000  C
  C93      1.0000 0.21210  0.62550  0.38970  Biso   1.000  C
  C94      1.0000 0.71210  0.12550  0.38970  Biso   1.000  C
  C95      1.0000 0.78790  0.62550  0.11030  Biso   1.000  C
  C96      1.0000 0.28790  0.12550  0.11030  Biso   1.000  C
  O17      1.0000 0.78929  0.49820  0.57193  Biso   1.000  O
  O18      1.0000 0.28929  0.99820  0.57193  Biso   1.000  O
  O19      1.0000 0.21071  0.49820  0.92807  Biso   1.000  O
  O20      1.0000 0.71071  0.99820  0.92807  Biso   1.000  O
  O21      1.0000 0.21071  0.50180  0.42807  Biso   1.000  O
  O22      1.0000 0.71071  0.00180  0.42807  Biso   1.000  O
  O23      1.0000 0.78929  0.50180  0.07193  Biso   1.000  O
  O24      1.0000 0.28929  0.00180  0.07193  Biso   1.000  O
  O25      1.0000 0.77084  0.20290  0.59797  Biso   1.000  O
  O26      1.0000 0.27084  0.70290  0.59797  Biso   1.000  O
  O27      1.0000 0.22916  0.20290  0.90203  Biso   1.000  O
  O28      1.0000 0.72916  0.70290  0.90203  Biso   1.000  O
  O29      1.0000 0.22916  0.79710  0.40203  Biso   1.000  O
  O30      1.0000 0.72916  0.29710  0.40203  Biso   1.000  O
  O31      1.0000 0.77084  0.79710  0.09797  Biso   1.000  O
  O32      1.0000 0.27084  0.29710  0.09797  Biso   1.000  O
  C97      1.0000 0.98680  0.84200  0.89910  Biso   1.000  C
  C98      1.0000 0.48680  0.34200  0.89910  Biso   1.000  C
  C99      1.0000 0.01320  0.84200  0.60090  Biso   1.000  C
  C100     1.0000 0.51320  0.34200  0.60090  Biso   1.000  C
  C101     1.0000 0.01320  0.15800  0.10090  Biso   1.000  C
  C102     1.0000 0.51320  0.65800  0.10090  Biso   1.000  C
  C103     1.0000 0.98680  0.15800  0.39910  Biso   1.000  C
  C104     1.0000 0.48680  0.65800  0.39910  Biso   1.000  C
  C105     1.0000 0.04940  0.89640  0.91960  Biso   1.000  C
  C106     1.0000 0.54940  0.39640  0.91960  Biso   1.000  C
  C107     1.0000 0.95060  0.89640  0.58040  Biso   1.000  C
  C108     1.0000 0.45060  0.39640  0.58040  Biso   1.000  C
  C109     1.0000 0.95060  0.10360  0.08040  Biso   1.000  C
  C110     1.0000 0.45060  0.60360  0.08040  Biso   1.000  C
  C111     1.0000 0.04940  0.10360  0.41960  Biso   1.000  C
  C112     1.0000 0.54940  0.60360  0.41960  Biso   1.000  C
  O33      1.0000 0.29189  0.82270  0.95561  Biso   1.000  O
  O34      1.0000 0.79189  0.32270  0.95561  Biso   1.000  O
  O35      1.0000 0.70811  0.82270  0.54439  Biso   1.000  O
  O36      1.0000 0.20811  0.32270  0.54439  Biso   1.000  O
  O37      1.0000 0.70811  0.17730  0.04439  Biso   1.000  O
  O38      1.0000 0.20811  0.67730  0.04439  Biso   1.000  O
  O39      1.0000 0.29189  0.17730  0.45561  Biso   1.000  O
  O40      1.0000 0.79189  0.67730  0.45561  Biso   1.000  O
  H1       1.0000 0.04180  0.32760  0.96850  Biso   1.000  H
  H2       1.0000 0.54180  0.82760  0.96850  Biso   1.000  H
  H3       1.0000 0.95820  0.32760  0.53150  Biso   1.000  H
  H4       1.0000 0.45820  0.82760  0.53150  Biso   1.000  H
  H5       1.0000 0.95820  0.67240  0.03150  Biso   1.000  H
  H6       1.0000 0.45820  0.17240  0.03150  Biso   1.000  H
  H7       1.0000 0.04180  0.67240  0.46850  Biso   1.000  H
  H8       1.0000 0.54180  0.17240  0.46850  Biso   1.000  H
  H9       1.0000 0.93660  0.23670  0.93570  Biso   1.000  H
  H10      1.0000 0.43660  0.73670  0.93570  Biso   1.000  H
  H11      1.0000 0.06340  0.23670  0.56430  Biso   1.000  H
  H12      1.0000 0.56340  0.73670  0.56430  Biso   1.000  H
  H13      1.0000 0.06340  0.76330  0.06430  Biso   1.000  H
  H14      1.0000 0.56340  0.26330  0.06430  Biso   1.000  H
  H15      1.0000 0.93660  0.76330  0.43570  Biso   1.000  H
  H16      1.0000 0.43660  0.26330  0.43570  Biso   1.000  H
  H17      1.0000 0.81460  0.29320  0.80740  Biso   1.000  H
  H18      1.0000 0.31460  0.79320  0.80740  Biso   1.000  H
  H19      1.0000 0.18540  0.29320  0.69260  Biso   1.000  H
  H20      1.0000 0.68540  0.79320  0.69260  Biso   1.000  H
  H21      1.0000 0.18540  0.70680  0.19260  Biso   1.000  H
  H22      1.0000 0.68540  0.20680  0.19260  Biso   1.000  H
  H23      1.0000 0.81460  0.70680  0.30740  Biso   1.000  H
  H24      1.0000 0.31460  0.20680  0.30740  Biso   1.000  H
  H25      1.0000 0.78950  0.19190  0.70680  Biso   1.000  H
  H26      1.0000 0.28950  0.69190  0.70680  Biso   1.000  H
  H27      1.0000 0.21050  0.19190  0.79320  Biso   1.000  H
  H28      1.0000 0.71050  0.69190  0.79320  Biso   1.000  H
  H29      1.0000 0.21050  0.80810  0.29320  Biso   1.000  H
  H30      1.0000 0.71050  0.30810  0.29320  Biso   1.000  H
  H31      1.0000 0.78950  0.80810  0.20680  Biso   1.000  H
  H32      1.0000 0.28950  0.30810  0.20680  Biso   1.000  H
  H33      1.0000 0.83300  0.71560  0.66570  Biso   1.000  H
  H34      1.0000 0.33300  0.21560  0.66570  Biso   1.000  H
  H35      1.0000 0.16700  0.71560  0.83430  Biso   1.000  H
  H36      1.0000 0.66700  0.21560  0.83430  Biso   1.000  H
  H37      1.0000 0.16700  0.28440  0.33430  Biso   1.000  H
  H38      1.0000 0.66700  0.78440  0.33430  Biso   1.000  H
  H39      1.0000 0.83300  0.28440  0.16570  Biso   1.000  H
  H40      1.0000 0.33300  0.78440  0.16570  Biso   1.000  H
  H41      1.0000 0.85950  0.81790  0.76800  Biso   1.000  H
  H42      1.0000 0.35950  0.31790  0.76800  Biso   1.000  H
  H43      1.0000 0.14050  0.81790  0.73200  Biso   1.000  H
  H44      1.0000 0.64050  0.31790  0.73200  Biso   1.000  H
  H45      1.0000 0.14050  0.18210  0.23200  Biso   1.000  H
  H46      1.0000 0.64050  0.68210  0.23200  Biso   1.000  H
  H47      1.0000 0.85950  0.18210  0.26800  Biso   1.000  H
  H48      1.0000 0.35950  0.68210  0.26800  Biso   1.000  H
  H49      1.0000 0.97350  0.71760  0.88210  Biso   1.000  H
  H50      1.0000 0.47350  0.21760  0.88210  Biso   1.000  H
  H51      1.0000 0.02650  0.71760  0.61790  Biso   1.000  H
  H52      1.0000 0.52650  0.21760  0.61790  Biso   1.000  H
  H53      1.0000 0.02650  0.28240  0.11790  Biso   1.000  H
  H54      1.0000 0.52650  0.78240  0.11790  Biso   1.000  H
  H55      1.0000 0.97350  0.28240  0.38210  Biso   1.000  H
  H56      1.0000 0.47350  0.78240  0.38210  Biso   1.000  H
  H57      1.0000 0.07820  0.81130  0.91620  Biso   1.000  H
  H58      1.0000 0.57820  0.31130  0.91620  Biso   1.000  H
  H59      1.0000 0.92180  0.81130  0.58380  Biso   1.000  H
  H60      1.0000 0.42180  0.31130  0.58380  Biso   1.000  H
  H61      1.0000 0.92180  0.18870  0.08380  Biso   1.000  H
  H62      1.0000 0.42180  0.68870  0.08380  Biso   1.000  H
  H63      1.0000 0.07820  0.18870  0.41620  Biso   1.000  H
  H64      1.0000 0.57820  0.68870  0.41620  Biso   1.000  H
  H65      1.0000 0.30140  0.72230  0.97940  Biso   1.000  H
  H66      1.0000 0.80140  0.22230  0.97940  Biso   1.000  H
  H67      1.0000 0.69860  0.72230  0.52060  Biso   1.000  H
  H68      1.0000 0.19860  0.22230  0.52060  Biso   1.000  H
  H69      1.0000 0.69860  0.27770  0.02060  Biso   1.000  H
  H70      1.0000 0.19860  0.77770  0.02060  Biso   1.000  H
  H71      1.0000 0.30140  0.27770  0.47940  Biso   1.000  H
  H72      1.0000 0.80140  0.77770  0.47940  Biso   1.000  H
  H73      1.0000 0.26720  0.72350  0.94740  Biso   1.000  H
  H74      1.0000 0.76720  0.22350  0.94740  Biso   1.000  H
  H75      1.0000 0.73280  0.72350  0.55260  Biso   1.000  H
  H76      1.0000 0.23280  0.22350  0.55260  Biso   1.000  H
  H77      1.0000 0.73280  0.27650  0.05260  Biso   1.000  H
  H78      1.0000 0.23280  0.77650  0.05260  Biso   1.000  H
  H79      1.0000 0.26720  0.27650  0.44740  Biso   1.000  H
  H80      1.0000 0.76720  0.77650  0.44740  Biso   1.000  H
  O41      1.0000 0.48730  0.05800  0.19350  Biso   1.000  O
  O42      1.0000 0.98730  0.55800  0.19350  Biso   1.000  O
  O43      1.0000 0.51270  0.05800  0.30650  Biso   1.000  O
  O44      1.0000 0.01270  0.55800  0.30650  Biso   1.000  O
  O45      1.0000 0.51270  0.94200  0.80650  Biso   1.000  O
  O46      1.0000 0.01270  0.44200  0.80650  Biso   1.000  O
  O47      1.0000 0.48730  0.94200  0.69350  Biso   1.000  O
  O48      1.0000 0.98730  0.44200  0.69350  Biso   1.000  O
  H81      1.0000 0.50760  0.93550  0.20780  Biso   1.000  H
  H82      1.0000 0.00760  0.43550  0.20780  Biso   1.000  H
  H83      1.0000 0.49240  0.93550  0.29220  Biso   1.000  H
  H84      1.0000 0.99240  0.43550  0.29220  Biso   1.000  H
  H85      1.0000 0.49240  0.06450  0.79220  Biso   1.000  H
  H86      1.0000 0.99240  0.56450  0.79220  Biso   1.000  H
  H87      1.0000 0.50760  0.06450  0.70780  Biso   1.000  H
  H88      1.0000 0.00760  0.56450  0.70780  Biso   1.000  H
  H89      1.0000 0.50410  0.11480  0.16770  Biso   1.000  H
  H90      1.0000 0.00410  0.61480  0.16770  Biso   1.000  H
  H91      1.0000 0.49590  0.11480  0.33230  Biso   1.000  H
  H92      1.0000 0.99590  0.61480  0.33230  Biso   1.000  H
  H93      1.0000 0.49590  0.88520  0.83230  Biso   1.000  H
  H94      1.0000 0.99590  0.38520  0.83230  Biso   1.000  H
  H95      1.0000 0.50410  0.88520  0.66770  Biso   1.000  H
  H96      1.0000 0.00410  0.38520  0.66770  Biso   1.000  H
  O49      1.0000 0.50000  0.19000  0.25000  Biso   1.000  O
  O50      1.0000 0.00000  0.69000  0.25000  Biso   1.000  O
  O51      1.0000 0.50000  0.81000  0.75000  Biso   1.000  O
  O52      1.0000 0.00000  0.31000  0.75000  Biso   1.000  O
  H97      1.0000 0.52170  0.30380  0.24790  Biso   1.000  H
  H98      1.0000 0.02170  0.80380  0.24790  Biso   1.000  H
  H99      1.0000 0.47830  0.30380  0.25210  Biso   1.000  H
  H100     1.0000 0.97830  0.80380  0.25210  Biso   1.000  H
  H101     1.0000 0.47830  0.69620  0.75210  Biso   1.000  H
  H102     1.0000 0.97830  0.19620  0.75210  Biso   1.000  H
  H103     1.0000 0.52170  0.69620  0.74790  Biso   1.000  H
  H104     1.0000 0.02170  0.19620  0.74790  Biso   1.000  H
  H105     1.0000 0.46070  0.22620  0.24870  Biso   1.000  H
  H106     1.0000 0.96070  0.72620  0.24870  Biso   1.000  H
  H107     1.0000 0.53930  0.22620  0.25130  Biso   1.000  H
  H108     1.0000 0.03930  0.72620  0.25130  Biso   1.000  H
  H109     1.0000 0.53930  0.77380  0.75130  Biso   1.000  H
  H110     1.0000 0.03930  0.27380  0.75130  Biso   1.000  H
  H111     1.0000 0.46070  0.77380  0.74870  Biso   1.000  H
  H112     1.0000 0.96070  0.27380  0.74870  Biso   1.000  H
