data_image0
_cell_length_a       11.2728
_cell_length_b       16.7135
_cell_length_c       12.312
_cell_angle_alpha    90
_cell_angle_beta     112.805
_cell_angle_gamma    90

_symmetry_space_group_name_H-M    "P 1"
_symmetry_int_tables_number       1

loop_
  _symmetry_equiv_pos_as_xyz
  'x, y, z'

loop_
  _atom_site_label
  _atom_site_occupancy
  _atom_site_fract_x
  _atom_site_fract_y
  _atom_site_fract_z
  _atom_site_thermal_displace_type
  _atom_site_B_iso_or_equiv
  _atom_site_type_symbol
  Cu1      1.0000 0.12630  0.00000  0.55851  Biso   1.000  Cu
  Cu2      1.0000 0.62630  0.50000  0.55851  Biso   1.000  Cu
  Cu3      1.0000 0.87370  0.00000  0.44149  Biso   1.000  Cu
  Cu4      1.0000 0.37370  0.50000  0.44149  Biso   1.000  Cu
  O1       1.0000 0.09640  0.91750  0.65800  Biso   1.000  O
  O2       1.0000 0.59640  0.41750  0.65800  Biso   1.000  O
  O3       1.0000 0.90360  0.91750  0.34200  Biso   1.000  O
  O4       1.0000 0.40360  0.41750  0.34200  Biso   1.000  O
  O5       1.0000 0.90360  0.08250  0.34200  Biso   1.000  O
  O6       1.0000 0.40360  0.58250  0.34200  Biso   1.000  O
  O7       1.0000 0.09640  0.08250  0.65800  Biso   1.000  O
  O8       1.0000 0.59640  0.58250  0.65800  Biso   1.000  O
  C1       1.0000 0.98510  0.89060  0.63500  Biso   1.000  C
  C2       1.0000 0.48510  0.39060  0.63500  Biso   1.000  C
  C3       1.0000 0.01490  0.89060  0.36500  Biso   1.000  C
  C4       1.0000 0.51490  0.39060  0.36500  Biso   1.000  C
  C5       1.0000 0.01490  0.10940  0.36500  Biso   1.000  C
  C6       1.0000 0.51490  0.60940  0.36500  Biso   1.000  C
  C7       1.0000 0.98510  0.10940  0.63500  Biso   1.000  C
  C8       1.0000 0.48510  0.60940  0.63500  Biso   1.000  C
  O9       1.0000 0.88360  0.91560  0.55660  Biso   1.000  O
  O10      1.0000 0.38360  0.41560  0.55660  Biso   1.000  O
  O11      1.0000 0.11640  0.91560  0.44340  Biso   1.000  O
  O12      1.0000 0.61640  0.41560  0.44340  Biso   1.000  O
  O13      1.0000 0.11640  0.08440  0.44340  Biso   1.000  O
  O14      1.0000 0.61640  0.58440  0.44340  Biso   1.000  O
  O15      1.0000 0.88360  0.08440  0.55660  Biso   1.000  O
  O16      1.0000 0.38360  0.58440  0.55660  Biso   1.000  O
  C9       1.0000 0.97400  0.82120  0.70850  Biso   1.000  C
  C10      1.0000 0.47400  0.32120  0.70850  Biso   1.000  C
  C11      1.0000 0.02600  0.82120  0.29150  Biso   1.000  C
  C12      1.0000 0.52600  0.32120  0.29150  Biso   1.000  C
  C13      1.0000 0.02600  0.17880  0.29150  Biso   1.000  C
  C14      1.0000 0.52600  0.67880  0.29150  Biso   1.000  C
  C15      1.0000 0.97400  0.17880  0.70850  Biso   1.000  C
  C16      1.0000 0.47400  0.67880  0.70850  Biso   1.000  C
  C17      1.0000 0.86410  0.77420  0.67020  Biso   1.000  C
  C18      1.0000 0.36410  0.27420  0.67020  Biso   1.000  C
  C19      1.0000 0.13590  0.77420  0.32980  Biso   1.000  C
  C20      1.0000 0.63590  0.27420  0.32980  Biso   1.000  C
  C21      1.0000 0.13590  0.22580  0.32980  Biso   1.000  C
  C22      1.0000 0.63590  0.72580  0.32980  Biso   1.000  C
  C23      1.0000 0.86410  0.22580  0.67020  Biso   1.000  C
  C24      1.0000 0.36410  0.72580  0.67020  Biso   1.000  C
  C25      1.0000 0.85380  0.70950  0.73570  Biso   1.000  C
  C26      1.0000 0.35380  0.20950  0.73570  Biso   1.000  C
  C27      1.0000 0.14620  0.70950  0.26430  Biso   1.000  C
  C28      1.0000 0.64620  0.20950  0.26430  Biso   1.000  C
  C29      1.0000 0.14620  0.29050  0.26430  Biso   1.000  C
  C30      1.0000 0.64620  0.79050  0.26430  Biso   1.000  C
  C31      1.0000 0.85380  0.29050  0.73570  Biso   1.000  C
  C32      1.0000 0.35380  0.79050  0.73570  Biso   1.000  C
  C33      1.0000 0.95200  0.69260  0.84130  Biso   1.000  C
  C34      1.0000 0.45200  0.19260  0.84130  Biso   1.000  C
  C35      1.0000 0.04800  0.69260  0.15870  Biso   1.000  C
  C36      1.0000 0.54800  0.19260  0.15870  Biso   1.000  C
  C37      1.0000 0.04800  0.30740  0.15870  Biso   1.000  C
  C38      1.0000 0.54800  0.80740  0.15870  Biso   1.000  C
  C39      1.0000 0.95200  0.30740  0.84130  Biso   1.000  C
  C40      1.0000 0.45200  0.80740  0.84130  Biso   1.000  C
  S1       1.0000 0.92526  0.61016  0.92086  Biso   1.000  S
  S2       1.0000 0.42526  0.11016  0.92086  Biso   1.000  S
  S3       1.0000 0.07474  0.61016  0.07914  Biso   1.000  S
  S4       1.0000 0.57474  0.11016  0.07914  Biso   1.000  S
  S5       1.0000 0.07474  0.38984  0.07914  Biso   1.000  S
  S6       1.0000 0.57474  0.88984  0.07914  Biso   1.000  S
  S7       1.0000 0.92526  0.38984  0.92086  Biso   1.000  S
  S8       1.0000 0.42526  0.88984  0.92086  Biso   1.000  S
  C41      1.0000 0.06200  0.73930  0.88170  Biso   1.000  C
  C42      1.0000 0.56200  0.23930  0.88170  Biso   1.000  C
  C43      1.0000 0.93800  0.73930  0.11830  Biso   1.000  C
  C44      1.0000 0.43800  0.23930  0.11830  Biso   1.000  C
  C45      1.0000 0.93800  0.26070  0.11830  Biso   1.000  C
  C46      1.0000 0.43800  0.76070  0.11830  Biso   1.000  C
  C47      1.0000 0.06200  0.26070  0.88170  Biso   1.000  C
  C48      1.0000 0.56200  0.76070  0.88170  Biso   1.000  C
  C49      1.0000 0.07340  0.80300  0.81330  Biso   1.000  C
  C50      1.0000 0.57340  0.30300  0.81330  Biso   1.000  C
  C51      1.0000 0.92660  0.80300  0.18670  Biso   1.000  C
  C52      1.0000 0.42660  0.30300  0.18670  Biso   1.000  C
  C53      1.0000 0.92660  0.19700  0.18670  Biso   1.000  C
  C54      1.0000 0.42660  0.69700  0.18670  Biso   1.000  C
  C55      1.0000 0.07340  0.19700  0.81330  Biso   1.000  C
  C56      1.0000 0.57340  0.69700  0.81330  Biso   1.000  C
  O17      1.0000 0.33210  0.00000  0.63140  Biso   1.000  O
  O18      1.0000 0.83210  0.50000  0.63140  Biso   1.000  O
  O19      1.0000 0.66790  0.00000  0.36860  Biso   1.000  O
  O20      1.0000 0.16790  0.50000  0.36860  Biso   1.000  O
  H1       1.0000 0.79360  0.78820  0.60090  Biso   1.000  H
  H2       1.0000 0.29360  0.28820  0.60090  Biso   1.000  H
  H3       1.0000 0.20640  0.78820  0.39910  Biso   1.000  H
  H4       1.0000 0.70640  0.28820  0.39910  Biso   1.000  H
  H5       1.0000 0.20640  0.21180  0.39910  Biso   1.000  H
  H6       1.0000 0.70640  0.71180  0.39910  Biso   1.000  H
  H7       1.0000 0.79360  0.21180  0.60090  Biso   1.000  H
  H8       1.0000 0.29360  0.71180  0.60090  Biso   1.000  H
  H9       1.0000 0.78080  0.67710  0.70870  Biso   1.000  H
  H10      1.0000 0.28080  0.17710  0.70870  Biso   1.000  H
  H11      1.0000 0.21920  0.67710  0.29130  Biso   1.000  H
  H12      1.0000 0.71920  0.17710  0.29130  Biso   1.000  H
  H13      1.0000 0.21920  0.32290  0.29130  Biso   1.000  H
  H14      1.0000 0.71920  0.82290  0.29130  Biso   1.000  H
  H15      1.0000 0.78080  0.32290  0.70870  Biso   1.000  H
  H16      1.0000 0.28080  0.82290  0.70870  Biso   1.000  H
  H17      1.0000 0.12840  0.72880  0.95610  Biso   1.000  H
  H18      1.0000 0.62840  0.22880  0.95610  Biso   1.000  H
  H19      1.0000 0.87160  0.72880  0.04390  Biso   1.000  H
  H20      1.0000 0.37160  0.22880  0.04390  Biso   1.000  H
  H21      1.0000 0.87160  0.27120  0.04390  Biso   1.000  H
  H22      1.0000 0.37160  0.77120  0.04390  Biso   1.000  H
  H23      1.0000 0.12840  0.27120  0.95610  Biso   1.000  H
  H24      1.0000 0.62840  0.77120  0.95610  Biso   1.000  H
  H25      1.0000 0.14910  0.83340  0.83900  Biso   1.000  H
  H26      1.0000 0.64910  0.33340  0.83900  Biso   1.000  H
  H27      1.0000 0.85090  0.83340  0.16100  Biso   1.000  H
  H28      1.0000 0.35090  0.33340  0.16100  Biso   1.000  H
  H29      1.0000 0.85090  0.16660  0.16100  Biso   1.000  H
  H30      1.0000 0.35090  0.66660  0.16100  Biso   1.000  H
  H31      1.0000 0.14910  0.16660  0.83900  Biso   1.000  H
  H32      1.0000 0.64910  0.66660  0.83900  Biso   1.000  H
  H33      1.0000 0.36290  0.94840  0.62280  Biso   1.000  H
  H34      1.0000 0.86290  0.44840  0.62280  Biso   1.000  H
  H35      1.0000 0.63710  0.94840  0.37720  Biso   1.000  H
  H36      1.0000 0.13710  0.44840  0.37720  Biso   1.000  H
  H37      1.0000 0.63710  0.05160  0.37720  Biso   1.000  H
  H38      1.0000 0.13710  0.55160  0.37720  Biso   1.000  H
  H39      1.0000 0.36290  0.05160  0.62280  Biso   1.000  H
  H40      1.0000 0.86290  0.55160  0.62280  Biso   1.000  H
  H41      1.0000 0.36290  0.03820  0.59130  Biso   1.000  H
  H42      1.0000 0.86290  0.53820  0.59130  Biso   1.000  H
  H43      1.0000 0.63710  0.03820  0.40870  Biso   1.000  H
  H44      1.0000 0.13710  0.53820  0.40870  Biso   1.000  H
  H45      1.0000 0.63710  0.96180  0.40870  Biso   1.000  H
  H46      1.0000 0.13710  0.46180  0.40870  Biso   1.000  H
  H47      1.0000 0.36290  0.96180  0.59130  Biso   1.000  H
  H48      1.0000 0.86290  0.46180  0.59130  Biso   1.000  H
