data_image0
_cell_length_a       9.515
_cell_length_b       6.925
_cell_length_c       11.861
_cell_angle_alpha    90
_cell_angle_beta     95.285
_cell_angle_gamma    90

_symmetry_space_group_name_H-M    "P 1"
_symmetry_int_tables_number       1

loop_
  _symmetry_equiv_pos_as_xyz
  'x, y, z'

loop_
  _atom_site_label
  _atom_site_occupancy
  _atom_site_fract_x
  _atom_site_fract_y
  _atom_site_fract_z
  _atom_site_thermal_displace_type
  _atom_site_B_iso_or_equiv
  _atom_site_type_symbol
  Cu1      1.0000 0.34897  0.21106  0.09778  Biso   1.000  Cu
  Cu2      1.0000 0.15103  0.71106  0.40222  Biso   1.000  Cu
  Cu3      1.0000 0.65103  0.78894  0.90222  Biso   1.000  Cu
  Cu4      1.0000 0.84897  0.28894  0.59778  Biso   1.000  Cu
  O1       1.0000 0.13880  0.35510  0.87260  Biso   1.000  O
  O2       1.0000 0.36120  0.85510  0.62740  Biso   1.000  O
  O3       1.0000 0.86120  0.64490  0.12740  Biso   1.000  O
  O4       1.0000 0.63880  0.14490  0.37260  Biso   1.000  O
  O5       1.0000 0.71740  0.21490  0.00070  Biso   1.000  O
  O6       1.0000 0.78260  0.71490  0.49930  Biso   1.000  O
  O7       1.0000 0.28260  0.78510  0.99930  Biso   1.000  O
  O8       1.0000 0.21740  0.28510  0.50070  Biso   1.000  O
  O9       1.0000 0.09180  0.00380  0.31190  Biso   1.000  O
  O10      1.0000 0.40820  0.50380  0.18810  Biso   1.000  O
  O11      1.0000 0.90820  0.99620  0.68810  Biso   1.000  O
  O12      1.0000 0.59180  0.49620  0.81190  Biso   1.000  O
  O13      1.0000 0.28590  0.09490  0.23400  Biso   1.000  O
  O14      1.0000 0.21410  0.59490  0.26600  Biso   1.000  O
  O15      1.0000 0.71410  0.90510  0.76600  Biso   1.000  O
  O16      1.0000 0.78590  0.40510  0.73400  Biso   1.000  O
  O17      1.0000 0.40460  0.30600  0.95450  Biso   1.000  O
  O18      1.0000 0.09540  0.80600  0.54550  Biso   1.000  O
  O19      1.0000 0.59540  0.69400  0.04550  Biso   1.000  O
  O20      1.0000 0.90460  0.19400  0.45450  Biso   1.000  O
  O21      1.0000 0.53780  0.11840  0.14620  Biso   1.000  O
  O22      1.0000 0.96220  0.61840  0.35380  Biso   1.000  O
  O23      1.0000 0.46220  0.88160  0.85380  Biso   1.000  O
  O24      1.0000 0.03780  0.38160  0.64620  Biso   1.000  O
  N1       1.0000 0.93090  0.29160  0.94380  Biso   1.000  N
  N2       1.0000 0.56910  0.79160  0.55620  Biso   1.000  N
  N3       1.0000 0.06910  0.70840  0.05620  Biso   1.000  N
  N4       1.0000 0.43090  0.20840  0.44380  Biso   1.000  N
  N5       1.0000 0.14460  0.23210  0.05200  Biso   1.000  N
  N6       1.0000 0.35540  0.73210  0.44800  Biso   1.000  N
  N7       1.0000 0.85540  0.76790  0.94800  Biso   1.000  N
  N8       1.0000 0.64460  0.26790  0.55200  Biso   1.000  N
  C1       1.0000 0.07620  0.29480  0.95370  Biso   1.000  C
  C2       1.0000 0.42380  0.79480  0.54630  Biso   1.000  C
  C3       1.0000 0.92380  0.70520  0.04630  Biso   1.000  C
  C4       1.0000 0.57620  0.20520  0.45370  Biso   1.000  C
  C5       1.0000 0.84730  0.22120  0.02320  Biso   1.000  C
  C6       1.0000 0.65270  0.72120  0.47680  Biso   1.000  C
  C7       1.0000 0.15270  0.77880  0.97680  Biso   1.000  C
  C8       1.0000 0.34730  0.27880  0.52320  Biso   1.000  C
  C9       1.0000 0.92260  0.15550  0.12590  Biso   1.000  C
  C10      1.0000 0.57740  0.65550  0.37410  Biso   1.000  C
  C11      1.0000 0.07740  0.84450  0.87410  Biso   1.000  C
  C12      1.0000 0.42260  0.34450  0.62590  Biso   1.000  C
  C13      1.0000 0.06560  0.16250  0.13400  Biso   1.000  C
  C14      1.0000 0.43440  0.66250  0.36600  Biso   1.000  C
  C15      1.0000 0.93440  0.83750  0.86600  Biso   1.000  C
  C16      1.0000 0.56560  0.33750  0.63400  Biso   1.000  C
  C17      1.0000 0.15220  0.08130  0.23640  Biso   1.000  C
  C18      1.0000 0.34780  0.58130  0.26360  Biso   1.000  C
  C19      1.0000 0.84780  0.91870  0.76360  Biso   1.000  C
  C20      1.0000 0.65220  0.41870  0.73640  Biso   1.000  C
