data_image0
_cell_length_a       9.5216
_cell_length_b       6.929
_cell_length_c       11.8543
_cell_angle_alpha    90
_cell_angle_beta     95.295
_cell_angle_gamma    90

_symmetry_space_group_name_H-M    "P 1"
_symmetry_int_tables_number       1

loop_
  _symmetry_equiv_pos_as_xyz
  'x, y, z'

loop_
  _atom_site_label
  _atom_site_occupancy
  _atom_site_fract_x
  _atom_site_fract_y
  _atom_site_fract_z
  _atom_site_thermal_displace_type
  _atom_site_B_iso_or_equiv
  _atom_site_type_symbol
  Cu1      1.0000 0.84885  0.21129  0.09775  Biso   1.000  Cu
  Cu2      1.0000 0.65115  0.71129  0.40225  Biso   1.000  Cu
  Cu3      1.0000 0.15115  0.78871  0.90225  Biso   1.000  Cu
  Cu4      1.0000 0.34885  0.28871  0.59775  Biso   1.000  Cu
  N1       1.0000 0.64456  0.23181  0.05235  Biso   1.000  N
  N2       1.0000 0.85544  0.73181  0.44765  Biso   1.000  N
  N3       1.0000 0.35544  0.76819  0.94765  Biso   1.000  N
  N4       1.0000 0.14456  0.26819  0.55235  Biso   1.000  N
  N5       1.0000 0.43083  0.29128  0.94406  Biso   1.000  N
  N6       1.0000 0.06917  0.79128  0.55594  Biso   1.000  N
  N7       1.0000 0.56917  0.70872  0.05594  Biso   1.000  N
  N8       1.0000 0.93083  0.20872  0.44406  Biso   1.000  N
  C1       1.0000 0.57642  0.29455  0.95374  Biso   1.000  C
  C2       1.0000 0.92358  0.79455  0.54626  Biso   1.000  C
  C3       1.0000 0.42358  0.70545  0.04626  Biso   1.000  C
  C4       1.0000 0.07642  0.20545  0.45374  Biso   1.000  C
  O1       1.0000 0.78580  0.09524  0.23403  Biso   1.000  O
  O2       1.0000 0.71420  0.59524  0.26597  Biso   1.000  O
  O3       1.0000 0.21420  0.90476  0.76596  Biso   1.000  O
  O4       1.0000 0.28580  0.40476  0.73403  Biso   1.000  O
  O5       1.0000 0.21764  0.21492  0.00084  Biso   1.000  O
  O6       1.0000 0.28236  0.71492  0.49916  Biso   1.000  O
  O7       1.0000 0.78236  0.78508  0.99916  Biso   1.000  O
  O8       1.0000 0.71764  0.28508  0.50084  Biso   1.000  O
  C5       1.0000 0.34724  0.22106  0.02329  Biso   1.000  C
  C6       1.0000 0.15276  0.72106  0.47671  Biso   1.000  C
  C7       1.0000 0.65276  0.77894  0.97671  Biso   1.000  C
  C8       1.0000 0.84724  0.27894  0.52329  Biso   1.000  C
  O9       1.0000 0.59231  0.00446  0.31178  Biso   1.000  O
  O10      1.0000 0.90769  0.50446  0.18822  Biso   1.000  O
  O11      1.0000 0.40769  0.99554  0.68822  Biso   1.000  O
  O12      1.0000 0.09231  0.49554  0.81178  Biso   1.000  O
  O13      1.0000 0.90467  0.30542  0.95450  Biso   1.000  O
  O14      1.0000 0.59533  0.80542  0.54550  Biso   1.000  O
  O15      1.0000 0.09533  0.69458  0.04550  Biso   1.000  O
  O16      1.0000 0.40467  0.19458  0.45450  Biso   1.000  O
  O17      1.0000 0.63864  0.35434  0.87295  Biso   1.000  O
  O18      1.0000 0.86136  0.85434  0.62705  Biso   1.000  O
  O19      1.0000 0.36136  0.64566  0.12705  Biso   1.000  O
  O20      1.0000 0.13864  0.14566  0.37295  Biso   1.000  O
  C9       1.0000 0.56562  0.16287  0.13379  Biso   1.000  C
  C10      1.0000 0.93438  0.66287  0.36621  Biso   1.000  C
  C11      1.0000 0.43438  0.83713  0.86621  Biso   1.000  C
  C12      1.0000 0.06562  0.33713  0.63379  Biso   1.000  C
  C13      1.0000 0.65204  0.08150  0.23637  Biso   1.000  C
  C14      1.0000 0.84796  0.58150  0.26363  Biso   1.000  C
  C15      1.0000 0.34796  0.91850  0.76363  Biso   1.000  C
  C16      1.0000 0.15204  0.41850  0.73637  Biso   1.000  C
  C17      1.0000 0.42290  0.15611  0.12560  Biso   1.000  C
  C18      1.0000 0.07710  0.65611  0.37440  Biso   1.000  C
  C19      1.0000 0.57710  0.84389  0.87440  Biso   1.000  C
  C20      1.0000 0.92290  0.34389  0.62560  Biso   1.000  C
  O21      1.0000 0.03744  0.11875  0.14634  Biso   1.000  O
  O22      1.0000 0.46256  0.61875  0.35366  Biso   1.000  O
  O23      1.0000 0.96256  0.88125  0.85366  Biso   1.000  O
  O24      1.0000 0.53744  0.38125  0.64634  Biso   1.000  O
  H1       1.0000 0.38860  0.32960  0.88080  Biso   1.000  H
  H2       1.0000 0.11140  0.82960  0.61920  Biso   1.000  H
  H3       1.0000 0.61140  0.67040  0.11920  Biso   1.000  H
  H4       1.0000 0.88860  0.17040  0.38080  Biso   1.000  H
  H5       1.0000 0.37110  0.11020  0.17960  Biso   1.000  H
  H6       1.0000 0.12890  0.61020  0.32040  Biso   1.000  H
  H7       1.0000 0.62890  0.88980  0.82040  Biso   1.000  H
  H8       1.0000 0.87110  0.38980  0.67960  Biso   1.000  H
  H9       1.0000 0.10590  0.14650  0.11170  Biso   1.000  H
  H10      1.0000 0.39410  0.64650  0.38830  Biso   1.000  H
  H11      1.0000 0.89410  0.85350  0.88830  Biso   1.000  H
  H12      1.0000 0.60590  0.35350  0.61170  Biso   1.000  H
  H13      1.0000 0.07120  0.13150  0.21730  Biso   1.000  H
  H14      1.0000 0.42880  0.63150  0.28270  Biso   1.000  H
  H15      1.0000 0.92880  0.86850  0.78270  Biso   1.000  H
  H16      1.0000 0.57120  0.36850  0.71730  Biso   1.000  H
  H17      1.0000 0.83160  0.32650  0.90920  Biso   1.000  H
  H18      1.0000 0.66840  0.82650  0.59080  Biso   1.000  H
  H19      1.0000 0.16840  0.67350  0.09080  Biso   1.000  H
  H20      1.0000 0.33160  0.17350  0.40920  Biso   1.000  H
  H21      1.0000 0.96460  0.35760  0.93600  Biso   1.000  H
  H22      1.0000 0.53540  0.85760  0.56400  Biso   1.000  H
  H23      1.0000 0.03540  0.64240  0.06400  Biso   1.000  H
  H24      1.0000 0.46460  0.14240  0.43600  Biso   1.000  H
