data_image0
_cell_length_a       14.7204
_cell_length_b       7.2027
_cell_length_c       27.43
_cell_angle_alpha    90
_cell_angle_beta     92.731
_cell_angle_gamma    90

_symmetry_space_group_name_H-M    "P 1"
_symmetry_int_tables_number       1

loop_
  _symmetry_equiv_pos_as_xyz
  'x, y, z'

loop_
  _atom_site_label
  _atom_site_occupancy
  _atom_site_fract_x
  _atom_site_fract_y
  _atom_site_fract_z
  _atom_site_thermal_displace_type
  _atom_site_B_iso_or_equiv
  _atom_site_type_symbol
  Cu1      1.0000 0.70401  0.61505  0.61726  Biso   1.000  Cu
  Cu2      1.0000 0.29599  0.11505  0.88274  Biso   1.000  Cu
  Cu3      1.0000 0.29599  0.38495  0.38274  Biso   1.000  Cu
  Cu4      1.0000 0.70401  0.88495  0.11726  Biso   1.000  Cu
  O1       1.0000 0.62912  0.66080  0.67224  Biso   1.000  O
  O2       1.0000 0.37088  0.16080  0.82776  Biso   1.000  O
  O3       1.0000 0.37088  0.33920  0.32776  Biso   1.000  O
  O4       1.0000 0.62912  0.83920  0.17224  Biso   1.000  O
  O5       1.0000 0.77967  0.62290  0.56143  Biso   1.000  O
  O6       1.0000 0.22033  0.12290  0.93857  Biso   1.000  O
  O7       1.0000 0.22033  0.37710  0.43857  Biso   1.000  O
  O8       1.0000 0.77967  0.87710  0.06143  Biso   1.000  O
  N1       1.0000 0.81225  0.59000  0.66248  Biso   1.000  N
  N2       1.0000 0.18775  0.09000  0.83752  Biso   1.000  N
  N3       1.0000 0.18775  0.41000  0.33752  Biso   1.000  N
  N4       1.0000 0.81225  0.91000  0.16248  Biso   1.000  N
  N5       1.0000 0.74412  0.75520  0.72609  Biso   1.000  N
  N6       1.0000 0.25588  0.25520  0.77391  Biso   1.000  N
  N7       1.0000 0.25588  0.24480  0.27391  Biso   1.000  N
  N8       1.0000 0.74412  0.74480  0.22609  Biso   1.000  N
  H1       1.0000 0.75800  0.82100  0.75080  Biso   1.000  H
  H2       1.0000 0.24200  0.32100  0.74920  Biso   1.000  H
  H3       1.0000 0.24200  0.17900  0.24920  Biso   1.000  H
  H4       1.0000 0.75800  0.67900  0.25080  Biso   1.000  H
  N9       1.0000 0.59550  0.82510  0.73901  Biso   1.000  N
  N10      1.0000 0.40450  0.32510  0.76099  Biso   1.000  N
  N11      1.0000 0.40450  0.17490  0.26099  Biso   1.000  N
  N12      1.0000 0.59550  0.67490  0.23901  Biso   1.000  N
  H5       1.0000 0.61340  0.85600  0.76700  Biso   1.000  H
  H6       1.0000 0.38660  0.35600  0.73300  Biso   1.000  H
  H7       1.0000 0.38660  0.14400  0.23300  Biso   1.000  H
  H8       1.0000 0.61340  0.64400  0.26700  Biso   1.000  H
  N13      1.0000 0.32943  0.02170  0.58113  Biso   1.000  N
  N14      1.0000 0.67057  0.52170  0.91887  Biso   1.000  N
  N15      1.0000 0.67057  0.97830  0.41887  Biso   1.000  N
  N16      1.0000 0.32943  0.47830  0.08113  Biso   1.000  N
  N17      1.0000 0.59508  0.62560  0.57230  Biso   1.000  N
  N18      1.0000 0.40492  0.12560  0.92770  Biso   1.000  N
  N19      1.0000 0.40492  0.37440  0.42770  Biso   1.000  N
  N20      1.0000 0.59508  0.87440  0.07230  Biso   1.000  N
  N21      1.0000 0.67494  0.75600  0.50752  Biso   1.000  N
  N22      1.0000 0.32506  0.25600  0.99248  Biso   1.000  N
  N23      1.0000 0.32506  0.24400  0.49248  Biso   1.000  N
  N24      1.0000 0.67494  0.74400  0.00752  Biso   1.000  N
  H9       1.0000 0.66900  0.82500  0.48240  Biso   1.000  H
  H10      1.0000 0.33100  0.32500  0.01760  Biso   1.000  H
  H11      1.0000 0.33100  0.17500  0.51760  Biso   1.000  H
  H12      1.0000 0.66900  0.67500  0.98240  Biso   1.000  H
  N25      1.0000 0.82665  0.75800  0.49276  Biso   1.000  N
  N26      1.0000 0.17335  0.25800  0.00724  Biso   1.000  N
  N27      1.0000 0.17335  0.24200  0.50724  Biso   1.000  N
  N28      1.0000 0.82665  0.74200  0.99276  Biso   1.000  N
  H13      1.0000 0.81230  0.78200  0.46280  Biso   1.000  H
  H14      1.0000 0.18770  0.28200  0.03720  Biso   1.000  H
  H15      1.0000 0.18770  0.21800  0.53720  Biso   1.000  H
  H16      1.0000 0.81230  0.71800  0.96280  Biso   1.000  H
  N29      1.0000 0.08121  0.92360  0.65679  Biso   1.000  N
  N30      1.0000 0.91879  0.42360  0.84321  Biso   1.000  N
  N31      1.0000 0.91879  0.07640  0.34321  Biso   1.000  N
  N32      1.0000 0.08121  0.57640  0.15679  Biso   1.000  N
  C1       1.0000 0.88512  0.49430  0.64707  Biso   1.000  C
  C2       1.0000 0.11488  0.99430  0.85293  Biso   1.000  C
  C3       1.0000 0.11488  0.50570  0.35293  Biso   1.000  C
  C4       1.0000 0.88512  0.00570  0.14707  Biso   1.000  C
  H17      1.0000 0.88103  0.44068  0.61540  Biso   1.000  H
  H18      1.0000 0.11897  0.94068  0.88460  Biso   1.000  H
  H19      1.0000 0.11897  0.55932  0.38460  Biso   1.000  H
  H20      1.0000 0.88103  0.05932  0.11540  Biso   1.000  H
  C5       1.0000 0.96368  0.47140  0.67466  Biso   1.000  C
  C6       1.0000 0.03632  0.97140  0.82534  Biso   1.000  C
  C7       1.0000 0.03632  0.52860  0.32534  Biso   1.000  C
  C8       1.0000 0.96368  0.02860  0.17466  Biso   1.000  C
  H21      1.0000 0.01344  0.40519  0.66231  Biso   1.000  H
  H22      1.0000 0.98656  0.90519  0.83769  Biso   1.000  H
  H23      1.0000 0.98656  0.59481  0.33769  Biso   1.000  H
  H24      1.0000 0.01344  0.09481  0.16231  Biso   1.000  H
  C9       1.0000 0.96941  0.54750  0.72143  Biso   1.000  C
  C10      1.0000 0.03059  0.04750  0.77857  Biso   1.000  C
  C11      1.0000 0.03059  0.45250  0.27857  Biso   1.000  C
  C12      1.0000 0.96941  0.95250  0.22143  Biso   1.000  C
  H25      1.0000 0.02371  0.53594  0.74134  Biso   1.000  H
  H26      1.0000 0.97629  0.03594  0.75866  Biso   1.000  H
  H27      1.0000 0.97629  0.46406  0.25866  Biso   1.000  H
  H28      1.0000 0.02371  0.96406  0.24134  Biso   1.000  H
  C13      1.0000 0.89538  0.63930  0.73833  Biso   1.000  C
  C14      1.0000 0.10462  0.13930  0.76167  Biso   1.000  C
  C15      1.0000 0.10462  0.36070  0.26167  Biso   1.000  C
  C16      1.0000 0.89538  0.86070  0.23833  Biso   1.000  C
  H29      1.0000 0.89718  0.68872  0.77047  Biso   1.000  H
  H30      1.0000 0.10282  0.18872  0.72953  Biso   1.000  H
  H31      1.0000 0.10282  0.31128  0.22953  Biso   1.000  H
  H32      1.0000 0.89718  0.81128  0.27047  Biso   1.000  H
  C17      1.0000 0.81793  0.65890  0.70788  Biso   1.000  C
  C18      1.0000 0.18207  0.15890  0.79212  Biso   1.000  C
  C19      1.0000 0.18207  0.34110  0.29212  Biso   1.000  C
  C20      1.0000 0.81793  0.84110  0.20788  Biso   1.000  C
  C21      1.0000 0.65573  0.74350  0.71040  Biso   1.000  C
  C22      1.0000 0.34427  0.24350  0.78960  Biso   1.000  C
  C23      1.0000 0.34427  0.25650  0.28960  Biso   1.000  C
  C24      1.0000 0.65573  0.75650  0.21040  Biso   1.000  C
  C25      1.0000 0.50115  0.84090  0.72627  Biso   1.000  C
  C26      1.0000 0.49885  0.34090  0.77373  Biso   1.000  C
  C27      1.0000 0.49885  0.15910  0.27373  Biso   1.000  C
  C28      1.0000 0.50115  0.65910  0.22627  Biso   1.000  C
  C29      1.0000 0.47223  0.89820  0.67947  Biso   1.000  C
  C30      1.0000 0.52777  0.39820  0.82053  Biso   1.000  C
  C31      1.0000 0.52777  0.10180  0.32053  Biso   1.000  C
  C32      1.0000 0.47223  0.60180  0.17947  Biso   1.000  C
  H33      1.0000 0.51512  0.92531  0.65566  Biso   1.000  H
  H34      1.0000 0.48488  0.42531  0.84434  Biso   1.000  H
  H35      1.0000 0.48488  0.07469  0.34434  Biso   1.000  H
  H36      1.0000 0.51512  0.57469  0.15566  Biso   1.000  H
  C33      1.0000 0.37911  0.91510  0.66832  Biso   1.000  C
  C34      1.0000 0.62089  0.41510  0.83168  Biso   1.000  C
  C35      1.0000 0.62089  0.08490  0.33168  Biso   1.000  C
  C36      1.0000 0.37911  0.58490  0.16832  Biso   1.000  C
  C37      1.0000 0.31467  0.87660  0.70272  Biso   1.000  C
  C38      1.0000 0.68533  0.37660  0.79728  Biso   1.000  C
  C39      1.0000 0.68533  0.12340  0.29728  Biso   1.000  C
  C40      1.0000 0.31467  0.62340  0.20272  Biso   1.000  C
  H37      1.0000 0.25148  0.88743  0.69447  Biso   1.000  H
  H38      1.0000 0.74852  0.38743  0.80553  Biso   1.000  H
  H39      1.0000 0.74852  0.11257  0.30553  Biso   1.000  H
  H40      1.0000 0.25148  0.61257  0.19447  Biso   1.000  H
  C41      1.0000 0.34503  0.82210  0.74912  Biso   1.000  C
  C42      1.0000 0.65497  0.32210  0.75088  Biso   1.000  C
  C43      1.0000 0.65497  0.17790  0.25088  Biso   1.000  C
  C44      1.0000 0.34503  0.67790  0.24912  Biso   1.000  C
  H41      1.0000 0.30229  0.79613  0.77309  Biso   1.000  H
  H42      1.0000 0.69771  0.29613  0.72691  Biso   1.000  H
  H43      1.0000 0.69771  0.20387  0.22691  Biso   1.000  H
  H44      1.0000 0.30229  0.70387  0.27309  Biso   1.000  H
  C45      1.0000 0.43761  0.80520  0.76088  Biso   1.000  C
  C46      1.0000 0.56239  0.30520  0.73912  Biso   1.000  C
  C47      1.0000 0.56239  0.19480  0.23912  Biso   1.000  C
  C48      1.0000 0.43761  0.69480  0.26088  Biso   1.000  C
  H45      1.0000 0.45756  0.76891  0.79292  Biso   1.000  H
  H46      1.0000 0.54244  0.26891  0.70708  Biso   1.000  H
  H47      1.0000 0.54244  0.23109  0.20708  Biso   1.000  H
  H48      1.0000 0.45756  0.73109  0.29292  Biso   1.000  H
  C49      1.0000 0.35031  0.97480  0.61980  Biso   1.000  C
  C50      1.0000 0.64969  0.47480  0.88020  Biso   1.000  C
  C51      1.0000 0.64969  0.02520  0.38020  Biso   1.000  C
  C52      1.0000 0.35031  0.52520  0.11980  Biso   1.000  C
  C53      1.0000 0.51403  0.57210  0.58961  Biso   1.000  C
  C54      1.0000 0.48597  0.07210  0.91039  Biso   1.000  C
  C55      1.0000 0.48597  0.42790  0.41039  Biso   1.000  C
  C56      1.0000 0.51403  0.92790  0.08961  Biso   1.000  C
  H49      1.0000 0.51411  0.50817  0.61991  Biso   1.000  H
  H50      1.0000 0.48589  0.00817  0.88009  Biso   1.000  H
  H51      1.0000 0.48589  0.49183  0.38009  Biso   1.000  H
  H52      1.0000 0.51411  0.99183  0.11991  Biso   1.000  H
  C57      1.0000 0.43254  0.60610  0.56534  Biso   1.000  C
  C58      1.0000 0.56746  0.10610  0.93466  Biso   1.000  C
  C59      1.0000 0.56746  0.39390  0.43466  Biso   1.000  C
  C60      1.0000 0.43254  0.89390  0.06534  Biso   1.000  C
  H53      1.0000 0.37730  0.56564  0.57840  Biso   1.000  H
  H54      1.0000 0.62270  0.06564  0.92160  Biso   1.000  H
  H55      1.0000 0.62270  0.43436  0.42160  Biso   1.000  H
  H56      1.0000 0.37730  0.93436  0.07840  Biso   1.000  H
  C61      1.0000 0.43185  0.70140  0.52108  Biso   1.000  C
  C62      1.0000 0.56815  0.20140  0.97892  Biso   1.000  C
  C63      1.0000 0.56815  0.29860  0.47892  Biso   1.000  C
  C64      1.0000 0.43185  0.79860  0.02108  Biso   1.000  C
  H57      1.0000 0.37592  0.73159  0.50423  Biso   1.000  H
  H58      1.0000 0.62408  0.23159  0.99577  Biso   1.000  H
  H59      1.0000 0.62408  0.26841  0.49577  Biso   1.000  H
  H60      1.0000 0.37592  0.76841  0.00423  Biso   1.000  H
  C65      1.0000 0.51314  0.75100  0.50214  Biso   1.000  C
  C66      1.0000 0.48686  0.25100  0.99786  Biso   1.000  C
  C67      1.0000 0.48686  0.24900  0.49786  Biso   1.000  C
  C68      1.0000 0.51314  0.74900  0.00214  Biso   1.000  C
  H61      1.0000 0.51439  0.81338  0.47167  Biso   1.000  H
  H62      1.0000 0.48561  0.31338  0.02833  Biso   1.000  H
  H63      1.0000 0.48561  0.18662  0.52833  Biso   1.000  H
  H64      1.0000 0.51439  0.68662  0.97167  Biso   1.000  H
  C69      1.0000 0.59363  0.70810  0.52845  Biso   1.000  C
  C70      1.0000 0.40637  0.20810  0.97155  Biso   1.000  C
  C71      1.0000 0.40637  0.29190  0.47155  Biso   1.000  C
  C72      1.0000 0.59363  0.79190  0.02845  Biso   1.000  C
  C73      1.0000 0.76055  0.70780  0.52258  Biso   1.000  C
  C74      1.0000 0.23945  0.20780  0.97742  Biso   1.000  C
  C75      1.0000 0.23945  0.29220  0.47742  Biso   1.000  C
  C76      1.0000 0.76055  0.79220  0.02258  Biso   1.000  C
  C77      1.0000 0.92036  0.76030  0.50774  Biso   1.000  C
  C78      1.0000 0.07964  0.26030  0.99226  Biso   1.000  C
  C79      1.0000 0.07964  0.23970  0.49226  Biso   1.000  C
  C80      1.0000 0.92036  0.73970  0.00774  Biso   1.000  C
  C81      1.0000 0.94734  0.81400  0.55464  Biso   1.000  C
  C82      1.0000 0.05266  0.31400  0.94536  Biso   1.000  C
  C83      1.0000 0.05266  0.18600  0.44536  Biso   1.000  C
  C84      1.0000 0.94734  0.68600  0.05464  Biso   1.000  C
  H65      1.0000 0.90335  0.84760  0.57729  Biso   1.000  H
  H66      1.0000 0.09665  0.34760  0.92271  Biso   1.000  H
  H67      1.0000 0.09665  0.15240  0.42271  Biso   1.000  H
  H68      1.0000 0.90335  0.65240  0.07729  Biso   1.000  H
  C85      1.0000 0.03948  0.81820  0.56828  Biso   1.000  C
  C86      1.0000 0.96052  0.31820  0.93172  Biso   1.000  C
  C87      1.0000 0.96052  0.18180  0.43172  Biso   1.000  C
  C88      1.0000 0.03948  0.68180  0.06828  Biso   1.000  C
  C89      1.0000 0.10540  0.77360  0.53493  Biso   1.000  C
  C90      1.0000 0.89460  0.27360  0.96507  Biso   1.000  C
  C91      1.0000 0.89460  0.22640  0.46507  Biso   1.000  C
  C92      1.0000 0.10540  0.72640  0.03493  Biso   1.000  C
  H69      1.0000 0.16828  0.77649  0.54445  Biso   1.000  H
  H70      1.0000 0.83172  0.27649  0.95555  Biso   1.000  H
  H71      1.0000 0.83172  0.22351  0.45555  Biso   1.000  H
  H72      1.0000 0.16828  0.72351  0.04445  Biso   1.000  H
  C93      1.0000 0.07689  0.72570  0.48807  Biso   1.000  C
  C94      1.0000 0.92311  0.22570  0.01193  Biso   1.000  C
  C95      1.0000 0.92311  0.27430  0.51193  Biso   1.000  C
  C96      1.0000 0.07689  0.77430  0.98807  Biso   1.000  C
  H73      1.0000 0.12089  0.69834  0.46487  Biso   1.000  H
  H74      1.0000 0.87911  0.19834  0.03513  Biso   1.000  H
  H75      1.0000 0.87911  0.30166  0.53513  Biso   1.000  H
  H76      1.0000 0.12089  0.80166  0.96487  Biso   1.000  H
  C97      1.0000 0.98500  0.71650  0.47403  Biso   1.000  C
  C98      1.0000 0.01500  0.21650  0.02597  Biso   1.000  C
  C99      1.0000 0.01500  0.28350  0.52597  Biso   1.000  C
  C100     1.0000 0.98500  0.78350  0.97403  Biso   1.000  C
  H77      1.0000 0.96641  0.68058  0.44175  Biso   1.000  H
  H78      1.0000 0.03359  0.18058  0.05825  Biso   1.000  H
  H79      1.0000 0.03359  0.31942  0.55825  Biso   1.000  H
  H80      1.0000 0.96641  0.81942  0.94175  Biso   1.000  H
  C101     1.0000 0.06489  0.87580  0.61751  Biso   1.000  C
  C102     1.0000 0.93511  0.37580  0.88249  Biso   1.000  C
  C103     1.0000 0.93511  0.12420  0.38249  Biso   1.000  C
  C104     1.0000 0.06489  0.62420  0.11751  Biso   1.000  C
  Cl1      1.0000 0.68880  0.12121  0.60204  Biso   1.000  Cl
  Cl2      1.0000 0.31120  0.62121  0.89796  Biso   1.000  Cl
  Cl3      1.0000 0.31120  0.87879  0.39796  Biso   1.000  Cl
  Cl4      1.0000 0.68880  0.37879  0.10204  Biso   1.000  Cl
  O9       1.0000 0.68952  0.28170  0.63320  Biso   1.000  O
  O10      1.0000 0.31048  0.78170  0.86680  Biso   1.000  O
  O11      1.0000 0.31048  0.71830  0.36680  Biso   1.000  O
  O12      1.0000 0.68952  0.21830  0.13320  Biso   1.000  O
  O13      1.0000 0.73451  0.97050  0.62692  Biso   1.000  O
  O14      1.0000 0.26549  0.47050  0.87308  Biso   1.000  O
  O15      1.0000 0.26549  0.02950  0.37308  Biso   1.000  O
  O16      1.0000 0.73451  0.52950  0.12692  Biso   1.000  O
  O17      1.0000 0.59697  0.06950  0.58889  Biso   1.000  O
  O18      1.0000 0.40303  0.56950  0.91111  Biso   1.000  O
  O19      1.0000 0.40303  0.93050  0.41111  Biso   1.000  O
  O20      1.0000 0.59697  0.43050  0.08889  Biso   1.000  O
  O21      1.0000 0.73584  0.16420  0.55867  Biso   1.000  O
  O22      1.0000 0.26416  0.66420  0.94133  Biso   1.000  O
  O23      1.0000 0.26416  0.83580  0.44133  Biso   1.000  O
  O24      1.0000 0.73584  0.33580  0.05867  Biso   1.000  O
  Cl5      1.0000 0.76577  0.93695  0.85196  Biso   1.000  Cl
  Cl6      1.0000 0.23423  0.43695  0.64804  Biso   1.000  Cl
  Cl7      1.0000 0.23423  0.06305  0.14804  Biso   1.000  Cl
  Cl8      1.0000 0.76577  0.56305  0.35196  Biso   1.000  Cl
  O25      1.0000 0.67335  0.87570  0.83978  Biso   1.000  O
  O26      1.0000 0.32665  0.37570  0.66022  Biso   1.000  O
  O27      1.0000 0.32665  0.12430  0.16022  Biso   1.000  O
  O28      1.0000 0.67335  0.62430  0.33978  Biso   1.000  O
  O29      1.0000 0.80978  0.97590  0.80683  Biso   1.000  O
  O30      1.0000 0.19022  0.47590  0.69317  Biso   1.000  O
  O31      1.0000 0.19022  0.02410  0.19317  Biso   1.000  O
  O32      1.0000 0.80978  0.52410  0.30683  Biso   1.000  O
  O33      1.0000 0.81486  0.79310  0.87798  Biso   1.000  O
  O34      1.0000 0.18514  0.29310  0.62202  Biso   1.000  O
  O35      1.0000 0.18514  0.20690  0.12202  Biso   1.000  O
  O36      1.0000 0.81486  0.70690  0.37798  Biso   1.000  O
  O37      1.0000 0.76389  0.10110  0.88109  Biso   1.000  O
  O38      1.0000 0.23611  0.60110  0.61891  Biso   1.000  O
  O39      1.0000 0.23611  0.89890  0.11891  Biso   1.000  O
  O40      1.0000 0.76389  0.39890  0.38109  Biso   1.000  O
