data_image0
_cell_length_a       4.702
_cell_length_b       15.531
_cell_length_c       10.005
_cell_angle_alpha    90
_cell_angle_beta     101.75
_cell_angle_gamma    90

_symmetry_space_group_name_H-M    "P 1"
_symmetry_int_tables_number       1

loop_
  _symmetry_equiv_pos_as_xyz
  'x, y, z'

loop_
  _atom_site_label
  _atom_site_occupancy
  _atom_site_fract_x
  _atom_site_fract_y
  _atom_site_fract_z
  _atom_site_thermal_displace_type
  _atom_site_B_iso_or_equiv
  _atom_site_type_symbol
  C1       1.0000 0.88760  0.26830  0.23150  Biso   1.000  C
  C2       1.0000 0.88760  0.73170  0.73150  Biso   1.000  C
  C3       1.0000 0.77520  0.35760  0.25220  Biso   1.000  C
  C4       1.0000 0.77520  0.64240  0.75220  Biso   1.000  C
  C5       1.0000 0.84300  0.43090  0.18960  Biso   1.000  C
  C6       1.0000 0.84300  0.56910  0.68960  Biso   1.000  C
  H1       1.0000 0.96020  0.42830  0.12520  Biso   1.000  H
  H2       1.0000 0.96020  0.57170  0.62520  Biso   1.000  H
  C7       1.0000 0.73440  0.50940  0.22350  Biso   1.000  C
  C8       1.0000 0.73440  0.49060  0.72350  Biso   1.000  C
  H3       1.0000 0.77730  0.56000  0.18210  Biso   1.000  H
  H4       1.0000 0.77730  0.44000  0.68210  Biso   1.000  H
  C9       1.0000 0.56080  0.51090  0.32030  Biso   1.000  C
  C10      1.0000 0.56080  0.48910  0.82030  Biso   1.000  C
  C11      1.0000 0.49530  0.43380  0.37590  Biso   1.000  C
  C12      1.0000 0.49530  0.56620  0.87590  Biso   1.000  C
  H5       1.0000 0.37200  0.43430  0.43770  Biso   1.000  H
  H6       1.0000 0.37200  0.56570  0.93770  Biso   1.000  H
  C13      1.0000 0.43090  0.59440  0.36160  Biso   1.000  C
  C14      1.0000 0.43090  0.40560  0.86160  Biso   1.000  C
  C15      1.0000 0.15970  0.22050  0.58010  Biso   1.000  C
  C16      1.0000 0.15970  0.77950  0.08010  Biso   1.000  C
  C17      1.0000 0.27360  0.13110  0.55890  Biso   1.000  C
  C18      1.0000 0.27360  0.86890  0.05890  Biso   1.000  C
  C19      1.0000 0.20420  0.05780  0.62170  Biso   1.000  C
  C20      1.0000 0.20420  0.94220  0.12170  Biso   1.000  C
  H7       1.0000 0.08990  0.06070  0.68730  Biso   1.000  H
  H8       1.0000 0.08990  0.93930  0.18730  Biso   1.000  H
  C21      1.0000 0.30660  0.97980  0.58600  Biso   1.000  C
  C22      1.0000 0.30660  0.02020  0.08600  Biso   1.000  C
  H9       1.0000 0.25750  0.92910  0.62520  Biso   1.000  H
  H10      1.0000 0.25750  0.07090  0.12520  Biso   1.000  H
  C23      1.0000 0.48640  0.97780  0.48960  Biso   1.000  C
  C24      1.0000 0.48640  0.02220  0.98960  Biso   1.000  C
  C25      1.0000 0.55010  0.05390  0.43510  Biso   1.000  C
  C26      1.0000 0.55010  0.94610  0.93510  Biso   1.000  C
  H11      1.0000 0.67050  0.05300  0.37200  Biso   1.000  H
  H12      1.0000 0.67050  0.94700  0.87200  Biso   1.000  H
  C27      1.0000 0.60440  0.89460  0.44720  Biso   1.000  C
  C28      1.0000 0.60440  0.10540  0.94720  Biso   1.000  C
  Cu1      1.0000 0.52680  0.24428  0.40530  Biso   1.000  Cu
  Cu2      1.0000 0.52680  0.75572  0.90530  Biso   1.000  Cu
  N1       1.0000 0.60230  0.35880  0.34410  Biso   1.000  N
  N2       1.0000 0.60230  0.64120  0.84410  Biso   1.000  N
  N3       1.0000 0.44920  0.12980  0.46720  Biso   1.000  N
  N4       1.0000 0.44920  0.87020  0.96720  Biso   1.000  N
  O1       1.0000 0.78900  0.20730  0.29300  Biso   1.000  O
  O2       1.0000 0.78900  0.79270  0.79300  Biso   1.000  O
  O3       1.0000 0.07960  0.26060  0.16050  Biso   1.000  O
  O4       1.0000 0.07960  0.73940  0.66050  Biso   1.000  O
  O5       1.0000 0.24030  0.58790  0.42990  Biso   1.000  O
  O6       1.0000 0.24030  0.41210  0.92990  Biso   1.000  O
  O7       1.0000 0.53110  0.66290  0.32610  Biso   1.000  O
  O8       1.0000 0.53110  0.33710  0.82610  Biso   1.000  O
  O9       1.0000 0.26320  0.28190  0.51860  Biso   1.000  O
  O10      1.0000 0.26320  0.71810  0.01860  Biso   1.000  O
  O11      1.0000 0.96930  0.22870  0.64630  Biso   1.000  O
  O12      1.0000 0.96930  0.77130  0.14630  Biso   1.000  O
  O13      1.0000 0.81190  0.90010  0.38510  Biso   1.000  O
  O14      1.0000 0.81190  0.09990  0.88510  Biso   1.000  O
  O15      1.0000 0.49790  0.82570  0.47610  Biso   1.000  O
  O16      1.0000 0.49790  0.17430  0.97610  Biso   1.000  O
  Pb1      1.0000 0.02076  0.25481  0.90062  Biso   1.000  Pb
  Pb2      1.0000 0.02076  0.74519  0.40062  Biso   1.000  Pb
