data_image0
_cell_length_a       14.653
_cell_length_b       10.7071
_cell_length_c       24.637
_cell_angle_alpha    90
_cell_angle_beta     94.994
_cell_angle_gamma    90

_symmetry_space_group_name_H-M    "P 1"
_symmetry_int_tables_number       1

loop_
  _symmetry_equiv_pos_as_xyz
  'x, y, z'

loop_
  _atom_site_label
  _atom_site_occupancy
  _atom_site_fract_x
  _atom_site_fract_y
  _atom_site_fract_z
  _atom_site_thermal_displace_type
  _atom_site_B_iso_or_equiv
  _atom_site_type_symbol
  Cu1      1.0000 0.00000  0.50000  0.50000  Biso   1.000  Cu
  Cu2      1.0000 0.00000  0.00000  0.00000  Biso   1.000  Cu
  Cu3      1.0000 0.23502  0.49506  0.34235  Biso   1.000  Cu
  Cu4      1.0000 0.76498  0.99506  0.15765  Biso   1.000  Cu
  Cu5      1.0000 0.76498  0.50494  0.65765  Biso   1.000  Cu
  Cu6      1.0000 0.23502  0.00494  0.84235  Biso   1.000  Cu
  Cu7      1.0000 0.50000  0.50000  0.50000  Biso   1.000  Cu
  Cu8      1.0000 0.50000  0.00000  0.00000  Biso   1.000  Cu
  O1       1.0000 0.36460  0.51440  0.34020  Biso   1.000  O
  O2       1.0000 0.63540  0.01440  0.15980  Biso   1.000  O
  O3       1.0000 0.63540  0.48560  0.65980  Biso   1.000  O
  O4       1.0000 0.36460  0.98560  0.84020  Biso   1.000  O
  Cl1      1.0000 0.44353  0.11140  0.31961  Biso   1.000  Cl
  Cl2      1.0000 0.55647  0.61140  0.18039  Biso   1.000  Cl
  Cl3      1.0000 0.55647  0.88860  0.68039  Biso   1.000  Cl
  Cl4      1.0000 0.44353  0.38860  0.81961  Biso   1.000  Cl
  Cl5      1.0000 0.01781  0.88350  0.31848  Biso   1.000  Cl
  Cl6      1.0000 0.98219  0.38350  0.18152  Biso   1.000  Cl
  Cl7      1.0000 0.98219  0.11650  0.68152  Biso   1.000  Cl
  Cl8      1.0000 0.01781  0.61650  0.81848  Biso   1.000  Cl
  O5       1.0000 0.09310  0.55290  0.42920  Biso   1.000  O
  O6       1.0000 0.90690  0.05290  0.07080  Biso   1.000  O
  O7       1.0000 0.90690  0.44710  0.57080  Biso   1.000  O
  O8       1.0000 0.09310  0.94710  0.92920  Biso   1.000  O
  O9       1.0000 0.10480  0.47730  0.34540  Biso   1.000  O
  O10      1.0000 0.89520  0.97730  0.15460  Biso   1.000  O
  O11      1.0000 0.89520  0.52270  0.65460  Biso   1.000  O
  O12      1.0000 0.10480  0.02270  0.84540  Biso   1.000  O
  O13      1.0000 0.39300  0.45100  0.42620  Biso   1.000  O
  O14      1.0000 0.60700  0.95100  0.07380  Biso   1.000  O
  O15      1.0000 0.60700  0.54900  0.57380  Biso   1.000  O
  O16      1.0000 0.39300  0.04900  0.92620  Biso   1.000  O
  O17      1.0000 0.21040  0.48890  0.25190  Biso   1.000  O
  O18      1.0000 0.78960  0.98890  0.24810  Biso   1.000  O
  O19      1.0000 0.78960  0.51110  0.74810  Biso   1.000  O
  O20      1.0000 0.21040  0.01110  0.75190  Biso   1.000  O
  O21      1.0000 0.21820  0.67900  0.34770  Biso   1.000  O
  O22      1.0000 0.78180  0.17900  0.15230  Biso   1.000  O
  O23      1.0000 0.78180  0.32100  0.65230  Biso   1.000  O
  O24      1.0000 0.21820  0.82100  0.84770  Biso   1.000  O
  O25      1.0000 0.25310  0.31140  0.35100  Biso   1.000  O
  O26      1.0000 0.74690  0.81140  0.14900  Biso   1.000  O
  O27      1.0000 0.74690  0.68860  0.64900  Biso   1.000  O
  O28      1.0000 0.25310  0.18860  0.85100  Biso   1.000  O
  O29      1.0000 0.04230  0.75400  0.31800  Biso   1.000  O
  O30      1.0000 0.95770  0.25400  0.18200  Biso   1.000  O
  O31      1.0000 0.95770  0.24600  0.68200  Biso   1.000  O
  O32      1.0000 0.04230  0.74600  0.81800  Biso   1.000  O
  O33      1.0000 0.08060  0.94970  0.35410  Biso   1.000  O
  O34      1.0000 0.91940  0.44970  0.14590  Biso   1.000  O
  O35      1.0000 0.91940  0.05030  0.64590  Biso   1.000  O
  O36      1.0000 0.08060  0.55030  0.85410  Biso   1.000  O
  O37      1.0000 0.92950  0.89560  0.33860  Biso   1.000  O
  O38      1.0000 0.07050  0.39560  0.16140  Biso   1.000  O
  O39      1.0000 0.07050  0.10440  0.66140  Biso   1.000  O
  O40      1.0000 0.92950  0.60440  0.83860  Biso   1.000  O
  O41      1.0000 0.41640  0.24010  0.31640  Biso   1.000  O
  O42      1.0000 0.58360  0.74010  0.18360  Biso   1.000  O
  O43      1.0000 0.58360  0.75990  0.68360  Biso   1.000  O
  O44      1.0000 0.41640  0.25990  0.81640  Biso   1.000  O
  O45      1.0000 0.53330  0.10660  0.34790  Biso   1.000  O
  O46      1.0000 0.46670  0.60660  0.15210  Biso   1.000  O
  O47      1.0000 0.46670  0.89340  0.65210  Biso   1.000  O
  O48      1.0000 0.53330  0.39340  0.84790  Biso   1.000  O
  O49      1.0000 0.38570  0.04500  0.35290  Biso   1.000  O
  O50      1.0000 0.61430  0.54500  0.14710  Biso   1.000  O
  O51      1.0000 0.61430  0.95500  0.64710  Biso   1.000  O
  O52      1.0000 0.38570  0.45500  0.85290  Biso   1.000  O
  O53      1.0000 0.04460  0.94600  0.26790  Biso   1.000  O
  O54      1.0000 0.95540  0.44600  0.23210  Biso   1.000  O
  O55      1.0000 0.95540  0.05400  0.73210  Biso   1.000  O
  O56      1.0000 0.04460  0.55400  0.76790  Biso   1.000  O
  O57      1.0000 0.98770  0.92200  0.26510  Biso   1.000  O
  O58      1.0000 0.01230  0.42200  0.23490  Biso   1.000  O
  O59      1.0000 0.01230  0.07800  0.73490  Biso   1.000  O
  O60      1.0000 0.98770  0.57800  0.76510  Biso   1.000  O
  N1       1.0000 0.89950  0.56080  0.39710  Biso   1.000  N
  N2       1.0000 0.10050  0.06080  0.10290  Biso   1.000  N
  N3       1.0000 0.10050  0.43920  0.60290  Biso   1.000  N
  N4       1.0000 0.89950  0.93920  0.89710  Biso   1.000  N
  N5       1.0000 0.89830  0.57870  0.45190  Biso   1.000  N
  N6       1.0000 0.10170  0.07870  0.04810  Biso   1.000  N
  N7       1.0000 0.10170  0.42130  0.54810  Biso   1.000  N
  N8       1.0000 0.89830  0.92130  0.95190  Biso   1.000  N
  N9       1.0000 0.96840  0.34050  0.45780  Biso   1.000  N
  N10      1.0000 0.03160  0.84050  0.04220  Biso   1.000  N
  N11      1.0000 0.03160  0.65950  0.54220  Biso   1.000  N
  N12      1.0000 0.96840  0.15950  0.95780  Biso   1.000  N
  N13      1.0000 0.95140  0.34980  0.40220  Biso   1.000  N
  N14      1.0000 0.04860  0.84980  0.09780  Biso   1.000  N
  N15      1.0000 0.04860  0.65020  0.59780  Biso   1.000  N
  N16      1.0000 0.95140  0.15020  0.90220  Biso   1.000  N
  N17      1.0000 0.52820  0.65660  0.45830  Biso   1.000  N
  N18      1.0000 0.47180  0.15660  0.04170  Biso   1.000  N
  N19      1.0000 0.47180  0.34340  0.54170  Biso   1.000  N
  N20      1.0000 0.52820  0.84340  0.95830  Biso   1.000  N
  N21      1.0000 0.53150  0.64590  0.40260  Biso   1.000  N
  N22      1.0000 0.46850  0.14590  0.09740  Biso   1.000  N
  N23      1.0000 0.46850  0.35410  0.59740  Biso   1.000  N
  N24      1.0000 0.53150  0.85410  0.90260  Biso   1.000  N
  N25      1.0000 0.59180  0.41780  0.45630  Biso   1.000  N
  N26      1.0000 0.40820  0.91780  0.04370  Biso   1.000  N
  N27      1.0000 0.40820  0.58220  0.54370  Biso   1.000  N
  N28      1.0000 0.59180  0.08220  0.95630  Biso   1.000  N
  N29      1.0000 0.58180  0.43450  0.40070  Biso   1.000  N
  N30      1.0000 0.41820  0.93450  0.09930  Biso   1.000  N
  N31      1.0000 0.41820  0.56550  0.59930  Biso   1.000  N
  N32      1.0000 0.58180  0.06550  0.90070  Biso   1.000  N
  C1       1.0000 0.82920  0.62220  0.36870  Biso   1.000  C
  C2       1.0000 0.17080  0.12220  0.13130  Biso   1.000  C
  C3       1.0000 0.17080  0.37780  0.63130  Biso   1.000  C
  C4       1.0000 0.82920  0.87780  0.86870  Biso   1.000  C
  C5       1.0000 0.78290  0.68050  0.40600  Biso   1.000  C
  C6       1.0000 0.21710  0.18050  0.09400  Biso   1.000  C
  C7       1.0000 0.21710  0.31950  0.59400  Biso   1.000  C
  C8       1.0000 0.78290  0.81950  0.90600  Biso   1.000  C
  H1       1.0000 0.73170  0.73100  0.39870  Biso   1.000  H
  H2       1.0000 0.26830  0.23100  0.10130  Biso   1.000  H
  H3       1.0000 0.26830  0.26900  0.60130  Biso   1.000  H
  H4       1.0000 0.73170  0.76900  0.89870  Biso   1.000  H
  C9       1.0000 0.82470  0.65260  0.45770  Biso   1.000  C
  C10      1.0000 0.17530  0.15260  0.04230  Biso   1.000  C
  C11      1.0000 0.17530  0.34740  0.54230  Biso   1.000  C
  C12      1.0000 0.82470  0.84740  0.95770  Biso   1.000  C
  C13      1.0000 0.95840  0.22010  0.46890  Biso   1.000  C
  C14      1.0000 0.04160  0.72010  0.03110  Biso   1.000  C
  C15      1.0000 0.04160  0.77990  0.53110  Biso   1.000  C
  C16      1.0000 0.95840  0.27990  0.96890  Biso   1.000  C
  C17      1.0000 0.93560  0.15290  0.42110  Biso   1.000  C
  C18      1.0000 0.06440  0.65290  0.07890  Biso   1.000  C
  C19      1.0000 0.06440  0.84710  0.57890  Biso   1.000  C
  C20      1.0000 0.93560  0.34710  0.92110  Biso   1.000  C
  H5       1.0000 0.92480  0.06750  0.41820  Biso   1.000  H
  H6       1.0000 0.07520  0.56750  0.08180  Biso   1.000  H
  H7       1.0000 0.07520  0.93250  0.58180  Biso   1.000  H
  H8       1.0000 0.92480  0.43250  0.91820  Biso   1.000  H
  C21      1.0000 0.93210  0.23780  0.37890  Biso   1.000  C
  C22      1.0000 0.06790  0.73780  0.12110  Biso   1.000  C
  C23      1.0000 0.06790  0.76220  0.62110  Biso   1.000  C
  C24      1.0000 0.93210  0.26220  0.87890  Biso   1.000  C
  C25      1.0000 0.53900  0.77720  0.46970  Biso   1.000  C
  C26      1.0000 0.46100  0.27720  0.03030  Biso   1.000  C
  C27      1.0000 0.46100  0.22280  0.53030  Biso   1.000  C
  C28      1.0000 0.53900  0.72280  0.96970  Biso   1.000  C
  C29      1.0000 0.54760  0.84510  0.42120  Biso   1.000  C
  C30      1.0000 0.45240  0.34510  0.07880  Biso   1.000  C
  C31      1.0000 0.45240  0.15490  0.57880  Biso   1.000  C
  C32      1.0000 0.54760  0.65490  0.92120  Biso   1.000  C
  H9       1.0000 0.55590  0.93090  0.41820  Biso   1.000  H
  H10      1.0000 0.44410  0.43090  0.08180  Biso   1.000  H
  H11      1.0000 0.44410  0.06910  0.58180  Biso   1.000  H
  H12      1.0000 0.55590  0.56910  0.91820  Biso   1.000  H
  C33      1.0000 0.54130  0.75920  0.37920  Biso   1.000  C
  C34      1.0000 0.45870  0.25920  0.12080  Biso   1.000  C
  C35      1.0000 0.45870  0.24080  0.62080  Biso   1.000  C
  C36      1.0000 0.54130  0.74080  0.87920  Biso   1.000  C
  C37      1.0000 0.66430  0.33860  0.46530  Biso   1.000  C
  C38      1.0000 0.33570  0.83860  0.03470  Biso   1.000  C
  C39      1.0000 0.33570  0.66140  0.53470  Biso   1.000  C
  C40      1.0000 0.66430  0.16140  0.96530  Biso   1.000  C
  C41      1.0000 0.69590  0.30560  0.41600  Biso   1.000  C
  C42      1.0000 0.30410  0.80560  0.08400  Biso   1.000  C
  C43      1.0000 0.30410  0.69440  0.58400  Biso   1.000  C
  C44      1.0000 0.69590  0.19440  0.91600  Biso   1.000  C
  H13      1.0000 0.74400  0.25110  0.41120  Biso   1.000  H
  H14      1.0000 0.25600  0.75110  0.08880  Biso   1.000  H
  H15      1.0000 0.25600  0.74890  0.58880  Biso   1.000  H
  H16      1.0000 0.74400  0.24890  0.91120  Biso   1.000  H
  C45      1.0000 0.64490  0.36620  0.37620  Biso   1.000  C
  C46      1.0000 0.35510  0.86620  0.12380  Biso   1.000  C
  C47      1.0000 0.35510  0.63380  0.62380  Biso   1.000  C
  C48      1.0000 0.64490  0.13380  0.87620  Biso   1.000  C
  C49      1.0000 0.81810  0.62240  0.30740  Biso   1.000  C
  C50      1.0000 0.18190  0.12240  0.19260  Biso   1.000  C
  C51      1.0000 0.18190  0.37760  0.69260  Biso   1.000  C
  C52      1.0000 0.81810  0.87760  0.80740  Biso   1.000  C
  H17      1.0000 0.86380  0.56960  0.29370  Biso   1.000  H
  H18      1.0000 0.13620  0.06960  0.20630  Biso   1.000  H
  H19      1.0000 0.13620  0.43040  0.70630  Biso   1.000  H
  H20      1.0000 0.86380  0.93040  0.79370  Biso   1.000  H
  H21      1.0000 0.82510  0.70600  0.29430  Biso   1.000  H
  H22      1.0000 0.17490  0.20600  0.20570  Biso   1.000  H
  H23      1.0000 0.17490  0.29400  0.70570  Biso   1.000  H
  H24      1.0000 0.82510  0.79400  0.79430  Biso   1.000  H
  H25      1.0000 0.75830  0.59180  0.29500  Biso   1.000  H
  H26      1.0000 0.24170  0.09180  0.20500  Biso   1.000  H
  H27      1.0000 0.24170  0.40820  0.70500  Biso   1.000  H
  H28      1.0000 0.75830  0.90820  0.79500  Biso   1.000  H
  C53      1.0000 0.80010  0.69190  0.51300  Biso   1.000  C
  C54      1.0000 0.19990  0.19190  0.98700  Biso   1.000  C
  C55      1.0000 0.19990  0.30810  0.48700  Biso   1.000  C
  C56      1.0000 0.80010  0.80810  0.01300  Biso   1.000  C
  H29      1.0000 0.84030  0.65160  0.54050  Biso   1.000  H
  H30      1.0000 0.15970  0.15160  0.95950  Biso   1.000  H
  H31      1.0000 0.15970  0.34840  0.45950  Biso   1.000  H
  H32      1.0000 0.84030  0.84840  0.04050  Biso   1.000  H
  H33      1.0000 0.73800  0.66830  0.51740  Biso   1.000  H
  H34      1.0000 0.26200  0.16830  0.98260  Biso   1.000  H
  H35      1.0000 0.26200  0.33170  0.48260  Biso   1.000  H
  H36      1.0000 0.73800  0.83170  0.01740  Biso   1.000  H
  H37      1.0000 0.80630  0.78080  0.51660  Biso   1.000  H
  H38      1.0000 0.19370  0.28080  0.98340  Biso   1.000  H
  H39      1.0000 0.19370  0.21920  0.48340  Biso   1.000  H
  H40      1.0000 0.80630  0.71920  0.01660  Biso   1.000  H
  C57      1.0000 0.96990  0.17200  0.52630  Biso   1.000  C
  C58      1.0000 0.03010  0.67200  0.97370  Biso   1.000  C
  C59      1.0000 0.03010  0.82800  0.47370  Biso   1.000  C
  C60      1.0000 0.96990  0.32800  0.02630  Biso   1.000  C
  H41      1.0000 0.03400  0.16440  0.53770  Biso   1.000  H
  H42      1.0000 0.96600  0.66440  0.96230  Biso   1.000  H
  H43      1.0000 0.96600  0.83560  0.46230  Biso   1.000  H
  H44      1.0000 0.03400  0.33560  0.03770  Biso   1.000  H
  H45      1.0000 0.94120  0.09170  0.52790  Biso   1.000  H
  H46      1.0000 0.05880  0.59170  0.97210  Biso   1.000  H
  H47      1.0000 0.05880  0.90830  0.47210  Biso   1.000  H
  H48      1.0000 0.94120  0.40830  0.02790  Biso   1.000  H
  H49      1.0000 0.94200  0.22910  0.54990  Biso   1.000  H
  H50      1.0000 0.05800  0.72910  0.95010  Biso   1.000  H
  H51      1.0000 0.05800  0.77090  0.45010  Biso   1.000  H
  H52      1.0000 0.94200  0.27090  0.04990  Biso   1.000  H
  C61      1.0000 0.91380  0.22150  0.31940  Biso   1.000  C
  C62      1.0000 0.08620  0.72150  0.18060  Biso   1.000  C
  C63      1.0000 0.08620  0.77850  0.68060  Biso   1.000  C
  C64      1.0000 0.91380  0.27850  0.81940  Biso   1.000  C
  H53      1.0000 0.86730  0.27940  0.30580  Biso   1.000  H
  H54      1.0000 0.13270  0.77940  0.19420  Biso   1.000  H
  H55      1.0000 0.13270  0.72060  0.69420  Biso   1.000  H
  H56      1.0000 0.86730  0.22060  0.80580  Biso   1.000  H
  H57      1.0000 0.89330  0.13770  0.31170  Biso   1.000  H
  H58      1.0000 0.10670  0.63770  0.18830  Biso   1.000  H
  H59      1.0000 0.10670  0.86230  0.68830  Biso   1.000  H
  H60      1.0000 0.89330  0.36230  0.81170  Biso   1.000  H
  H61      1.0000 0.96900  0.23690  0.30210  Biso   1.000  H
  H62      1.0000 0.03100  0.73690  0.19790  Biso   1.000  H
  H63      1.0000 0.03100  0.76310  0.69790  Biso   1.000  H
  H64      1.0000 0.96900  0.26310  0.80210  Biso   1.000  H
  C65      1.0000 0.54280  0.82700  0.52610  Biso   1.000  C
  C66      1.0000 0.45720  0.32700  0.97390  Biso   1.000  C
  C67      1.0000 0.45720  0.17300  0.47390  Biso   1.000  C
  C68      1.0000 0.54280  0.67300  0.02610  Biso   1.000  C
  H65      1.0000 0.48200  0.83090  0.53770  Biso   1.000  H
  H66      1.0000 0.51800  0.33090  0.96230  Biso   1.000  H
  H67      1.0000 0.51800  0.16910  0.46230  Biso   1.000  H
  H68      1.0000 0.48200  0.66910  0.03770  Biso   1.000  H
  H69      1.0000 0.56900  0.90920  0.52700  Biso   1.000  H
  H70      1.0000 0.43100  0.40920  0.97300  Biso   1.000  H
  H71      1.0000 0.43100  0.09080  0.47300  Biso   1.000  H
  H72      1.0000 0.56900  0.59080  0.02700  Biso   1.000  H
  H73      1.0000 0.57980  0.77310  0.55010  Biso   1.000  H
  H74      1.0000 0.42020  0.27310  0.94990  Biso   1.000  H
  H75      1.0000 0.42020  0.22690  0.44990  Biso   1.000  H
  H76      1.0000 0.57980  0.72690  0.05010  Biso   1.000  H
  C69      1.0000 0.54300  0.77350  0.31910  Biso   1.000  C
  C70      1.0000 0.45700  0.27350  0.18090  Biso   1.000  C
  C71      1.0000 0.45700  0.22650  0.68090  Biso   1.000  C
  C72      1.0000 0.54300  0.72650  0.81910  Biso   1.000  C
  H77      1.0000 0.59790  0.73650  0.30780  Biso   1.000  H
  H78      1.0000 0.40210  0.23650  0.19220  Biso   1.000  H
  H79      1.0000 0.40210  0.26350  0.69220  Biso   1.000  H
  H80      1.0000 0.59790  0.76350  0.80780  Biso   1.000  H
  H81      1.0000 0.54160  0.86060  0.30990  Biso   1.000  H
  H82      1.0000 0.45840  0.36060  0.19010  Biso   1.000  H
  H83      1.0000 0.45840  0.13940  0.69010  Biso   1.000  H
  H84      1.0000 0.54160  0.63940  0.80990  Biso   1.000  H
  H85      1.0000 0.49050  0.73260  0.30100  Biso   1.000  H
  H86      1.0000 0.50950  0.23260  0.19900  Biso   1.000  H
  H87      1.0000 0.50950  0.26740  0.69900  Biso   1.000  H
  H88      1.0000 0.49050  0.76740  0.80100  Biso   1.000  H
  C73      1.0000 0.69670  0.29830  0.52190  Biso   1.000  C
  C74      1.0000 0.30330  0.79830  0.97810  Biso   1.000  C
  C75      1.0000 0.30330  0.70170  0.47810  Biso   1.000  C
  C76      1.0000 0.69670  0.20170  0.02190  Biso   1.000  C
  H89      1.0000 0.65630  0.33100  0.54710  Biso   1.000  H
  H90      1.0000 0.34370  0.83100  0.95290  Biso   1.000  H
  H91      1.0000 0.34370  0.66900  0.45290  Biso   1.000  H
  H92      1.0000 0.65630  0.16900  0.04710  Biso   1.000  H
  H93      1.0000 0.75760  0.32950  0.53110  Biso   1.000  H
  H94      1.0000 0.24240  0.82950  0.96890  Biso   1.000  H
  H95      1.0000 0.24240  0.67050  0.46890  Biso   1.000  H
  H96      1.0000 0.75760  0.17050  0.03110  Biso   1.000  H
  H97      1.0000 0.69710  0.20880  0.52380  Biso   1.000  H
  H98      1.0000 0.30290  0.70880  0.97620  Biso   1.000  H
  H99      1.0000 0.30290  0.79120  0.47620  Biso   1.000  H
  H100     1.0000 0.69710  0.29120  0.02380  Biso   1.000  H
  C77      1.0000 0.64580  0.36130  0.31510  Biso   1.000  C
  C78      1.0000 0.35420  0.86130  0.18490  Biso   1.000  C
  C79      1.0000 0.35420  0.63870  0.68490  Biso   1.000  C
  C80      1.0000 0.64580  0.13870  0.81510  Biso   1.000  C
  H101     1.0000 0.60010  0.41710  0.29870  Biso   1.000  H
  H102     1.0000 0.39990  0.91710  0.20130  Biso   1.000  H
  H103     1.0000 0.39990  0.58290  0.70130  Biso   1.000  H
  H104     1.0000 0.60010  0.08290  0.79870  Biso   1.000  H
  H105     1.0000 0.63280  0.27770  0.30270  Biso   1.000  H
  H106     1.0000 0.36720  0.77770  0.19730  Biso   1.000  H
  H107     1.0000 0.36720  0.72230  0.69730  Biso   1.000  H
  H108     1.0000 0.63280  0.22230  0.80270  Biso   1.000  H
  H109     1.0000 0.70500  0.38610  0.30510  Biso   1.000  H
  H110     1.0000 0.29500  0.88610  0.19490  Biso   1.000  H
  H111     1.0000 0.29500  0.61390  0.69490  Biso   1.000  H
  H112     1.0000 0.70500  0.11390  0.80510  Biso   1.000  H
  C81      1.0000 0.96090  0.47100  0.37570  Biso   1.000  C
  C82      1.0000 0.03910  0.97100  0.12430  Biso   1.000  C
  C83      1.0000 0.03910  0.52900  0.62430  Biso   1.000  C
  C84      1.0000 0.96090  0.02900  0.87570  Biso   1.000  C
  C85      1.0000 0.06330  0.50710  0.38540  Biso   1.000  C
  C86      1.0000 0.93670  0.00710  0.11460  Biso   1.000  C
  C87      1.0000 0.93670  0.49290  0.61460  Biso   1.000  C
  C88      1.0000 0.06330  0.99290  0.88540  Biso   1.000  C
  C89      1.0000 0.51690  0.52340  0.37670  Biso   1.000  C
  C90      1.0000 0.48310  0.02340  0.12330  Biso   1.000  C
  C91      1.0000 0.48310  0.47660  0.62330  Biso   1.000  C
  C92      1.0000 0.51690  0.97660  0.87670  Biso   1.000  C
  H113     1.0000 0.52570  0.53130  0.33790  Biso   1.000  H
  H114     1.0000 0.47430  0.03130  0.16210  Biso   1.000  H
  H115     1.0000 0.47430  0.46870  0.66210  Biso   1.000  H
  H116     1.0000 0.52570  0.96870  0.83790  Biso   1.000  H
  C93      1.0000 0.41550  0.48930  0.38260  Biso   1.000  C
  C94      1.0000 0.58450  0.98930  0.11740  Biso   1.000  C
  C95      1.0000 0.58450  0.51070  0.61740  Biso   1.000  C
  C96      1.0000 0.41550  0.01070  0.88260  Biso   1.000  C
  C97      1.0000 0.27560  0.48190  0.21440  Biso   1.000  C
  C98      1.0000 0.72440  0.98190  0.28560  Biso   1.000  C
  C99      1.0000 0.72440  0.51810  0.78560  Biso   1.000  C
  C100     1.0000 0.27560  0.01810  0.71440  Biso   1.000  C
  H117     1.0000 0.33560  0.49230  0.23290  Biso   1.000  H
  H118     1.0000 0.66440  0.99230  0.26710  Biso   1.000  H
  H119     1.0000 0.66440  0.50770  0.76710  Biso   1.000  H
  H120     1.0000 0.33560  0.00770  0.73290  Biso   1.000  H
  H121     1.0000 0.26460  0.54670  0.18770  Biso   1.000  H
  H122     1.0000 0.73540  0.04670  0.31230  Biso   1.000  H
  H123     1.0000 0.73540  0.45330  0.81230  Biso   1.000  H
  H124     1.0000 0.26460  0.95330  0.68770  Biso   1.000  H
  H125     1.0000 0.27180  0.40200  0.19680  Biso   1.000  H
  H126     1.0000 0.72820  0.90200  0.30320  Biso   1.000  H
  H127     1.0000 0.72820  0.59800  0.80320  Biso   1.000  H
  H128     1.0000 0.27180  0.09800  0.69680  Biso   1.000  H
  C101     1.0000 0.27710  0.77350  0.32810  Biso   1.000  C
  C102     1.0000 0.72290  0.27350  0.17190  Biso   1.000  C
  C103     1.0000 0.72290  0.22650  0.67190  Biso   1.000  C
  C104     1.0000 0.27710  0.72650  0.82810  Biso   1.000  C
  H129     1.0000 0.25350  0.85460  0.33580  Biso   1.000  H
  H130     1.0000 0.74650  0.35460  0.16420  Biso   1.000  H
  H131     1.0000 0.74650  0.14540  0.66420  Biso   1.000  H
  H132     1.0000 0.25350  0.64540  0.83580  Biso   1.000  H
  H133     1.0000 0.27940  0.76430  0.28950  Biso   1.000  H
  H134     1.0000 0.72060  0.26430  0.21050  Biso   1.000  H
  H135     1.0000 0.72060  0.23570  0.71050  Biso   1.000  H
  H136     1.0000 0.27940  0.73570  0.78950  Biso   1.000  H
  H137     1.0000 0.33760  0.76460  0.34600  Biso   1.000  H
  H138     1.0000 0.66240  0.26460  0.15400  Biso   1.000  H
  H139     1.0000 0.66240  0.23540  0.65400  Biso   1.000  H
  H140     1.0000 0.33760  0.73540  0.84600  Biso   1.000  H
  C105     1.0000 0.18610  0.21600  0.33930  Biso   1.000  C
  C106     1.0000 0.81390  0.71600  0.16070  Biso   1.000  C
  C107     1.0000 0.81390  0.78400  0.66070  Biso   1.000  C
  C108     1.0000 0.18610  0.28400  0.83930  Biso   1.000  C
  H141     1.0000 0.21320  0.13580  0.34720  Biso   1.000  H
  H142     1.0000 0.78680  0.63580  0.15280  Biso   1.000  H
  H143     1.0000 0.78680  0.86420  0.65280  Biso   1.000  H
  H144     1.0000 0.21320  0.36420  0.84720  Biso   1.000  H
  H145     1.0000 0.16400  0.21980  0.30150  Biso   1.000  H
  H146     1.0000 0.83600  0.71980  0.19850  Biso   1.000  H
  H147     1.0000 0.83600  0.78020  0.69850  Biso   1.000  H
  H148     1.0000 0.16400  0.28020  0.80150  Biso   1.000  H
  H149     1.0000 0.13590  0.22840  0.36130  Biso   1.000  H
  H150     1.0000 0.86410  0.72840  0.13870  Biso   1.000  H
  H151     1.0000 0.86410  0.77160  0.63870  Biso   1.000  H
  H152     1.0000 0.13590  0.27160  0.86130  Biso   1.000  H
  O61      1.0000 0.44640  0.05400  0.26880  Biso   1.000  O
  O62      1.0000 0.55360  0.55400  0.23120  Biso   1.000  O
  O63      1.0000 0.55360  0.94600  0.73120  Biso   1.000  O
  O64      1.0000 0.44640  0.44600  0.76880  Biso   1.000  O
  O65      1.0000 0.48400  0.07200  0.26740  Biso   1.000  O
  O66      1.0000 0.51600  0.57200  0.23260  Biso   1.000  O
  O67      1.0000 0.51600  0.92800  0.73260  Biso   1.000  O
  O68      1.0000 0.48400  0.42800  0.76740  Biso   1.000  O
  O69      1.0000 0.39800  0.05500  0.27100  Biso   1.000  O
  O70      1.0000 0.60200  0.55500  0.22900  Biso   1.000  O
  O71      1.0000 0.60200  0.94500  0.72900  Biso   1.000  O
  O72      1.0000 0.39800  0.44500  0.77100  Biso   1.000  O
