data_image0
_cell_length_a       12.63
_cell_length_b       20.856
_cell_length_c       7.133
_cell_angle_alpha    90
_cell_angle_beta     124.24
_cell_angle_gamma    90

_symmetry_space_group_name_H-M    "P 1"
_symmetry_int_tables_number       1

loop_
  _symmetry_equiv_pos_as_xyz
  'x, y, z'

loop_
  _atom_site_label
  _atom_site_occupancy
  _atom_site_fract_x
  _atom_site_fract_y
  _atom_site_fract_z
  _atom_site_thermal_displace_type
  _atom_site_B_iso_or_equiv
  _atom_site_type_symbol
  Cu1      1.0000 0.42855  0.50000  0.27850  Biso   1.000  Cu
  Cu2      1.0000 0.57145  0.50000  0.72150  Biso   1.000  Cu
  Cu3      1.0000 0.92855  0.00000  0.27850  Biso   1.000  Cu
  Cu4      1.0000 0.07145  0.00000  0.72150  Biso   1.000  Cu
  C1       1.0000 0.64220  0.58320  0.49210  Biso   1.000  C
  C2       1.0000 0.35780  0.58320  0.50790  Biso   1.000  C
  C3       1.0000 0.14220  0.08320  0.49210  Biso   1.000  C
  C4       1.0000 0.85780  0.08320  0.50790  Biso   1.000  C
  C5       1.0000 0.35780  0.41680  0.50790  Biso   1.000  C
  C6       1.0000 0.64220  0.41680  0.49210  Biso   1.000  C
  C7       1.0000 0.85780  0.91680  0.50790  Biso   1.000  C
  C8       1.0000 0.14220  0.91680  0.49210  Biso   1.000  C
  C9       1.0000 0.73160  0.62960  0.49250  Biso   1.000  C
  C10      1.0000 0.26840  0.62960  0.50750  Biso   1.000  C
  C11      1.0000 0.23160  0.12960  0.49250  Biso   1.000  C
  C12      1.0000 0.76840  0.12960  0.50750  Biso   1.000  C
  C13      1.0000 0.26840  0.37040  0.50750  Biso   1.000  C
  C14      1.0000 0.73160  0.37040  0.49250  Biso   1.000  C
  C15      1.0000 0.76840  0.87040  0.50750  Biso   1.000  C
  C16      1.0000 0.23160  0.87040  0.49250  Biso   1.000  C
  C17      1.0000 0.70990  0.65240  0.29140  Biso   1.000  C
  C18      1.0000 0.29010  0.65240  0.70860  Biso   1.000  C
  C19      1.0000 0.20990  0.15240  0.29140  Biso   1.000  C
  C20      1.0000 0.79010  0.15240  0.70860  Biso   1.000  C
  C21      1.0000 0.29010  0.34760  0.70860  Biso   1.000  C
  C22      1.0000 0.70990  0.34760  0.29140  Biso   1.000  C
  C23      1.0000 0.79010  0.84760  0.70860  Biso   1.000  C
  C24      1.0000 0.20990  0.84760  0.29140  Biso   1.000  C
  H1       1.0000 0.63800  0.63870  0.15410  Biso   1.000  H
  H2       1.0000 0.36200  0.63870  0.84590  Biso   1.000  H
  H3       1.0000 0.13800  0.13870  0.15410  Biso   1.000  H
  H4       1.0000 0.86200  0.13870  0.84590  Biso   1.000  H
  H5       1.0000 0.36200  0.36130  0.84590  Biso   1.000  H
  H6       1.0000 0.63800  0.36130  0.15410  Biso   1.000  H
  H7       1.0000 0.86200  0.86130  0.84590  Biso   1.000  H
  H8       1.0000 0.13800  0.86130  0.15410  Biso   1.000  H
  C25      1.0000 0.79300  0.69530  0.29140  Biso   1.000  C
  C26      1.0000 0.20700  0.69530  0.70860  Biso   1.000  C
  C27      1.0000 0.29300  0.19530  0.29140  Biso   1.000  C
  C28      1.0000 0.70700  0.19530  0.70860  Biso   1.000  C
  C29      1.0000 0.20700  0.30470  0.70860  Biso   1.000  C
  C30      1.0000 0.79300  0.30470  0.29140  Biso   1.000  C
  C31      1.0000 0.70700  0.80470  0.70860  Biso   1.000  C
  C32      1.0000 0.29300  0.80470  0.29140  Biso   1.000  C
  H9       1.0000 0.77650  0.71010  0.15440  Biso   1.000  H
  H10      1.0000 0.22350  0.71010  0.84560  Biso   1.000  H
  H11      1.0000 0.27650  0.21010  0.15440  Biso   1.000  H
  H12      1.0000 0.72350  0.21010  0.84560  Biso   1.000  H
  H13      1.0000 0.22350  0.28990  0.84560  Biso   1.000  H
  H14      1.0000 0.77650  0.28990  0.15440  Biso   1.000  H
  H15      1.0000 0.72350  0.78990  0.84560  Biso   1.000  H
  H16      1.0000 0.27650  0.78990  0.15440  Biso   1.000  H
  C33      1.0000 0.90110  0.71650  0.49440  Biso   1.000  C
  C34      1.0000 0.09890  0.71650  0.50560  Biso   1.000  C
  C35      1.0000 0.40110  0.21650  0.49440  Biso   1.000  C
  C36      1.0000 0.59890  0.21650  0.50560  Biso   1.000  C
  C37      1.0000 0.09890  0.28350  0.50560  Biso   1.000  C
  C38      1.0000 0.90110  0.28350  0.49440  Biso   1.000  C
  C39      1.0000 0.59890  0.78350  0.50560  Biso   1.000  C
  C40      1.0000 0.40110  0.78350  0.49440  Biso   1.000  C
  C41      1.0000 0.92080  0.69450  0.69380  Biso   1.000  C
  C42      1.0000 0.07920  0.69450  0.30620  Biso   1.000  C
  C43      1.0000 0.42080  0.19450  0.69380  Biso   1.000  C
  C44      1.0000 0.57920  0.19450  0.30620  Biso   1.000  C
  C45      1.0000 0.07920  0.30550  0.30620  Biso   1.000  C
  C46      1.0000 0.92080  0.30550  0.69380  Biso   1.000  C
  C47      1.0000 0.57920  0.80550  0.30620  Biso   1.000  C
  C48      1.0000 0.42080  0.80550  0.69380  Biso   1.000  C
  H17      1.0000 0.99130  0.70910  0.83150  Biso   1.000  H
  H18      1.0000 0.00870  0.70910  0.16850  Biso   1.000  H
  H19      1.0000 0.49130  0.20910  0.83150  Biso   1.000  H
  H20      1.0000 0.50870  0.20910  0.16850  Biso   1.000  H
  H21      1.0000 0.00870  0.29090  0.16850  Biso   1.000  H
  H22      1.0000 0.99130  0.29090  0.83150  Biso   1.000  H
  H23      1.0000 0.50870  0.79090  0.16850  Biso   1.000  H
  H24      1.0000 0.49130  0.79090  0.83150  Biso   1.000  H
  C49      1.0000 0.83760  0.65130  0.69310  Biso   1.000  C
  C50      1.0000 0.16240  0.65130  0.30690  Biso   1.000  C
  C51      1.0000 0.33760  0.15130  0.69310  Biso   1.000  C
  C52      1.0000 0.66240  0.15130  0.30690  Biso   1.000  C
  C53      1.0000 0.16240  0.34870  0.30690  Biso   1.000  C
  C54      1.0000 0.83760  0.34870  0.69310  Biso   1.000  C
  C55      1.0000 0.66240  0.84870  0.30690  Biso   1.000  C
  C56      1.0000 0.33760  0.84870  0.69310  Biso   1.000  C
  H25      1.0000 0.85360  0.63670  0.82990  Biso   1.000  H
  H26      1.0000 0.14640  0.63670  0.17010  Biso   1.000  H
  H27      1.0000 0.35360  0.13670  0.82990  Biso   1.000  H
  H28      1.0000 0.64640  0.13670  0.17010  Biso   1.000  H
  H29      1.0000 0.14640  0.36330  0.17010  Biso   1.000  H
  H30      1.0000 0.85360  0.36330  0.82990  Biso   1.000  H
  H31      1.0000 0.64640  0.86330  0.17010  Biso   1.000  H
  H32      1.0000 0.35360  0.86330  0.82990  Biso   1.000  H
  C57      1.0000 0.00000  0.75940  0.50000  Biso   1.000  C
  C58      1.0000 0.50000  0.25940  0.50000  Biso   1.000  C
  C59      1.0000 0.00000  0.24060  0.50000  Biso   1.000  C
  C60      1.0000 0.50000  0.74060  0.50000  Biso   1.000  C
  O1       1.0000 0.93070  0.79560  0.27910  Biso   1.000  O
  O2       1.0000 0.06930  0.79560  0.72090  Biso   1.000  O
  O3       1.0000 0.43070  0.29560  0.27910  Biso   1.000  O
  O4       1.0000 0.56930  0.29560  0.72090  Biso   1.000  O
  O5       1.0000 0.06930  0.20440  0.72090  Biso   1.000  O
  O6       1.0000 0.93070  0.20440  0.27910  Biso   1.000  O
  O7       1.0000 0.56930  0.70440  0.72090  Biso   1.000  O
  O8       1.0000 0.43070  0.70440  0.27910  Biso   1.000  O
  H33      1.0000 0.96490  0.83060  0.29780  Biso   1.000  H
  H34      1.0000 0.03510  0.83060  0.70220  Biso   1.000  H
  H35      1.0000 0.46490  0.33060  0.29780  Biso   1.000  H
  H36      1.0000 0.53510  0.33060  0.70220  Biso   1.000  H
  H37      1.0000 0.03510  0.16940  0.70220  Biso   1.000  H
  H38      1.0000 0.96490  0.16940  0.29780  Biso   1.000  H
  H39      1.0000 0.53510  0.66940  0.70220  Biso   1.000  H
  H40      1.0000 0.46490  0.66940  0.29780  Biso   1.000  H
  O9       1.0000 0.66710  0.56570  0.67900  Biso   1.000  O
  O10      1.0000 0.33290  0.56570  0.32100  Biso   1.000  O
  O11      1.0000 0.16710  0.06570  0.67900  Biso   1.000  O
  O12      1.0000 0.83290  0.06570  0.32100  Biso   1.000  O
  O13      1.0000 0.33290  0.43430  0.32100  Biso   1.000  O
  O14      1.0000 0.66710  0.43430  0.67900  Biso   1.000  O
  O15      1.0000 0.83290  0.93430  0.32100  Biso   1.000  O
  O16      1.0000 0.16710  0.93430  0.67900  Biso   1.000  O
  O17      1.0000 0.54980  0.56430  0.30970  Biso   1.000  O
  O18      1.0000 0.45020  0.56430  0.69030  Biso   1.000  O
  O19      1.0000 0.04980  0.06430  0.30970  Biso   1.000  O
  O20      1.0000 0.95020  0.06430  0.69030  Biso   1.000  O
  O21      1.0000 0.45020  0.43570  0.69030  Biso   1.000  O
  O22      1.0000 0.54980  0.43570  0.30970  Biso   1.000  O
  O23      1.0000 0.95020  0.93570  0.69030  Biso   1.000  O
  O24      1.0000 0.04980  0.93570  0.30970  Biso   1.000  O
  O25      1.0000 0.31570  0.50000  0.91620  Biso   1.000  O
  O26      1.0000 0.68430  0.50000  0.08380  Biso   1.000  O
  O27      1.0000 0.81570  0.00000  0.91620  Biso   1.000  O
  O28      1.0000 0.18430  0.00000  0.08380  Biso   1.000  O
  O29      1.0000 0.05690  0.45680  0.68900  Biso   1.000  O
  O30      1.0000 0.94310  0.45680  0.31100  Biso   1.000  O
  O31      1.0000 0.55690  0.95680  0.68900  Biso   1.000  O
  O32      1.0000 0.44310  0.95680  0.31100  Biso   1.000  O
  O33      1.0000 0.94310  0.54320  0.31100  Biso   1.000  O
  O34      1.0000 0.05690  0.54320  0.68900  Biso   1.000  O
  O35      1.0000 0.44310  0.04320  0.31100  Biso   1.000  O
  O36      1.0000 0.55690  0.04320  0.68900  Biso   1.000  O
  O37      1.0000 0.94400  0.50000  0.93900  Biso   1.000  O
  O38      1.0000 0.05600  0.50000  0.06100  Biso   1.000  O
  O39      1.0000 0.44400  0.00000  0.93900  Biso   1.000  O
  O40      1.0000 0.55600  0.00000  0.06100  Biso   1.000  O
