data_image0
_cell_length_a       7.4241
_cell_length_b       12.493
_cell_length_c       12.627
_cell_angle_alpha    74.51
_cell_angle_beta     78
_cell_angle_gamma    85.82

_symmetry_space_group_name_H-M    "P 1"
_symmetry_int_tables_number       1

loop_
  _symmetry_equiv_pos_as_xyz
  'x, y, z'

loop_
  _atom_site_label
  _atom_site_occupancy
  _atom_site_fract_x
  _atom_site_fract_y
  _atom_site_fract_z
  _atom_site_thermal_displace_type
  _atom_site_B_iso_or_equiv
  _atom_site_type_symbol
  Cu1      1.0000 0.06682  0.32142  0.74778  Biso   1.000  Cu
  Cu2      1.0000 0.93318  0.67858  0.25222  Biso   1.000  Cu
  N1       1.0000 0.00470  0.45690  0.80850  Biso   1.000  N
  N2       1.0000 0.99530  0.54310  0.19150  Biso   1.000  N
  N3       1.0000 0.31330  0.39290  0.69480  Biso   1.000  N
  N4       1.0000 0.68670  0.60710  0.30520  Biso   1.000  N
  C1       1.0000 0.25510  0.97290  0.25620  Biso   1.000  C
  C2       1.0000 0.74490  0.02710  0.74380  Biso   1.000  C
  C3       1.0000 0.20930  0.03900  0.34370  Biso   1.000  C
  C4       1.0000 0.79070  0.96100  0.65630  Biso   1.000  C
  C5       1.0000 0.10370  0.13560  0.32340  Biso   1.000  C
  C6       1.0000 0.89630  0.86440  0.67660  Biso   1.000  C
  H1       1.0000 0.05470  0.15750  0.25690  Biso   1.000  H
  H2       1.0000 0.94530  0.84250  0.74310  Biso   1.000  H
  C7       1.0000 0.06870  0.20060  0.39920  Biso   1.000  C
  C8       1.0000 0.93130  0.79940  0.60080  Biso   1.000  C
  H3       1.0000 0.99660  0.26680  0.38360  Biso   1.000  H
  H4       1.0000 0.00340  0.73320  0.61640  Biso   1.000  H
  C9       1.0000 0.13630  0.17090  0.49630  Biso   1.000  C
  C10      1.0000 0.86370  0.82910  0.50370  Biso   1.000  C
  C11      1.0000 0.23680  0.07360  0.51820  Biso   1.000  C
  C12      1.0000 0.76320  0.92640  0.48180  Biso   1.000  C
  H5       1.0000 0.28110  0.05040  0.58630  Biso   1.000  H
  H6       1.0000 0.71890  0.94960  0.41370  Biso   1.000  H
  C13      1.0000 0.27460  0.00830  0.44180  Biso   1.000  C
  C14      1.0000 0.72540  0.99170  0.55820  Biso   1.000  C
  H7       1.0000 0.34620  0.94190  0.45780  Biso   1.000  H
  H8       1.0000 0.65380  0.05810  0.54220  Biso   1.000  H
  C15      1.0000 0.09870  0.24150  0.57740  Biso   1.000  C
  C16      1.0000 0.90130  0.75850  0.42260  Biso   1.000  C
  C17      1.0000 0.41350  0.02990  0.16290  Biso   1.000  C
  C18      1.0000 0.58650  0.97010  0.83710  Biso   1.000  C
  C19      1.0000 0.59530  0.00510  0.17670  Biso   1.000  C
  C20      1.0000 0.40470  0.99490  0.82330  Biso   1.000  C
  H9       1.0000 0.62060  0.95040  0.24060  Biso   1.000  H
  H10      1.0000 0.37940  0.04960  0.75940  Biso   1.000  H
  C21      1.0000 0.73890  0.06090  0.09610  Biso   1.000  C
  C22      1.0000 0.26110  0.93910  0.90390  Biso   1.000  C
  H11      1.0000 0.86240  0.04410  0.10530  Biso   1.000  H
  H12      1.0000 0.13760  0.95590  0.89470  Biso   1.000  H
  C23      1.0000 0.37780  0.10830  0.06940  Biso   1.000  C
  C24      1.0000 0.62220  0.89170  0.93060  Biso   1.000  C
  H13      1.0000 0.25430  0.12510  0.06010  Biso   1.000  H
  H14      1.0000 0.74570  0.87490  0.93990  Biso   1.000  H
  C25      1.0000 0.52140  0.16270  0.98900  Biso   1.000  C
  C26      1.0000 0.47860  0.83730  0.01100  Biso   1.000  C
  H15      1.0000 0.49590  0.21540  0.92390  Biso   1.000  H
  H16      1.0000 0.50410  0.78460  0.07610  Biso   1.000  H
  C27      1.0000 0.70340  0.14060  0.00290  Biso   1.000  C
  C28      1.0000 0.29660  0.85940  0.99710  Biso   1.000  C
  C29      1.0000 0.85800  0.20210  0.91790  Biso   1.000  C
  C30      1.0000 0.14200  0.79790  0.08210  Biso   1.000  C
  C31      1.0000 0.84960  0.48450  0.86780  Biso   1.000  C
  C32      1.0000 0.15040  0.51550  0.13220  Biso   1.000  C
  H17      1.0000 0.74540  0.43910  0.88240  Biso   1.000  H
  H18      1.0000 0.25460  0.56090  0.11760  Biso   1.000  H
  C33      1.0000 0.83180  0.57800  0.91020  Biso   1.000  C
  C34      1.0000 0.16820  0.42200  0.08980  Biso   1.000  C
  H19      1.0000 0.71680  0.59630  0.95140  Biso   1.000  H
  H20      1.0000 0.28320  0.40370  0.04860  Biso   1.000  H
  C35      1.0000 0.97910  0.64220  0.89220  Biso   1.000  C
  C36      1.0000 0.02090  0.35780  0.10780  Biso   1.000  C
  H21      1.0000 0.96990  0.70370  0.92400  Biso   1.000  H
  H22      1.0000 0.03010  0.29630  0.07600  Biso   1.000  H
  C37      1.0000 0.14550  0.61810  0.82650  Biso   1.000  C
  C38      1.0000 0.85450  0.38190  0.17350  Biso   1.000  C
  C39      1.0000 0.30900  0.68220  0.79760  Biso   1.000  C
  C40      1.0000 0.69100  0.31780  0.20240  Biso   1.000  C
  H23      1.0000 0.30780  0.74640  0.82450  Biso   1.000  H
  H24      1.0000 0.69220  0.25360  0.17550  Biso   1.000  H
  C41      1.0000 0.46480  0.65420  0.73350  Biso   1.000  C
  C42      1.0000 0.53520  0.34580  0.26650  Biso   1.000  C
  H25      1.0000 0.56820  0.70120  0.71240  Biso   1.000  H
  H26      1.0000 0.43180  0.29880  0.28760  Biso   1.000  H
  C43      1.0000 0.47630  0.55410  0.69670  Biso   1.000  C
  C44      1.0000 0.52370  0.44590  0.30330  Biso   1.000  C
  C45      1.0000 0.31840  0.48910  0.72370  Biso   1.000  C
  C46      1.0000 0.68160  0.51090  0.27630  Biso   1.000  C
  C47      1.0000 0.15440  0.52280  0.78930  Biso   1.000  C
  C48      1.0000 0.84560  0.47720  0.21070  Biso   1.000  C
  C49      1.0000 0.63330  0.51600  0.63290  Biso   1.000  C
  C50      1.0000 0.36670  0.48400  0.36710  Biso   1.000  C
  H27      1.0000 0.74240  0.55830  0.60910  Biso   1.000  H
  H28      1.0000 0.25760  0.44170  0.39090  Biso   1.000  H
  C51      1.0000 0.62930  0.41960  0.60540  Biso   1.000  C
  C52      1.0000 0.37070  0.58040  0.39460  Biso   1.000  C
  H29      1.0000 0.73710  0.39270  0.56450  Biso   1.000  H
  H30      1.0000 0.26290  0.60730  0.43550  Biso   1.000  H
  C53      1.0000 0.46620  0.35820  0.63680  Biso   1.000  C
  C54      1.0000 0.53380  0.64180  0.36320  Biso   1.000  C
  H31      1.0000 0.46550  0.29060  0.61600  Biso   1.000  H
  H32      1.0000 0.53450  0.70940  0.38400  Biso   1.000  H
  O1       1.0000 0.13890  0.20280  0.67320  Biso   1.000  O
  O2       1.0000 0.86110  0.79720  0.32680  Biso   1.000  O
  O3       1.0000 0.03520  0.33750  0.54850  Biso   1.000  O
  O4       1.0000 0.96480  0.66250  0.45150  Biso   1.000  O
  O5       1.0000 0.82440  0.25730  0.82140  Biso   1.000  O
  O6       1.0000 0.17560  0.74270  0.17860  Biso   1.000  O
  O7       1.0000 0.01280  0.20010  0.94040  Biso   1.000  O
  O8       1.0000 0.98720  0.79990  0.05960  Biso   1.000  O
  O9       1.0000 0.30310  0.86230  0.30880  Biso   1.000  O
  O10      1.0000 0.69690  0.13770  0.69120  Biso   1.000  O
  H33      1.0000 0.27090  0.81860  0.27620  Biso   1.000  H
  H34      1.0000 0.72910  0.18140  0.72380  Biso   1.000  H
  O11      1.0000 0.10700  0.98000  0.20500  Biso   1.000  O
  O12      1.0000 0.89300  0.02000  0.79500  Biso   1.000  O
  H35      1.0000 0.03640  0.92650  0.23970  Biso   1.000  H
  H36      1.0000 0.96360  0.07350  0.76030  Biso   1.000  H
