data_image0
_cell_length_a       12.262
_cell_length_b       18.888
_cell_length_c       8.8122
_cell_angle_alpha    90
_cell_angle_beta     107.45
_cell_angle_gamma    90

_symmetry_space_group_name_H-M    "P 1"
_symmetry_int_tables_number       1

loop_
  _symmetry_equiv_pos_as_xyz
  'x, y, z'

loop_
  _atom_site_label
  _atom_site_occupancy
  _atom_site_fract_x
  _atom_site_fract_y
  _atom_site_fract_z
  _atom_site_thermal_displace_type
  _atom_site_B_iso_or_equiv
  _atom_site_type_symbol
  Cu1      1.0000 0.22883  0.15036  0.46315  Biso   1.000  Cu
  Cu2      1.0000 0.77117  0.65036  0.03685  Biso   1.000  Cu
  Cu3      1.0000 0.77117  0.84964  0.53685  Biso   1.000  Cu
  Cu4      1.0000 0.22883  0.34964  0.96315  Biso   1.000  Cu
  N1       1.0000 0.25760  0.24825  0.55550  Biso   1.000  N
  N2       1.0000 0.74240  0.74825  0.94450  Biso   1.000  N
  N3       1.0000 0.74240  0.75175  0.44450  Biso   1.000  N
  N4       1.0000 0.25760  0.25175  0.05550  Biso   1.000  N
  N5       1.0000 0.19340  0.27650  0.61490  Biso   1.000  N
  N6       1.0000 0.80660  0.77650  0.88510  Biso   1.000  N
  N7       1.0000 0.80660  0.72350  0.38510  Biso   1.000  N
  N8       1.0000 0.19340  0.22350  0.11490  Biso   1.000  N
  N9       1.0000 0.13270  0.30608  0.67310  Biso   1.000  N
  N10      1.0000 0.86730  0.80608  0.82690  Biso   1.000  N
  N11      1.0000 0.86730  0.69392  0.32690  Biso   1.000  N
  N12      1.0000 0.13270  0.19392  0.17310  Biso   1.000  N
  N13      1.0000 0.37526  0.15461  0.40580  Biso   1.000  N
  N14      1.0000 0.62474  0.65461  0.09420  Biso   1.000  N
  N15      1.0000 0.62474  0.84539  0.59420  Biso   1.000  N
  N16      1.0000 0.37526  0.34539  0.90580  Biso   1.000  N
  N17      1.0000 0.07836  0.14775  0.51460  Biso   1.000  N
  N18      1.0000 0.92164  0.64775  0.98540  Biso   1.000  N
  N19      1.0000 0.92164  0.85225  0.48540  Biso   1.000  N
  N20      1.0000 0.07836  0.35225  0.01460  Biso   1.000  N
  N21      1.0000 0.21777  0.05204  0.35170  Biso   1.000  N
  N22      1.0000 0.78223  0.55204  0.14830  Biso   1.000  N
  N23      1.0000 0.78223  0.94796  0.64830  Biso   1.000  N
  N24      1.0000 0.21777  0.44796  0.85170  Biso   1.000  N
  N25      1.0000 0.27394  0.08354  0.69020  Biso   1.000  N
  N26      1.0000 0.72606  0.58354  0.80980  Biso   1.000  N
  N27      1.0000 0.72606  0.91646  0.30980  Biso   1.000  N
  N28      1.0000 0.27394  0.41646  0.19020  Biso   1.000  N
  C1       1.0000 0.38510  0.10625  0.29830  Biso   1.000  C
  C2       1.0000 0.61490  0.60625  0.20170  Biso   1.000  C
  C3       1.0000 0.61490  0.89375  0.70170  Biso   1.000  C
  C4       1.0000 0.38510  0.39375  0.79830  Biso   1.000  C
  C5       1.0000 0.99270  0.14905  0.72480  Biso   1.000  C
  C6       1.0000 0.00730  0.64905  0.77520  Biso   1.000  C
  C7       1.0000 0.00730  0.85095  0.27520  Biso   1.000  C
  C8       1.0000 0.99270  0.35095  0.22480  Biso   1.000  C
  H1       1.0000 0.99830  0.13920  0.83260  Biso   1.000  H
  H2       1.0000 0.00170  0.63920  0.66740  Biso   1.000  H
  H3       1.0000 0.00170  0.86080  0.16740  Biso   1.000  H
  H4       1.0000 0.99830  0.36080  0.33260  Biso   1.000  H
  C9       1.0000 0.47990  0.10403  0.24420  Biso   1.000  C
  C10      1.0000 0.52010  0.60403  0.25580  Biso   1.000  C
  C11      1.0000 0.52010  0.89597  0.75580  Biso   1.000  C
  C12      1.0000 0.47990  0.39597  0.74420  Biso   1.000  C
  H5       1.0000 0.48590  0.06890  0.16990  Biso   1.000  H
  H6       1.0000 0.51410  0.56890  0.33010  Biso   1.000  H
  H7       1.0000 0.51410  0.93110  0.83010  Biso   1.000  H
  H8       1.0000 0.48590  0.43110  0.66990  Biso   1.000  H
  C13      1.0000 0.56590  0.15364  0.29960  Biso   1.000  C
  C14      1.0000 0.43410  0.65364  0.20040  Biso   1.000  C
  C15      1.0000 0.43410  0.84636  0.70040  Biso   1.000  C
  C16      1.0000 0.56590  0.34636  0.79960  Biso   1.000  C
  H9       1.0000 0.63080  0.15390  0.26190  Biso   1.000  H
  H10      1.0000 0.36920  0.65390  0.23810  Biso   1.000  H
  H11      1.0000 0.36920  0.84610  0.73810  Biso   1.000  H
  H12      1.0000 0.63080  0.34610  0.76190  Biso   1.000  H
  C17      1.0000 0.28420  0.05769  0.23610  Biso   1.000  C
  C18      1.0000 0.71580  0.55769  0.26390  Biso   1.000  C
  C19      1.0000 0.71580  0.94231  0.76390  Biso   1.000  C
  C20      1.0000 0.28420  0.44231  0.73610  Biso   1.000  C
  H13      1.0000 0.23420  0.07610  0.13370  Biso   1.000  H
  H14      1.0000 0.76580  0.57610  0.36630  Biso   1.000  H
  H15      1.0000 0.76580  0.92390  0.86630  Biso   1.000  H
  H16      1.0000 0.23420  0.42390  0.63370  Biso   1.000  H
  H17      1.0000 0.31130  0.01010  0.21680  Biso   1.000  H
  H18      1.0000 0.68870  0.51010  0.28320  Biso   1.000  H
  H19      1.0000 0.68870  0.98990  0.78320  Biso   1.000  H
  H20      1.0000 0.31130  0.48990  0.71680  Biso   1.000  H
  C21      1.0000 0.27560  0.99996  0.47770  Biso   1.000  C
  C22      1.0000 0.72440  0.49996  0.02230  Biso   1.000  C
  C23      1.0000 0.72440  0.00004  0.52230  Biso   1.000  C
  C24      1.0000 0.27560  0.50004  0.97770  Biso   1.000  C
  H21      1.0000 0.35950  0.00510  0.50340  Biso   1.000  H
  H22      1.0000 0.64050  0.50510  0.99660  Biso   1.000  H
  H23      1.0000 0.64050  0.99490  0.49660  Biso   1.000  H
  H24      1.0000 0.35950  0.49490  0.00340  Biso   1.000  H
  H25      1.0000 0.25500  0.95130  0.43790  Biso   1.000  H
  H26      1.0000 0.74500  0.45130  0.06210  Biso   1.000  H
  H27      1.0000 0.74500  0.04870  0.56210  Biso   1.000  H
  H28      1.0000 0.25500  0.54870  0.93790  Biso   1.000  H
  C25      1.0000 0.46010  0.20160  0.46140  Biso   1.000  C
  C26      1.0000 0.53990  0.70160  0.03860  Biso   1.000  C
  C27      1.0000 0.53990  0.79840  0.53860  Biso   1.000  C
  C28      1.0000 0.46010  0.29840  0.96140  Biso   1.000  C
  H29      1.0000 0.45380  0.23520  0.53850  Biso   1.000  H
  H30      1.0000 0.54620  0.73520  0.96150  Biso   1.000  H
  H31      1.0000 0.54620  0.76480  0.46150  Biso   1.000  H
  H32      1.0000 0.45380  0.26480  0.03850  Biso   1.000  H
  C29      1.0000 0.98010  0.17397  0.41540  Biso   1.000  C
  C30      1.0000 0.01990  0.67397  0.08460  Biso   1.000  C
  C31      1.0000 0.01990  0.82603  0.58460  Biso   1.000  C
  C32      1.0000 0.98010  0.32603  0.91540  Biso   1.000  C
  H33      1.0000 0.97490  0.18190  0.30700  Biso   1.000  H
  H34      1.0000 0.02510  0.68190  0.19300  Biso   1.000  H
  H35      1.0000 0.02510  0.81810  0.69300  Biso   1.000  H
  H36      1.0000 0.97490  0.31810  0.80700  Biso   1.000  H
  C33      1.0000 0.39440  0.08619  0.78920  Biso   1.000  C
  C34      1.0000 0.60560  0.58619  0.71080  Biso   1.000  C
  C35      1.0000 0.60560  0.91381  0.21080  Biso   1.000  C
  C36      1.0000 0.39440  0.41381  0.28920  Biso   1.000  C
  H37      1.0000 0.41420  0.13480  0.82620  Biso   1.000  H
  H38      1.0000 0.58580  0.63480  0.67380  Biso   1.000  H
  H39      1.0000 0.58580  0.86520  0.17380  Biso   1.000  H
  H40      1.0000 0.41420  0.36520  0.32620  Biso   1.000  H
  H41      1.0000 0.44370  0.07080  0.72610  Biso   1.000  H
  H42      1.0000 0.55630  0.57080  0.77390  Biso   1.000  H
  H43      1.0000 0.55630  0.92920  0.27390  Biso   1.000  H
  H44      1.0000 0.44370  0.42920  0.22610  Biso   1.000  H
  H45      1.0000 0.40530  0.05480  0.88110  Biso   1.000  H
  H46      1.0000 0.59470  0.55480  0.61890  Biso   1.000  H
  H47      1.0000 0.59470  0.94520  0.11890  Biso   1.000  H
  H48      1.0000 0.40530  0.44520  0.38110  Biso   1.000  H
  C37      1.0000 0.10000  0.02836  0.26530  Biso   1.000  C
  C38      1.0000 0.90000  0.52836  0.23470  Biso   1.000  C
  C39      1.0000 0.90000  0.97164  0.73470  Biso   1.000  C
  C40      1.0000 0.10000  0.47164  0.76530  Biso   1.000  C
  H49      1.0000 0.06110  0.06530  0.19040  Biso   1.000  H
  H50      1.0000 0.93890  0.56530  0.30960  Biso   1.000  H
  H51      1.0000 0.93890  0.93470  0.80960  Biso   1.000  H
  H52      1.0000 0.06110  0.43470  0.69040  Biso   1.000  H
  H53      1.0000 0.05770  0.01950  0.34170  Biso   1.000  H
  H54      1.0000 0.94230  0.51950  0.15830  Biso   1.000  H
  H55      1.0000 0.94230  0.98050  0.65830  Biso   1.000  H
  H56      1.0000 0.05770  0.48050  0.84170  Biso   1.000  H
  H57      1.0000 0.10360  0.98470  0.20680  Biso   1.000  H
  H58      1.0000 0.89640  0.48470  0.29320  Biso   1.000  H
  H59      1.0000 0.89640  0.01530  0.79320  Biso   1.000  H
  H60      1.0000 0.10360  0.51530  0.70680  Biso   1.000  H
  C41      1.0000 0.08460  0.13531  0.66800  Biso   1.000  C
  C42      1.0000 0.91540  0.63531  0.83200  Biso   1.000  C
  C43      1.0000 0.91540  0.86469  0.33200  Biso   1.000  C
  C44      1.0000 0.08460  0.36469  0.16800  Biso   1.000  C
  C45      1.0000 0.89330  0.17712  0.62420  Biso   1.000  C
  C46      1.0000 0.10670  0.67712  0.87580  Biso   1.000  C
  C47      1.0000 0.10670  0.82288  0.37580  Biso   1.000  C
  C48      1.0000 0.89330  0.32288  0.12420  Biso   1.000  C
  H61      1.0000 0.83040  0.18770  0.66220  Biso   1.000  H
  H62      1.0000 0.16960  0.68770  0.83780  Biso   1.000  H
  H63      1.0000 0.16960  0.81230  0.33780  Biso   1.000  H
  H64      1.0000 0.83040  0.31230  0.16220  Biso   1.000  H
  C49      1.0000 0.88700  0.18959  0.46720  Biso   1.000  C
  C50      1.0000 0.11300  0.68959  0.03280  Biso   1.000  C
  C51      1.0000 0.11300  0.81041  0.53280  Biso   1.000  C
  C52      1.0000 0.88700  0.31041  0.96720  Biso   1.000  C
  H65      1.0000 0.81930  0.20870  0.39570  Biso   1.000  H
  H66      1.0000 0.18070  0.70870  0.10430  Biso   1.000  H
  H67      1.0000 0.18070  0.79130  0.60430  Biso   1.000  H
  H68      1.0000 0.81930  0.29130  0.89570  Biso   1.000  H
  C53      1.0000 0.24040  0.01167  0.62710  Biso   1.000  C
  C54      1.0000 0.75960  0.51167  0.87290  Biso   1.000  C
  C55      1.0000 0.75960  0.98833  0.37290  Biso   1.000  C
  C56      1.0000 0.24040  0.48833  0.12710  Biso   1.000  C
  H69      1.0000 0.15660  0.00600  0.60210  Biso   1.000  H
  H70      1.0000 0.84340  0.50600  0.89790  Biso   1.000  H
  H71      1.0000 0.84340  0.99400  0.39790  Biso   1.000  H
  H72      1.0000 0.15660  0.49400  0.10210  Biso   1.000  H
  H73      1.0000 0.27780  0.97600  0.70830  Biso   1.000  H
  H74      1.0000 0.72220  0.47600  0.79170  Biso   1.000  H
  H75      1.0000 0.72220  0.02400  0.29170  Biso   1.000  H
  H76      1.0000 0.27780  0.52400  0.20830  Biso   1.000  H
  C57      1.0000 0.55560  0.20287  0.41080  Biso   1.000  C
  C58      1.0000 0.44440  0.70287  0.08920  Biso   1.000  C
  C59      1.0000 0.44440  0.79713  0.58920  Biso   1.000  C
  C60      1.0000 0.55560  0.29713  0.91080  Biso   1.000  C
  H77      1.0000 0.61390  0.23710  0.45160  Biso   1.000  H
  H78      1.0000 0.38610  0.73710  0.04840  Biso   1.000  H
  H79      1.0000 0.38610  0.76290  0.54840  Biso   1.000  H
  H80      1.0000 0.61390  0.26290  0.95160  Biso   1.000  H
  C61      1.0000 0.19760  0.11049  0.77740  Biso   1.000  C
  C62      1.0000 0.80240  0.61049  0.72260  Biso   1.000  C
  C63      1.0000 0.80240  0.88951  0.22260  Biso   1.000  C
  C64      1.0000 0.19760  0.38951  0.27740  Biso   1.000  C
  H81      1.0000 0.23540  0.15030  0.84600  Biso   1.000  H
  H82      1.0000 0.76460  0.65030  0.65400  Biso   1.000  H
  H83      1.0000 0.76460  0.84970  0.15400  Biso   1.000  H
  H84      1.0000 0.23540  0.34970  0.34600  Biso   1.000  H
  H85      1.0000 0.18390  0.07260  0.84710  Biso   1.000  H
  H86      1.0000 0.81610  0.57260  0.65290  Biso   1.000  H
  H87      1.0000 0.81610  0.92740  0.15290  Biso   1.000  H
  H88      1.0000 0.18390  0.42740  0.34710  Biso   1.000  H
  Cl1      1.0000 0.74187  0.11321  0.98928  Biso   1.000  Cl
  Cl2      1.0000 0.25813  0.61321  0.51072  Biso   1.000  Cl
  Cl3      1.0000 0.25813  0.88679  0.01072  Biso   1.000  Cl
  Cl4      1.0000 0.74187  0.38679  0.48928  Biso   1.000  Cl
  O1       1.0000 0.64878  0.07080  0.00660  Biso   1.000  O
  O2       1.0000 0.35122  0.57080  0.49340  Biso   1.000  O
  O3       1.0000 0.35122  0.92920  0.99340  Biso   1.000  O
  O4       1.0000 0.64878  0.42920  0.50660  Biso   1.000  O
  O5       1.0000 0.75478  0.17486  0.08890  Biso   1.000  O
  O6       1.0000 0.24522  0.67486  0.41110  Biso   1.000  O
  O7       1.0000 0.24522  0.82514  0.91110  Biso   1.000  O
  O8       1.0000 0.75478  0.32514  0.58890  Biso   1.000  O
  O9       1.0000 0.71710  0.13395  0.82650  Biso   1.000  O
  O10      1.0000 0.28290  0.63395  0.67350  Biso   1.000  O
  O11      1.0000 0.28290  0.86605  0.17350  Biso   1.000  O
  O12      1.0000 0.71710  0.36605  0.32650  Biso   1.000  O
  O13      1.0000 0.84454  0.07185  0.03600  Biso   1.000  O
  O14      1.0000 0.15546  0.57185  0.46400  Biso   1.000  O
  O15      1.0000 0.15546  0.92815  0.96400  Biso   1.000  O
  O16      1.0000 0.84454  0.42815  0.53600  Biso   1.000  O
