data_image0
_cell_length_a       10.2345
_cell_length_b       10.8931
_cell_length_c       11.6906
_cell_angle_alpha    64.013
_cell_angle_beta     82.213
_cell_angle_gamma    72.603

_symmetry_space_group_name_H-M    "P 1"
_symmetry_int_tables_number       1

loop_
  _symmetry_equiv_pos_as_xyz
  'x, y, z'

loop_
  _atom_site_label
  _atom_site_occupancy
  _atom_site_fract_x
  _atom_site_fract_y
  _atom_site_fract_z
  _atom_site_thermal_displace_type
  _atom_site_B_iso_or_equiv
  _atom_site_type_symbol
  Cu1      1.0000 0.37982  0.25168  0.83163  Biso   1.000  Cu
  Cu2      1.0000 0.62018  0.74832  0.16837  Biso   1.000  Cu
  O1       1.0000 0.23800  0.18590  0.95840  Biso   1.000  O
  O2       1.0000 0.76200  0.81410  0.04160  Biso   1.000  O
  O3       1.0000 0.52960  0.21000  0.94490  Biso   1.000  O
  O4       1.0000 0.47040  0.79000  0.05510  Biso   1.000  O
  O5       1.0000 0.14550  0.23940  0.77600  Biso   1.000  O
  O6       1.0000 0.85450  0.76060  0.22400  Biso   1.000  O
  O7       1.0000 0.63510  0.31520  0.76360  Biso   1.000  O
  O8       1.0000 0.36490  0.68480  0.23640  Biso   1.000  O
  N1       1.0000 0.28870  0.46080  0.72950  Biso   1.000  N
  N2       1.0000 0.71130  0.53920  0.27050  Biso   1.000  N
  N3       1.0000 0.87750  0.87640  0.56540  Biso   1.000  N
  N4       1.0000 0.12250  0.12360  0.43460  Biso   1.000  N
  N5       1.0000 0.46860  0.13770  0.73160  Biso   1.000  N
  N6       1.0000 0.53140  0.86230  0.26840  Biso   1.000  N
  C1       1.0000 0.76410  0.19880  0.95630  Biso   1.000  C
  C2       1.0000 0.23590  0.80120  0.04370  Biso   1.000  C
  C3       1.0000 0.00600  0.17830  0.96220  Biso   1.000  C
  C4       1.0000 0.99400  0.82170  0.03780  Biso   1.000  C
  C5       1.0000 0.98640  0.83700  0.49870  Biso   1.000  C
  C6       1.0000 0.01360  0.16300  0.50130  Biso   1.000  C
  C7       1.0000 0.65700  0.02940  0.57940  Biso   1.000  C
  C8       1.0000 0.34300  0.97060  0.42060  Biso   1.000  C
  C9       1.0000 0.88650  0.22380  0.89370  Biso   1.000  C
  C10      1.0000 0.11350  0.77620  0.10630  Biso   1.000  C
  H1       1.0000 0.88801  0.27125  0.80543  Biso   1.000  H
  H2       1.0000 0.11199  0.72875  0.19457  Biso   1.000  H
  C11      1.0000 0.76950  0.98200  0.50000  Biso   1.000  C
  C12      1.0000 0.23050  0.01800  0.50000  Biso   1.000  C
  C13      1.0000 0.76330  0.12810  0.08830  Biso   1.000  C
  C14      1.0000 0.23670  0.87190  0.91170  Biso   1.000  C
  H3       1.0000 0.68265  0.11029  0.13053  Biso   1.000  H
  H4       1.0000 0.31735  0.88971  0.86947  Biso   1.000  H
  C15      1.0000 0.13820  0.20270  0.89270  Biso   1.000  C
  C16      1.0000 0.86180  0.79730  0.10730  Biso   1.000  C
  C17      1.0000 0.99330  0.90170  0.36810  Biso   1.000  C
  C18      1.0000 0.00670  0.09830  0.63190  Biso   1.000  C
  H5       1.0000 0.07187  0.87349  0.32570  Biso   1.000  H
  H6       1.0000 0.92813  0.12651  0.67430  Biso   1.000  H
  C19      1.0000 0.31260  0.53400  0.60840  Biso   1.000  C
  C20      1.0000 0.68740  0.46600  0.39160  Biso   1.000  C
  H7       1.0000 0.39549  0.50112  0.57365  Biso   1.000  H
  H8       1.0000 0.60451  0.49888  0.42635  Biso   1.000  H
  C21      1.0000 0.88250  0.08340  0.15860  Biso   1.000  C
  C22      1.0000 0.11750  0.91660  0.84140  Biso   1.000  C
  C23      1.0000 0.76680  0.04970  0.36820  Biso   1.000  C
  C24      1.0000 0.23320  0.95030  0.63180  Biso   1.000  C
  H9       1.0000 0.68982  0.12040  0.32636  Biso   1.000  H
  H10      1.0000 0.31018  0.87960  0.67364  Biso   1.000  H
  C25      1.0000 0.00340  0.11020  0.09310  Biso   1.000  C
  C26      1.0000 0.99660  0.88980  0.90690  Biso   1.000  C
  H11      1.0000 0.08296  0.08163  0.13866  Biso   1.000  H
  H12      1.0000 0.91704  0.91837  0.86134  Biso   1.000  H
  C27      1.0000 0.09840  0.71140  0.57860  Biso   1.000  C
  C28      1.0000 0.90160  0.28860  0.42140  Biso   1.000  C
  C29      1.0000 0.22120  0.65740  0.52940  Biso   1.000  C
  C30      1.0000 0.77880  0.34260  0.47060  Biso   1.000  C
  H13      1.0000 0.24244  0.70354  0.44393  Biso   1.000  H
  H14      1.0000 0.75756  0.29646  0.55607  Biso   1.000  H
  C31      1.0000 0.44750  0.18870  0.60710  Biso   1.000  C
  C32      1.0000 0.55250  0.81130  0.39290  Biso   1.000  C
  H15      1.0000 0.36845  0.26053  0.57200  Biso   1.000  H
  H16      1.0000 0.63155  0.73947  0.42800  Biso   1.000  H
  C33      1.0000 0.88100  0.01060  0.29880  Biso   1.000  C
  C34      1.0000 0.11900  0.98940  0.70120  Biso   1.000  C
  C35      1.0000 0.53880  0.13910  0.52740  Biso   1.000  C
  C36      1.0000 0.46120  0.86090  0.47260  Biso   1.000  C
  H17      1.0000 0.52144  0.17830  0.44072  Biso   1.000  H
  H18      1.0000 0.47856  0.82170  0.55928  Biso   1.000  H
  C37      1.0000 0.63480  0.24630  0.88060  Biso   1.000  C
  C38      1.0000 0.36520  0.75370  0.11940  Biso   1.000  C
  C39      1.0000 0.67160  0.96990  0.71070  Biso   1.000  C
  C40      1.0000 0.32840  0.03010  0.28930  Biso   1.000  C
  H19      1.0000 0.74482  0.89184  0.74990  Biso   1.000  H
  H20      1.0000 0.25518  0.10816  0.25010  Biso   1.000  H
  C41      1.0000 0.57880  0.02570  0.78200  Biso   1.000  C
  C42      1.0000 0.42120  0.97430  0.21800  Biso   1.000  C
  H21      1.0000 0.59152  0.98494  0.86953  Biso   1.000  H
  H22      1.0000 0.40848  0.01506  0.13047  Biso   1.000  H
  C43      1.0000 0.17020  0.51810  0.77880  Biso   1.000  C
  C44      1.0000 0.82980  0.48190  0.22120  Biso   1.000  C
  H23      1.0000 0.15203  0.47130  0.86498  Biso   1.000  H
  H24      1.0000 0.84797  0.52870  0.13502  Biso   1.000  H
  C45      1.0000 0.07670  0.64160  0.70700  Biso   1.000  C
  C46      1.0000 0.92330  0.35840  0.29300  Biso   1.000  C
  H25      1.0000 0.99861  0.67795  0.74533  Biso   1.000  H
  H26      1.0000 0.00139  0.32205  0.25467  Biso   1.000  H
