data_image0
_cell_length_a       9.4051
_cell_length_b       9.5567
_cell_length_c       12.4095
_cell_angle_alpha    83.812
_cell_angle_beta     79.815
_cell_angle_gamma    87.908

_symmetry_space_group_name_H-M    "P 1"
_symmetry_int_tables_number       1

loop_
  _symmetry_equiv_pos_as_xyz
  'x, y, z'

loop_
  _atom_site_label
  _atom_site_occupancy
  _atom_site_fract_x
  _atom_site_fract_y
  _atom_site_fract_z
  _atom_site_thermal_displace_type
  _atom_site_B_iso_or_equiv
  _atom_site_type_symbol
  Cu1      1.0000 0.64416  0.66246  0.79215  Biso   1.000  Cu
  Cu2      1.0000 0.35584  0.33754  0.20785  Biso   1.000  Cu
  Cl1      1.0000 0.02346  0.26933  0.77879  Biso   1.000  Cl
  Cl2      1.0000 0.97654  0.73067  0.22121  Biso   1.000  Cl
  O1       1.0000 0.43780  0.62100  0.86250  Biso   1.000  O
  O2       1.0000 0.56220  0.37900  0.13750  Biso   1.000  O
  O3       1.0000 0.40810  0.77830  0.72400  Biso   1.000  O
  O4       1.0000 0.59190  0.22170  0.27600  Biso   1.000  O
  O5       1.0000 0.69790  0.46250  0.91210  Biso   1.000  O
  O6       1.0000 0.30210  0.53750  0.08790  Biso   1.000  O
  O7       1.0000 0.91260  0.30330  0.71700  Biso   1.000  O
  O8       1.0000 0.08740  0.69670  0.28300  Biso   1.000  O
  O9       1.0000 0.96850  0.28670  0.88970  Biso   1.000  O
  O10      1.0000 0.03150  0.71330  0.11030  Biso   1.000  O
  O11      1.0000 0.07070  0.13180  0.76530  Biso   1.000  O
  O12      1.0000 0.92930  0.86820  0.23470  Biso   1.000  O
  O13      1.0000 0.13860  0.36080  0.74250  Biso   1.000  O
  O14      1.0000 0.86140  0.63920  0.25750  Biso   1.000  O
  O15      1.0000 0.35590  0.02160  0.58980  Biso   1.000  O
  O16      1.0000 0.64410  0.97840  0.41020  Biso   1.000  O
  N1       1.0000 0.63560  0.52760  0.67860  Biso   1.000  N
  N2       1.0000 0.36440  0.47240  0.32140  Biso   1.000  N
  N3       1.0000 0.64740  0.79820  0.90460  Biso   1.000  N
  N4       1.0000 0.35260  0.20180  0.09540  Biso   1.000  N
  N5       1.0000 0.84820  0.74590  0.71480  Biso   1.000  N
  N6       1.0000 0.15180  0.25410  0.28520  Biso   1.000  N
  C1       1.0000 0.56070  0.40970  0.70910  Biso   1.000  C
  C2       1.0000 0.43930  0.59030  0.29090  Biso   1.000  C
  H1       1.0000 0.51660  0.39210  0.78230  Biso   1.000  H
  H2       1.0000 0.48340  0.60790  0.21770  Biso   1.000  H
  C3       1.0000 0.54550  0.31290  0.63780  Biso   1.000  C
  C4       1.0000 0.45450  0.68710  0.36220  Biso   1.000  C
  H3       1.0000 0.49180  0.23220  0.66230  Biso   1.000  H
  H4       1.0000 0.50820  0.76780  0.33770  Biso   1.000  H
  C5       1.0000 0.61110  0.33770  0.52940  Biso   1.000  C
  C6       1.0000 0.38890  0.66230  0.47060  Biso   1.000  C
  H5       1.0000 0.60320  0.27400  0.47930  Biso   1.000  H
  H6       1.0000 0.39680  0.72600  0.52070  Biso   1.000  H
  C7       1.0000 0.68830  0.45810  0.49700  Biso   1.000  C
  C8       1.0000 0.31170  0.54190  0.50300  Biso   1.000  C
  H7       1.0000 0.73350  0.47670  0.42410  Biso   1.000  H
  H8       1.0000 0.26650  0.52330  0.57590  Biso   1.000  H
  C9       1.0000 0.69950  0.55240  0.57210  Biso   1.000  C
  C10      1.0000 0.30050  0.44760  0.42790  Biso   1.000  C
  C11      1.0000 0.78620  0.68180  0.53960  Biso   1.000  C
  C12      1.0000 0.21380  0.31820  0.46040  Biso   1.000  C
  H9       1.0000 0.72350  0.76410  0.54880  Biso   1.000  H
  H10      1.0000 0.27650  0.23590  0.45120  Biso   1.000  H
  H11      1.0000 0.83020  0.68480  0.46250  Biso   1.000  H
  H12      1.0000 0.16980  0.31520  0.53750  Biso   1.000  H
  C13      1.0000 0.90400  0.68490  0.60960  Biso   1.000  C
  C14      1.0000 0.09600  0.31510  0.39040  Biso   1.000  C
  H13      1.0000 0.94000  0.58990  0.62560  Biso   1.000  H
  H14      1.0000 0.06000  0.41010  0.37440  Biso   1.000  H
  H15      1.0000 0.98380  0.74060  0.56860  Biso   1.000  H
  H16      1.0000 0.01620  0.25940  0.43140  Biso   1.000  H
  C15      1.0000 0.63520  0.75440  0.01130  Biso   1.000  C
  C16      1.0000 0.36480  0.24560  0.98870  Biso   1.000  C
  H17      1.0000 0.61080  0.66130  0.03450  Biso   1.000  H
  H18      1.0000 0.38920  0.33870  0.96550  Biso   1.000  H
  C17      1.0000 0.65670  0.83990  0.08840  Biso   1.000  C
  C18      1.0000 0.34330  0.16010  0.91160  Biso   1.000  C
  H19      1.0000 0.64810  0.80560  0.16220  Biso   1.000  H
  H20      1.0000 0.35190  0.19440  0.83780  Biso   1.000  H
  C19      1.0000 0.69120  0.97680  0.05410  Biso   1.000  C
  C20      1.0000 0.30880  0.02320  0.94590  Biso   1.000  C
  H21      1.0000 0.70750  0.03710  0.10450  Biso   1.000  H
  H22      1.0000 0.29250  0.96290  0.89550  Biso   1.000  H
  C21      1.0000 0.70170  0.02520  0.94490  Biso   1.000  C
  C22      1.0000 0.29830  0.97480  0.05510  Biso   1.000  C
  H23      1.0000 0.72270  0.11900  0.92100  Biso   1.000  H
  H24      1.0000 0.27730  0.88100  0.07900  Biso   1.000  H
  C23      1.0000 0.68070  0.93250  0.87030  Biso   1.000  C
  C24      1.0000 0.31930  0.06750  0.12970  Biso   1.000  C
  C25      1.0000 0.70210  0.97050  0.74920  Biso   1.000  C
  C26      1.0000 0.29790  0.02950  0.25080  Biso   1.000  C
  H25      1.0000 0.70740  0.07200  0.73380  Biso   1.000  H
  H26      1.0000 0.29260  0.92800  0.26620  Biso   1.000  H
  H27      1.0000 0.61940  0.94020  0.72140  Biso   1.000  H
  H28      1.0000 0.38060  0.05980  0.27860  Biso   1.000  H
  C27      1.0000 0.83860  0.90360  0.68990  Biso   1.000  C
  C28      1.0000 0.16140  0.09640  0.31010  Biso   1.000  C
  H29      1.0000 0.84350  0.92610  0.61120  Biso   1.000  H
  H30      1.0000 0.15650  0.07390  0.38880  Biso   1.000  H
  H31      1.0000 0.92160  0.94490  0.71010  Biso   1.000  H
  H32      1.0000 0.07840  0.05510  0.28990  Biso   1.000  H
  C29      1.0000 0.94880  0.70520  0.79440  Biso   1.000  C
  C30      1.0000 0.05120  0.29480  0.20560  Biso   1.000  C
  H33      1.0000 0.94160  0.60450  0.81520  Biso   1.000  H
  H34      1.0000 0.05840  0.39550  0.18480  Biso   1.000  H
  H35      1.0000 0.91530  0.75150  0.86040  Biso   1.000  H
  H36      1.0000 0.08470  0.24850  0.13960  Biso   1.000  H
  C31      1.0000 0.10740  0.73910  0.75510  Biso   1.000  C
  C32      1.0000 0.89260  0.26090  0.24490  Biso   1.000  C
  H37      1.0000 0.14090  0.70130  0.68540  Biso   1.000  H
  H38      1.0000 0.85910  0.29870  0.31460  Biso   1.000  H
  H39      1.0000 0.11870  0.84040  0.74370  Biso   1.000  H
  H40      1.0000 0.88130  0.15960  0.25630  Biso   1.000  H
  C33      1.0000 0.19660  0.67690  0.83840  Biso   1.000  C
  C34      1.0000 0.80340  0.32310  0.16160  Biso   1.000  C
  H41      1.0000 0.17740  0.57710  0.85380  Biso   1.000  H
  H42      1.0000 0.82260  0.42290  0.14620  Biso   1.000  H
  H43      1.0000 0.16550  0.71970  0.90630  Biso   1.000  H
  H44      1.0000 0.83450  0.28030  0.09370  Biso   1.000  H
  C35      1.0000 0.35740  0.69550  0.80380  Biso   1.000  C
  C36      1.0000 0.64260  0.30450  0.19620  Biso   1.000  C
  H45      1.0000 0.67300  0.43900  0.96500  Biso   1.000  H
  H46      1.0000 0.32700  0.56100  0.03500  Biso   1.000  H
  H47      1.0000 0.77500  0.41300  0.89100  Biso   1.000  H
  H48      1.0000 0.22500  0.58700  0.10900  Biso   1.000  H
