data_image0
_cell_length_a       12.8575
_cell_length_b       9.8793
_cell_length_c       15.386
_cell_angle_alpha    90
_cell_angle_beta     96.378
_cell_angle_gamma    90

_symmetry_space_group_name_H-M    "P 1"
_symmetry_int_tables_number       1

loop_
  _symmetry_equiv_pos_as_xyz
  'x, y, z'

loop_
  _atom_site_label
  _atom_site_occupancy
  _atom_site_fract_x
  _atom_site_fract_y
  _atom_site_fract_z
  _atom_site_thermal_displace_type
  _atom_site_B_iso_or_equiv
  _atom_site_type_symbol
  Cu1      1.0000 0.68040  0.87470  0.25241  Biso   1.000  Cu
  Cu2      1.0000 0.81960  0.37470  0.24759  Biso   1.000  Cu
  Cu3      1.0000 0.31960  0.12530  0.74759  Biso   1.000  Cu
  Cu4      1.0000 0.18040  0.62530  0.75241  Biso   1.000  Cu
  Cl1      1.0000 0.36550  0.43890  0.26250  Biso   1.000  Cl
  Cl2      1.0000 0.13450  0.93890  0.23750  Biso   1.000  Cl
  Cl3      1.0000 0.63450  0.56110  0.73750  Biso   1.000  Cl
  Cl4      1.0000 0.86550  0.06110  0.76250  Biso   1.000  Cl
  O1       1.0000 0.72130  0.09130  0.25350  Biso   1.000  O
  O2       1.0000 0.77870  0.59130  0.24650  Biso   1.000  O
  O3       1.0000 0.27870  0.90870  0.74650  Biso   1.000  O
  O4       1.0000 0.22130  0.40870  0.75350  Biso   1.000  O
  O5       1.0000 0.67730  0.30350  0.22050  Biso   1.000  O
  O6       1.0000 0.82270  0.80350  0.27950  Biso   1.000  O
  O7       1.0000 0.32270  0.69650  0.77950  Biso   1.000  O
  O8       1.0000 0.17730  0.19650  0.72050  Biso   1.000  O
  O9       1.0000 0.43300  0.43060  0.34010  Biso   1.000  O
  O10      1.0000 0.06700  0.93060  0.15990  Biso   1.000  O
  O11      1.0000 0.56700  0.56940  0.65990  Biso   1.000  O
  O12      1.0000 0.93300  0.06940  0.84010  Biso   1.000  O
  O13      1.0000 0.42640  0.46880  0.19280  Biso   1.000  O
  O14      1.0000 0.07360  0.96880  0.30720  Biso   1.000  O
  O15      1.0000 0.57360  0.53120  0.80720  Biso   1.000  O
  O16      1.0000 0.92640  0.03120  0.69280  Biso   1.000  O
  O17      1.0000 0.31390  0.31730  0.24090  Biso   1.000  O
  O18      1.0000 0.18610  0.81730  0.25910  Biso   1.000  O
  O19      1.0000 0.68610  0.68270  0.75910  Biso   1.000  O
  O20      1.0000 0.81390  0.18270  0.74090  Biso   1.000  O
  O21      1.0000 0.29330  0.54440  0.26670  Biso   1.000  O
  O22      1.0000 0.20670  0.04440  0.23330  Biso   1.000  O
  O23      1.0000 0.70670  0.45560  0.73330  Biso   1.000  O
  O24      1.0000 0.79330  0.95560  0.76670  Biso   1.000  O
  N1       1.0000 0.67190  0.87350  0.38360  Biso   1.000  N
  N2       1.0000 0.82810  0.37350  0.11640  Biso   1.000  N
  N3       1.0000 0.32810  0.12650  0.61640  Biso   1.000  N
  N4       1.0000 0.17190  0.62650  0.88360  Biso   1.000  N
  N5       1.0000 0.69950  0.86040  0.12490  Biso   1.000  N
  N6       1.0000 0.80050  0.36040  0.37510  Biso   1.000  N
  N7       1.0000 0.30050  0.13960  0.87510  Biso   1.000  N
  N8       1.0000 0.19950  0.63960  0.62490  Biso   1.000  N
  N9       1.0000 0.51950  0.89630  0.22420  Biso   1.000  N
  N10      1.0000 0.98050  0.39630  0.27580  Biso   1.000  N
  N11      1.0000 0.48050  0.10370  0.77580  Biso   1.000  N
  N12      1.0000 0.01950  0.60370  0.72420  Biso   1.000  N
  C1       1.0000 0.74920  0.92640  0.43340  Biso   1.000  C
  C2       1.0000 0.75080  0.42640  0.06660  Biso   1.000  C
  C3       1.0000 0.25080  0.07360  0.56660  Biso   1.000  C
  C4       1.0000 0.24920  0.57360  0.93340  Biso   1.000  C
  H1       1.0000 0.80170  0.97100  0.40780  Biso   1.000  H
  H2       1.0000 0.69830  0.47100  0.09220  Biso   1.000  H
  H3       1.0000 0.19830  0.02900  0.59220  Biso   1.000  H
  H4       1.0000 0.30170  0.52900  0.90780  Biso   1.000  H
  C5       1.0000 0.75590  0.91850  0.52470  Biso   1.000  C
  C6       1.0000 0.74410  0.41850  0.97530  Biso   1.000  C
  C7       1.0000 0.24410  0.08150  0.47530  Biso   1.000  C
  C8       1.0000 0.25590  0.58150  0.02470  Biso   1.000  C
  H5       1.0000 0.81160  0.95730  0.55960  Biso   1.000  H
  H6       1.0000 0.68840  0.45730  0.94040  Biso   1.000  H
  H7       1.0000 0.18840  0.04270  0.44040  Biso   1.000  H
  H8       1.0000 0.31160  0.54270  0.05960  Biso   1.000  H
  C9       1.0000 0.67820  0.85200  0.56100  Biso   1.000  C
  C10      1.0000 0.82180  0.35200  0.93900  Biso   1.000  C
  C11      1.0000 0.32180  0.14800  0.43900  Biso   1.000  C
  C12      1.0000 0.17820  0.64800  0.06100  Biso   1.000  C
  H9       1.0000 0.67900  0.84660  0.62150  Biso   1.000  H
  H10      1.0000 0.82100  0.34660  0.87850  Biso   1.000  H
  H11      1.0000 0.32100  0.15340  0.37850  Biso   1.000  H
  H12      1.0000 0.17900  0.65340  0.12150  Biso   1.000  H
  C13      1.0000 0.59960  0.79390  0.50730  Biso   1.000  C
  C14      1.0000 0.90040  0.29390  0.99270  Biso   1.000  C
  C15      1.0000 0.40040  0.20610  0.49270  Biso   1.000  C
  C16      1.0000 0.09960  0.70610  0.00730  Biso   1.000  C
  H13      1.0000 0.54770  0.74480  0.53080  Biso   1.000  H
  H14      1.0000 0.95230  0.24480  0.96920  Biso   1.000  H
  H15      1.0000 0.45230  0.25520  0.46920  Biso   1.000  H
  H16      1.0000 0.04770  0.75520  0.03080  Biso   1.000  H
  C17      1.0000 0.59690  0.80760  0.41920  Biso   1.000  C
  C18      1.0000 0.90310  0.30760  0.08080  Biso   1.000  C
  C19      1.0000 0.40310  0.19240  0.58080  Biso   1.000  C
  C20      1.0000 0.09690  0.69240  0.91920  Biso   1.000  C
  C21      1.0000 0.50980  0.75700  0.35850  Biso   1.000  C
  C22      1.0000 0.99020  0.25700  0.14150  Biso   1.000  C
  C23      1.0000 0.49020  0.24300  0.64150  Biso   1.000  C
  C24      1.0000 0.00980  0.74300  0.85850  Biso   1.000  C
  H17      1.0000 0.45630  0.71710  0.39040  Biso   1.000  H
  H18      1.0000 0.04370  0.21710  0.10960  Biso   1.000  H
  H19      1.0000 0.54370  0.28290  0.60960  Biso   1.000  H
  H20      1.0000 0.95630  0.78290  0.89040  Biso   1.000  H
  H21      1.0000 0.53420  0.68800  0.32040  Biso   1.000  H
  H22      1.0000 0.96580  0.18800  0.17960  Biso   1.000  H
  H23      1.0000 0.46580  0.31200  0.67960  Biso   1.000  H
  H24      1.0000 0.03420  0.81200  0.82040  Biso   1.000  H
  C25      1.0000 0.46600  0.87900  0.30500  Biso   1.000  C
  C26      1.0000 0.03400  0.37900  0.19500  Biso   1.000  C
  C27      1.0000 0.53400  0.12100  0.69500  Biso   1.000  C
  C28      1.0000 0.96600  0.62100  0.80500  Biso   1.000  C
  H25      1.0000 0.39140  0.86660  0.28830  Biso   1.000  H
  H26      1.0000 0.10860  0.36660  0.21170  Biso   1.000  H
  H27      1.0000 0.60860  0.13340  0.71170  Biso   1.000  H
  H28      1.0000 0.89140  0.63340  0.78830  Biso   1.000  H
  H29      1.0000 0.47520  0.96030  0.34020  Biso   1.000  H
  H30      1.0000 0.02480  0.46030  0.15980  Biso   1.000  H
  H31      1.0000 0.52480  0.03970  0.65980  Biso   1.000  H
  H32      1.0000 0.97520  0.53970  0.84020  Biso   1.000  H
  H33      1.0000 0.53360  0.66980  0.33870  Biso   1.000  H
  H34      1.0000 0.96640  0.16980  0.16130  Biso   1.000  H
  H35      1.0000 0.46640  0.33020  0.66130  Biso   1.000  H
  H36      1.0000 0.03360  0.83020  0.83870  Biso   1.000  H
  H37      1.0000 0.45480  0.73610  0.39480  Biso   1.000  H
  H38      1.0000 0.04520  0.23610  0.10520  Biso   1.000  H
  H39      1.0000 0.54520  0.26390  0.60520  Biso   1.000  H
  H40      1.0000 0.95480  0.76390  0.89480  Biso   1.000  H
  C29      1.0000 0.45700  0.82000  0.28080  Biso   1.000  C
  C30      1.0000 0.04300  0.32000  0.21920  Biso   1.000  C
  C31      1.0000 0.54300  0.18000  0.71920  Biso   1.000  C
  C32      1.0000 0.95700  0.68000  0.78080  Biso   1.000  C
  H41      1.0000 0.40420  0.88090  0.29930  Biso   1.000  H
  H42      1.0000 0.09580  0.38090  0.20070  Biso   1.000  H
  H43      1.0000 0.59580  0.11910  0.70070  Biso   1.000  H
  H44      1.0000 0.90420  0.61910  0.79930  Biso   1.000  H
  H45      1.0000 0.41990  0.74980  0.24560  Biso   1.000  H
  H46      1.0000 0.08010  0.24980  0.25440  Biso   1.000  H
  H47      1.0000 0.58010  0.25020  0.75440  Biso   1.000  H
  H48      1.0000 0.91990  0.75020  0.74560  Biso   1.000  H
  C33      1.0000 0.78080  0.92140  0.09490  Biso   1.000  C
  C34      1.0000 0.71920  0.42140  0.40510  Biso   1.000  C
  C35      1.0000 0.21920  0.07860  0.90510  Biso   1.000  C
  C36      1.0000 0.28080  0.57860  0.59490  Biso   1.000  C
  H49      1.0000 0.82360  0.97540  0.13340  Biso   1.000  H
  H50      1.0000 0.67640  0.47540  0.36660  Biso   1.000  H
  H51      1.0000 0.17640  0.02460  0.86660  Biso   1.000  H
  H52      1.0000 0.32360  0.52460  0.63340  Biso   1.000  H
  C37      1.0000 0.80450  0.90930  0.01180  Biso   1.000  C
  C38      1.0000 0.69550  0.40930  0.48820  Biso   1.000  C
  C39      1.0000 0.19550  0.09070  0.98820  Biso   1.000  C
  C40      1.0000 0.30450  0.59070  0.51180  Biso   1.000  C
  H53      1.0000 0.86340  0.95100  0.99390  Biso   1.000  H
  H54      1.0000 0.63660  0.45100  0.50610  Biso   1.000  H
  H55      1.0000 0.13660  0.04900  0.00610  Biso   1.000  H
  H56      1.0000 0.36340  0.54900  0.49390  Biso   1.000  H
  C41      1.0000 0.73920  0.83400  0.95520  Biso   1.000  C
  C42      1.0000 0.76080  0.33400  0.54480  Biso   1.000  C
  C43      1.0000 0.26080  0.16600  0.04480  Biso   1.000  C
  C44      1.0000 0.23920  0.66600  0.45520  Biso   1.000  C
  H57      1.0000 0.75130  0.82720  0.89690  Biso   1.000  H
  H58      1.0000 0.74870  0.32720  0.60310  Biso   1.000  H
  H59      1.0000 0.24870  0.17280  0.10310  Biso   1.000  H
  H60      1.0000 0.25130  0.67280  0.39690  Biso   1.000  H
  C45      1.0000 0.65510  0.76800  0.98420  Biso   1.000  C
  C46      1.0000 0.84490  0.26800  0.51580  Biso   1.000  C
  C47      1.0000 0.34490  0.23200  0.01580  Biso   1.000  C
  C48      1.0000 0.15510  0.73200  0.48420  Biso   1.000  C
  H61      1.0000 0.61150  0.71360  0.94670  Biso   1.000  H
  H62      1.0000 0.88850  0.21360  0.55330  Biso   1.000  H
  H63      1.0000 0.38850  0.28640  0.05330  Biso   1.000  H
  H64      1.0000 0.11150  0.78640  0.44670  Biso   1.000  H
  C49      1.0000 0.63720  0.78500  0.07150  Biso   1.000  C
  C50      1.0000 0.86280  0.28500  0.42850  Biso   1.000  C
  C51      1.0000 0.36280  0.21500  0.92850  Biso   1.000  C
  C52      1.0000 0.13720  0.71500  0.57150  Biso   1.000  C
  C53      1.0000 0.54640  0.72480  0.10820  Biso   1.000  C
  C54      1.0000 0.95360  0.22480  0.39180  Biso   1.000  C
  C55      1.0000 0.45360  0.27520  0.89180  Biso   1.000  C
  C56      1.0000 0.04640  0.77520  0.60820  Biso   1.000  C
  H65      1.0000 0.50360  0.68730  0.05810  Biso   1.000  H
  H66      1.0000 0.99640  0.18730  0.44190  Biso   1.000  H
  H67      1.0000 0.49640  0.31270  0.94190  Biso   1.000  H
  H68      1.0000 0.00360  0.81270  0.55810  Biso   1.000  H
  H69      1.0000 0.57480  0.64770  0.14180  Biso   1.000  H
  H70      1.0000 0.92520  0.14770  0.35820  Biso   1.000  H
  H71      1.0000 0.42520  0.35230  0.85820  Biso   1.000  H
  H72      1.0000 0.07480  0.85230  0.64180  Biso   1.000  H
  C57      1.0000 0.47100  0.78600  0.16200  Biso   1.000  C
  C58      1.0000 0.02900  0.28600  0.33800  Biso   1.000  C
  C59      1.0000 0.52900  0.21400  0.83800  Biso   1.000  C
  C60      1.0000 0.97100  0.71400  0.66200  Biso   1.000  C
  H73      1.0000 0.44260  0.71500  0.19620  Biso   1.000  H
  H74      1.0000 0.05740  0.21500  0.30380  Biso   1.000  H
  H75      1.0000 0.55740  0.28500  0.80380  Biso   1.000  H
  H76      1.0000 0.94260  0.78500  0.69620  Biso   1.000  H
  H77      1.0000 0.41360  0.82430  0.12380  Biso   1.000  H
  H78      1.0000 0.08640  0.32430  0.37620  Biso   1.000  H
  H79      1.0000 0.58640  0.17570  0.87620  Biso   1.000  H
  H80      1.0000 0.91360  0.67570  0.62380  Biso   1.000  H
  H81      1.0000 0.56900  0.67000  0.15910  Biso   1.000  H
  H82      1.0000 0.93100  0.17000  0.34090  Biso   1.000  H
  H83      1.0000 0.43100  0.33000  0.84090  Biso   1.000  H
  H84      1.0000 0.06900  0.83000  0.65910  Biso   1.000  H
  H85      1.0000 0.50600  0.66860  0.06500  Biso   1.000  H
  H86      1.0000 0.99400  0.16860  0.43500  Biso   1.000  H
  H87      1.0000 0.49400  0.33140  0.93500  Biso   1.000  H
  H88      1.0000 0.00600  0.83140  0.56500  Biso   1.000  H
  C61      1.0000 0.47930  0.84900  0.13420  Biso   1.000  C
  C62      1.0000 0.02070  0.34900  0.36580  Biso   1.000  C
  C63      1.0000 0.52070  0.15100  0.86580  Biso   1.000  C
  C64      1.0000 0.97930  0.65100  0.63420  Biso   1.000  C
  H89      1.0000 0.48400  0.92250  0.09270  Biso   1.000  H
  H90      1.0000 0.01600  0.42250  0.40730  Biso   1.000  H
  H91      1.0000 0.51600  0.07750  0.90730  Biso   1.000  H
  H92      1.0000 0.98400  0.57750  0.59270  Biso   1.000  H
  H93      1.0000 0.40650  0.82320  0.13260  Biso   1.000  H
  H94      1.0000 0.09350  0.32320  0.36740  Biso   1.000  H
  H95      1.0000 0.59350  0.17680  0.86740  Biso   1.000  H
  H96      1.0000 0.90650  0.67680  0.63260  Biso   1.000  H
  C65      1.0000 0.49600  0.02400  0.17500  Biso   1.000  C
  C66      1.0000 0.00400  0.52400  0.32500  Biso   1.000  C
  C67      1.0000 0.50400  0.97600  0.82500  Biso   1.000  C
  C68      1.0000 0.99600  0.47600  0.67500  Biso   1.000  C
  H97      1.0000 0.42080  0.03490  0.16890  Biso   1.000  H
  H98      1.0000 0.07920  0.53490  0.33110  Biso   1.000  H
  H99      1.0000 0.57920  0.96510  0.83110  Biso   1.000  H
  H100     1.0000 0.92080  0.46510  0.66890  Biso   1.000  H
  H101     1.0000 0.51670  0.01070  0.11730  Biso   1.000  H
  H102     1.0000 0.98330  0.51070  0.38270  Biso   1.000  H
  H103     1.0000 0.48330  0.98930  0.88270  Biso   1.000  H
  H104     1.0000 0.01670  0.48930  0.61730  Biso   1.000  H
  C69      1.0000 0.54280  0.15350  0.20930  Biso   1.000  C
  C70      1.0000 0.95720  0.65350  0.29070  Biso   1.000  C
  C71      1.0000 0.45720  0.84650  0.79070  Biso   1.000  C
  C72      1.0000 0.04280  0.34650  0.70930  Biso   1.000  C
  H105     1.0000 0.51520  0.22210  0.16790  Biso   1.000  H
  H106     1.0000 0.98480  0.72210  0.33210  Biso   1.000  H
  H107     1.0000 0.48480  0.77790  0.83210  Biso   1.000  H
  H108     1.0000 0.01520  0.27790  0.66790  Biso   1.000  H
  H109     1.0000 0.51210  0.17140  0.26300  Biso   1.000  H
  H110     1.0000 0.98790  0.67140  0.23700  Biso   1.000  H
  H111     1.0000 0.48790  0.82860  0.73700  Biso   1.000  H
  H112     1.0000 0.01210  0.32860  0.76300  Biso   1.000  H
  C73      1.0000 0.49020  0.03850  0.24760  Biso   1.000  C
  C74      1.0000 0.00980  0.53850  0.25240  Biso   1.000  C
  C75      1.0000 0.50980  0.96150  0.75240  Biso   1.000  C
  C76      1.0000 0.99020  0.46150  0.74760  Biso   1.000  C
  H113     1.0000 0.41550  0.04870  0.23150  Biso   1.000  H
  H114     1.0000 0.08450  0.54870  0.26850  Biso   1.000  H
  H115     1.0000 0.58450  0.95130  0.76850  Biso   1.000  H
  H116     1.0000 0.91550  0.45130  0.73150  Biso   1.000  H
  H117     1.0000 0.50240  0.04690  0.31070  Biso   1.000  H
  H118     1.0000 0.99760  0.54690  0.18930  Biso   1.000  H
  H119     1.0000 0.49760  0.95310  0.68930  Biso   1.000  H
  H120     1.0000 0.00240  0.45310  0.81070  Biso   1.000  H
  H121     1.0000 0.50550  0.23430  0.22380  Biso   1.000  H
  H122     1.0000 0.99450  0.73430  0.27620  Biso   1.000  H
  H123     1.0000 0.49450  0.76570  0.77620  Biso   1.000  H
  H124     1.0000 0.00550  0.26570  0.72380  Biso   1.000  H
  H125     1.0000 0.53000  0.14300  0.14640  Biso   1.000  H
  H126     1.0000 0.97000  0.64300  0.35360  Biso   1.000  H
  H127     1.0000 0.47000  0.85700  0.85360  Biso   1.000  H
  H128     1.0000 0.03000  0.35700  0.64640  Biso   1.000  H
  C77      1.0000 0.65570  0.18450  0.22920  Biso   1.000  C
  C78      1.0000 0.84430  0.68450  0.27080  Biso   1.000  C
  C79      1.0000 0.34430  0.81550  0.77080  Biso   1.000  C
  C80      1.0000 0.15570  0.31550  0.72920  Biso   1.000  C
