data_image0
_cell_length_a       11.8138
_cell_length_b       13.4702
_cell_length_c       14.2027
_cell_angle_alpha    90
_cell_angle_beta     93.617
_cell_angle_gamma    90

_symmetry_space_group_name_H-M    "P 1"
_symmetry_int_tables_number       1

loop_
  _symmetry_equiv_pos_as_xyz
  'x, y, z'

loop_
  _atom_site_label
  _atom_site_occupancy
  _atom_site_fract_x
  _atom_site_fract_y
  _atom_site_fract_z
  _atom_site_thermal_displace_type
  _atom_site_B_iso_or_equiv
  _atom_site_type_symbol
  Cu1      1.0000 0.08898  0.18561  0.22384  Biso   1.000  Cu
  Cu2      1.0000 0.41102  0.68561  0.27616  Biso   1.000  Cu
  Cu3      1.0000 0.91102  0.81439  0.77616  Biso   1.000  Cu
  Cu4      1.0000 0.58898  0.31439  0.72384  Biso   1.000  Cu
  Cl1      1.0000 0.39035  0.19076  0.29042  Biso   1.000  Cl
  Cl2      1.0000 0.10965  0.69076  0.20958  Biso   1.000  Cl
  Cl3      1.0000 0.60965  0.80924  0.70958  Biso   1.000  Cl
  Cl4      1.0000 0.89035  0.30924  0.79042  Biso   1.000  Cl
  O1       1.0000 0.89520  0.10170  0.24545  Biso   1.000  O
  O2       1.0000 0.60480  0.60170  0.25455  Biso   1.000  O
  O3       1.0000 0.10480  0.89830  0.75455  Biso   1.000  O
  O4       1.0000 0.39520  0.39830  0.74545  Biso   1.000  O
  O5       1.0000 0.06030  0.06416  0.29860  Biso   1.000  O
  O6       1.0000 0.43970  0.56416  0.20140  Biso   1.000  O
  O7       1.0000 0.93970  0.93584  0.70140  Biso   1.000  O
  O8       1.0000 0.56030  0.43584  0.79860  Biso   1.000  O
  O9       1.0000 0.29610  0.16860  0.23750  Biso   1.000  O
  O10      1.0000 0.20390  0.66860  0.26250  Biso   1.000  O
  O11      1.0000 0.70390  0.83140  0.76250  Biso   1.000  O
  O12      1.0000 0.79610  0.33140  0.73750  Biso   1.000  O
  O13      1.0000 0.41900  0.29410  0.27750  Biso   1.000  O
  O14      1.0000 0.08100  0.79410  0.22250  Biso   1.000  O
  O15      1.0000 0.58100  0.70590  0.72250  Biso   1.000  O
  O16      1.0000 0.91900  0.20590  0.77750  Biso   1.000  O
  O17      1.0000 0.48500  0.13490  0.25930  Biso   1.000  O
  O18      1.0000 0.01500  0.63490  0.24070  Biso   1.000  O
  O19      1.0000 0.51500  0.86510  0.74070  Biso   1.000  O
  O20      1.0000 0.98500  0.36510  0.75930  Biso   1.000  O
  O21      1.0000 0.28680  0.22110  0.25810  Biso   1.000  O
  O22      1.0000 0.21320  0.72110  0.24190  Biso   1.000  O
  O23      1.0000 0.71320  0.77890  0.74190  Biso   1.000  O
  O24      1.0000 0.78680  0.27890  0.75810  Biso   1.000  O
  O25      1.0000 0.47490  0.25470  0.27690  Biso   1.000  O
  O26      1.0000 0.02510  0.75470  0.22310  Biso   1.000  O
  O27      1.0000 0.52510  0.74530  0.72310  Biso   1.000  O
  O28      1.0000 0.97490  0.24530  0.77690  Biso   1.000  O
  O29      1.0000 0.42910  0.10210  0.23910  Biso   1.000  O
  O30      1.0000 0.07090  0.60210  0.26090  Biso   1.000  O
  O31      1.0000 0.57090  0.89790  0.76090  Biso   1.000  O
  O32      1.0000 0.92910  0.39790  0.73910  Biso   1.000  O
  O33      1.0000 0.36560  0.16790  0.38670  Biso   1.000  O
  O34      1.0000 0.13440  0.66790  0.11330  Biso   1.000  O
  O35      1.0000 0.63440  0.83210  0.61330  Biso   1.000  O
  O36      1.0000 0.86560  0.33210  0.88670  Biso   1.000  O
  O37      1.0000 0.20820  0.27790  0.74010  Biso   1.000  O
  O38      1.0000 0.29180  0.77790  0.75990  Biso   1.000  O
  O39      1.0000 0.79180  0.72210  0.25990  Biso   1.000  O
  O40      1.0000 0.70820  0.22210  0.24010  Biso   1.000  O
  N1       1.0000 0.63250  0.40210  0.61080  Biso   1.000  N
  N2       1.0000 0.86750  0.90210  0.88920  Biso   1.000  N
  N3       1.0000 0.36750  0.59790  0.38920  Biso   1.000  N
  N4       1.0000 0.13250  0.09790  0.11080  Biso   1.000  N
  N5       1.0000 0.55240  0.23990  0.84609  Biso   1.000  N
  N6       1.0000 0.94760  0.73990  0.65391  Biso   1.000  N
  N7       1.0000 0.44760  0.76010  0.15391  Biso   1.000  N
  N8       1.0000 0.05240  0.26010  0.34609  Biso   1.000  N
  N9       1.0000 0.57920  0.19200  0.64050  Biso   1.000  N
  N10      1.0000 0.92080  0.69200  0.85950  Biso   1.000  N
  N11      1.0000 0.42080  0.80800  0.35950  Biso   1.000  N
  N12      1.0000 0.07920  0.30800  0.14050  Biso   1.000  N
  C1       1.0000 0.68660  0.48770  0.62990  Biso   1.000  C
  C2       1.0000 0.81340  0.98770  0.87010  Biso   1.000  C
  C3       1.0000 0.31340  0.51230  0.37010  Biso   1.000  C
  C4       1.0000 0.18660  0.01230  0.12990  Biso   1.000  C
  H1       1.0000 0.70530  0.50170  0.69310  Biso   1.000  H
  H2       1.0000 0.79470  0.00170  0.80690  Biso   1.000  H
  H3       1.0000 0.29470  0.49830  0.30690  Biso   1.000  H
  H4       1.0000 0.20530  0.99830  0.19310  Biso   1.000  H
  C5       1.0000 0.71770  0.55780  0.56460  Biso   1.000  C
  C6       1.0000 0.78230  0.05780  0.93540  Biso   1.000  C
  C7       1.0000 0.28230  0.44220  0.43540  Biso   1.000  C
  C8       1.0000 0.21770  0.94220  0.06460  Biso   1.000  C
  H5       1.0000 0.75660  0.61480  0.58470  Biso   1.000  H
  H6       1.0000 0.74340  0.11480  0.91530  Biso   1.000  H
  H7       1.0000 0.24340  0.38520  0.41530  Biso   1.000  H
  H8       1.0000 0.25660  0.88520  0.08470  Biso   1.000  H
  C9       1.0000 0.69150  0.54300  0.47330  Biso   1.000  C
  C10      1.0000 0.80850  0.04300  0.02670  Biso   1.000  C
  C11      1.0000 0.30850  0.45700  0.52670  Biso   1.000  C
  C12      1.0000 0.19150  0.95700  0.97330  Biso   1.000  C
  H9       1.0000 0.70990  0.58860  0.42750  Biso   1.000  H
  H10      1.0000 0.79010  0.08860  0.07250  Biso   1.000  H
  H11      1.0000 0.29010  0.41140  0.57250  Biso   1.000  H
  H12      1.0000 0.20990  0.91140  0.92750  Biso   1.000  H
  C13      1.0000 0.63610  0.45700  0.45120  Biso   1.000  C
  C14      1.0000 0.86390  0.95700  0.04880  Biso   1.000  C
  C15      1.0000 0.36390  0.54300  0.54880  Biso   1.000  C
  C16      1.0000 0.13610  0.04300  0.95120  Biso   1.000  C
  H13      1.0000 0.61610  0.44310  0.38820  Biso   1.000  H
  H14      1.0000 0.88390  0.94310  0.11180  Biso   1.000  H
  H15      1.0000 0.38390  0.55690  0.61180  Biso   1.000  H
  H16      1.0000 0.11610  0.05690  0.88820  Biso   1.000  H
  C17      1.0000 0.60750  0.38740  0.52140  Biso   1.000  C
  C18      1.0000 0.89250  0.88740  0.97860  Biso   1.000  C
  C19      1.0000 0.39250  0.61260  0.47860  Biso   1.000  C
  C20      1.0000 0.10750  0.11260  0.02140  Biso   1.000  C
  C21      1.0000 0.54770  0.29430  0.49380  Biso   1.000  C
  C22      1.0000 0.95230  0.79430  0.00620  Biso   1.000  C
  C23      1.0000 0.45230  0.70570  0.50620  Biso   1.000  C
  C24      1.0000 0.04770  0.20570  0.99380  Biso   1.000  C
  H17      1.0000 0.48560  0.31170  0.44900  Biso   1.000  H
  H18      1.0000 0.01440  0.81170  0.05100  Biso   1.000  H
  H19      1.0000 0.51440  0.68830  0.55100  Biso   1.000  H
  H20      1.0000 0.98560  0.18830  0.94900  Biso   1.000  H
  H21      1.0000 0.59990  0.25400  0.46010  Biso   1.000  H
  H22      1.0000 0.90010  0.75400  0.03990  Biso   1.000  H
  H23      1.0000 0.40010  0.74600  0.53990  Biso   1.000  H
  H24      1.0000 0.09990  0.24600  0.96010  Biso   1.000  H
  C25      1.0000 0.49750  0.22600  0.57150  Biso   1.000  C
  C26      1.0000 0.00250  0.72600  0.92850  Biso   1.000  C
  C27      1.0000 0.50250  0.77400  0.42850  Biso   1.000  C
  C28      1.0000 0.99750  0.27400  0.07150  Biso   1.000  C
  H25      1.0000 0.46100  0.16910  0.54070  Biso   1.000  H
  H26      1.0000 0.03900  0.66910  0.95930  Biso   1.000  H
  H27      1.0000 0.53900  0.83090  0.45930  Biso   1.000  H
  H28      1.0000 0.96100  0.33090  0.04070  Biso   1.000  H
  H29      1.0000 0.43990  0.26290  0.60230  Biso   1.000  H
  H30      1.0000 0.06010  0.76290  0.89770  Biso   1.000  H
  H31      1.0000 0.56010  0.73710  0.39770  Biso   1.000  H
  H32      1.0000 0.93990  0.23710  0.10230  Biso   1.000  H
  C29      1.0000 0.59510  0.27500  0.92530  Biso   1.000  C
  C30      1.0000 0.90490  0.77500  0.57470  Biso   1.000  C
  C31      1.0000 0.40490  0.72500  0.07470  Biso   1.000  C
  C32      1.0000 0.09510  0.22500  0.42530  Biso   1.000  C
  H33      1.0000 0.64720  0.32670  0.92470  Biso   1.000  H
  H34      1.0000 0.85280  0.82670  0.57530  Biso   1.000  H
  H35      1.0000 0.35280  0.67330  0.07530  Biso   1.000  H
  H36      1.0000 0.14720  0.17330  0.42470  Biso   1.000  H
  C33      1.0000 0.56430  0.23640  0.01260  Biso   1.000  C
  C34      1.0000 0.93570  0.73640  0.48740  Biso   1.000  C
  C35      1.0000 0.43570  0.76360  0.98740  Biso   1.000  C
  C36      1.0000 0.06430  0.26360  0.51260  Biso   1.000  C
  H37      1.0000 0.59800  0.26320  0.06780  Biso   1.000  H
  H38      1.0000 0.90200  0.76320  0.43220  Biso   1.000  H
  H39      1.0000 0.40200  0.73680  0.93220  Biso   1.000  H
  H40      1.0000 0.09800  0.23680  0.56780  Biso   1.000  H
  C37      1.0000 0.48690  0.16120  0.01980  Biso   1.000  C
  C38      1.0000 0.01310  0.66120  0.48020  Biso   1.000  C
  C39      1.0000 0.51310  0.83880  0.98020  Biso   1.000  C
  C40      1.0000 0.98690  0.33880  0.51980  Biso   1.000  C
  H41      1.0000 0.46660  0.13710  0.07780  Biso   1.000  H
  H42      1.0000 0.03340  0.63710  0.42220  Biso   1.000  H
  H43      1.0000 0.53340  0.86290  0.92220  Biso   1.000  H
  H44      1.0000 0.96660  0.36290  0.57780  Biso   1.000  H
  C41      1.0000 0.44380  0.12580  0.94010  Biso   1.000  C
  C42      1.0000 0.05620  0.62580  0.55990  Biso   1.000  C
  C43      1.0000 0.55620  0.87420  0.05990  Biso   1.000  C
  C44      1.0000 0.94380  0.37420  0.44010  Biso   1.000  C
  H45      1.0000 0.39110  0.07440  0.93980  Biso   1.000  H
  H46      1.0000 0.10890  0.57440  0.56020  Biso   1.000  H
  H47      1.0000 0.60890  0.92560  0.06020  Biso   1.000  H
  H48      1.0000 0.89110  0.42560  0.43980  Biso   1.000  H
  C45      1.0000 0.47740  0.16570  0.85380  Biso   1.000  C
  C46      1.0000 0.02260  0.66570  0.64620  Biso   1.000  C
  C47      1.0000 0.52260  0.83430  0.14620  Biso   1.000  C
  C48      1.0000 0.97740  0.33430  0.35380  Biso   1.000  C
  C49      1.0000 0.43340  0.12730  0.76400  Biso   1.000  C
  C50      1.0000 0.06660  0.62730  0.73600  Biso   1.000  C
  C51      1.0000 0.56660  0.87270  0.23600  Biso   1.000  C
  C52      1.0000 0.93340  0.37270  0.26400  Biso   1.000  C
  H49      1.0000 0.39170  0.06670  0.77470  Biso   1.000  H
  H50      1.0000 0.10830  0.56670  0.72530  Biso   1.000  H
  H51      1.0000 0.60830  0.93330  0.22530  Biso   1.000  H
  H52      1.0000 0.89170  0.43330  0.27470  Biso   1.000  H
  H53      1.0000 0.38050  0.17500  0.73520  Biso   1.000  H
  H54      1.0000 0.11950  0.67500  0.76480  Biso   1.000  H
  H55      1.0000 0.61950  0.82500  0.26480  Biso   1.000  H
  H56      1.0000 0.88050  0.32500  0.23520  Biso   1.000  H
  C53      1.0000 0.52980  0.10370  0.69110  Biso   1.000  C
  C54      1.0000 0.97020  0.60370  0.80890  Biso   1.000  C
  C55      1.0000 0.47020  0.89630  0.30890  Biso   1.000  C
  C56      1.0000 0.02980  0.39630  0.19110  Biso   1.000  C
  H57      1.0000 0.49790  0.05820  0.64360  Biso   1.000  H
  H58      1.0000 0.00210  0.55820  0.85640  Biso   1.000  H
  H59      1.0000 0.50210  0.94180  0.35640  Biso   1.000  H
  H60      1.0000 0.99790  0.44180  0.14360  Biso   1.000  H
  H61      1.0000 0.59170  0.06940  0.72550  Biso   1.000  H
  H62      1.0000 0.90830  0.56940  0.77450  Biso   1.000  H
  H63      1.0000 0.40830  0.93060  0.27450  Biso   1.000  H
  H64      1.0000 0.09170  0.43060  0.22550  Biso   1.000  H
  C57      1.0000 0.69090  0.16170  0.59420  Biso   1.000  C
  C58      1.0000 0.80910  0.66170  0.90580  Biso   1.000  C
  C59      1.0000 0.30910  0.83830  0.40580  Biso   1.000  C
  C60      1.0000 0.19090  0.33830  0.09420  Biso   1.000  C
  H65      1.0000 0.74650  0.14400  0.64470  Biso   1.000  H
  H66      1.0000 0.75350  0.64400  0.85530  Biso   1.000  H
  H67      1.0000 0.25350  0.85600  0.35530  Biso   1.000  H
  H68      1.0000 0.24650  0.35600  0.14470  Biso   1.000  H
  H69      1.0000 0.71940  0.22000  0.56340  Biso   1.000  H
  H70      1.0000 0.78060  0.72000  0.93660  Biso   1.000  H
  H71      1.0000 0.28060  0.78000  0.43660  Biso   1.000  H
  H72      1.0000 0.21940  0.28000  0.06340  Biso   1.000  H
  C61      1.0000 0.68620  0.07760  0.52310  Biso   1.000  C
  C62      1.0000 0.81380  0.57760  0.97690  Biso   1.000  C
  C63      1.0000 0.31380  0.92240  0.47690  Biso   1.000  C
  C64      1.0000 0.18620  0.42240  0.02310  Biso   1.000  C
  H73      1.0000 0.66500  0.01720  0.55480  Biso   1.000  H
  H74      1.0000 0.83500  0.51720  0.94520  Biso   1.000  H
  H75      1.0000 0.33500  0.98280  0.44520  Biso   1.000  H
  H76      1.0000 0.16500  0.48280  0.05480  Biso   1.000  H
  H77      1.0000 0.62680  0.09200  0.47470  Biso   1.000  H
  H78      1.0000 0.87320  0.59200  0.02530  Biso   1.000  H
  H79      1.0000 0.37320  0.90800  0.52530  Biso   1.000  H
  H80      1.0000 0.12680  0.40800  0.97470  Biso   1.000  H
  C65      1.0000 0.80050  0.05780  0.47340  Biso   1.000  C
  C66      1.0000 0.69950  0.55780  0.02660  Biso   1.000  C
  C67      1.0000 0.19950  0.94220  0.52660  Biso   1.000  C
  C68      1.0000 0.30050  0.44220  0.97340  Biso   1.000  C
  H81      1.0000 0.85830  0.03760  0.52120  Biso   1.000  H
  H82      1.0000 0.64170  0.53760  0.97880  Biso   1.000  H
  H83      1.0000 0.14170  0.96240  0.47880  Biso   1.000  H
  H84      1.0000 0.35830  0.46240  0.02120  Biso   1.000  H
  H85      1.0000 0.82520  0.11960  0.44640  Biso   1.000  H
  H86      1.0000 0.67480  0.61960  0.05360  Biso   1.000  H
  H87      1.0000 0.17480  0.88040  0.55360  Biso   1.000  H
  H88      1.0000 0.32520  0.38040  0.94640  Biso   1.000  H
  C69      1.0000 0.79270  0.97910  0.39590  Biso   1.000  C
  C70      1.0000 0.70730  0.47910  0.10410  Biso   1.000  C
  C71      1.0000 0.20730  0.02090  0.60410  Biso   1.000  C
  C72      1.0000 0.29270  0.52090  0.89590  Biso   1.000  C
  H89      1.0000 0.76800  0.91730  0.42310  Biso   1.000  H
  H90      1.0000 0.73200  0.41730  0.07690  Biso   1.000  H
  H91      1.0000 0.23200  0.08270  0.57690  Biso   1.000  H
  H92      1.0000 0.26800  0.58270  0.92310  Biso   1.000  H
  H93      1.0000 0.73470  0.99920  0.34840  Biso   1.000  H
  H94      1.0000 0.76530  0.49920  0.15160  Biso   1.000  H
  H95      1.0000 0.26530  0.00080  0.65160  Biso   1.000  H
  H96      1.0000 0.23470  0.50080  0.84840  Biso   1.000  H
  C73      1.0000 0.90680  0.95870  0.34540  Biso   1.000  C
  C74      1.0000 0.59320  0.45870  0.15460  Biso   1.000  C
  C75      1.0000 0.09320  0.04130  0.65460  Biso   1.000  C
  C76      1.0000 0.40680  0.54130  0.84540  Biso   1.000  C
  H97      1.0000 0.89310  0.90500  0.30060  Biso   1.000  H
  H98      1.0000 0.60690  0.40500  0.19940  Biso   1.000  H
  H99      1.0000 0.10690  0.09500  0.69940  Biso   1.000  H
  H100     1.0000 0.39310  0.59500  0.80060  Biso   1.000  H
  H101     1.0000 0.96390  0.93600  0.39260  Biso   1.000  H
  H102     1.0000 0.53610  0.43600  0.10740  Biso   1.000  H
  H103     1.0000 0.03610  0.06400  0.60740  Biso   1.000  H
  H104     1.0000 0.46390  0.56400  0.89260  Biso   1.000  H
  C77      1.0000 0.95550  0.04740  0.29310  Biso   1.000  C
  C78      1.0000 0.54450  0.54740  0.20690  Biso   1.000  C
  C79      1.0000 0.04450  0.95260  0.70690  Biso   1.000  C
  C80      1.0000 0.45550  0.45260  0.79310  Biso   1.000  C
