data_image0
_cell_length_a       13.535
_cell_length_b       14.303
_cell_length_c       19.502
_cell_angle_alpha    90
_cell_angle_beta     97.149
_cell_angle_gamma    90

_symmetry_space_group_name_H-M    "P 1"
_symmetry_int_tables_number       1

loop_
  _symmetry_equiv_pos_as_xyz
  'x, y, z'

loop_
  _atom_site_label
  _atom_site_occupancy
  _atom_site_fract_x
  _atom_site_fract_y
  _atom_site_fract_z
  _atom_site_thermal_displace_type
  _atom_site_B_iso_or_equiv
  _atom_site_type_symbol
  Cu1      1.0000 0.19535  0.36627  0.25578  Biso   1.000  Cu
  Cu2      1.0000 0.80465  0.36627  0.74422  Biso   1.000  Cu
  Cu3      1.0000 0.69535  0.86627  0.25578  Biso   1.000  Cu
  Cu4      1.0000 0.30465  0.86627  0.74422  Biso   1.000  Cu
  O1       1.0000 0.24070  0.35730  0.16340  Biso   1.000  O
  O2       1.0000 0.75930  0.35730  0.83660  Biso   1.000  O
  O3       1.0000 0.74070  0.85730  0.16340  Biso   1.000  O
  O4       1.0000 0.25930  0.85730  0.83660  Biso   1.000  O
  O5       1.0000 0.22220  0.50910  0.13400  Biso   1.000  O
  O6       1.0000 0.77780  0.50910  0.86600  Biso   1.000  O
  O7       1.0000 0.72220  0.00910  0.13400  Biso   1.000  O
  O8       1.0000 0.27780  0.00910  0.86600  Biso   1.000  O
  O9       1.0000 0.10830  0.50480  0.23500  Biso   1.000  O
  O10      1.0000 0.89170  0.50480  0.76500  Biso   1.000  O
  O11      1.0000 0.60830  0.00480  0.23500  Biso   1.000  O
  O12      1.0000 0.39170  0.00480  0.76500  Biso   1.000  O
  O13      1.0000 0.57380  0.14100  0.07290  Biso   1.000  O
  O14      1.0000 0.42620  0.14100  0.92710  Biso   1.000  O
  O15      1.0000 0.07380  0.64100  0.07290  Biso   1.000  O
  O16      1.0000 0.92620  0.64100  0.92710  Biso   1.000  O
  O17      1.0000 0.41800  0.08700  0.16690  Biso   1.000  O
  O18      1.0000 0.58200  0.08700  0.83310  Biso   1.000  O
  O19      1.0000 0.91800  0.58700  0.16690  Biso   1.000  O
  O20      1.0000 0.08200  0.58700  0.83310  Biso   1.000  O
  O21      1.0000 0.52000  0.02500  0.36610  Biso   1.000  O
  O22      1.0000 0.48000  0.02500  0.63390  Biso   1.000  O
  O23      1.0000 0.02000  0.52500  0.36610  Biso   1.000  O
  O24      1.0000 0.98000  0.52500  0.63390  Biso   1.000  O
  O25      1.0000 0.32670  0.06000  0.32420  Biso   1.000  O
  O26      1.0000 0.67330  0.06000  0.67580  Biso   1.000  O
  O27      1.0000 0.82670  0.56000  0.32420  Biso   1.000  O
  O28      1.0000 0.17330  0.56000  0.67580  Biso   1.000  O
  O29      1.0000 0.16350  0.36230  0.35230  Biso   1.000  O
  O30      1.0000 0.83650  0.36230  0.64770  Biso   1.000  O
  O31      1.0000 0.66350  0.86230  0.35230  Biso   1.000  O
  O32      1.0000 0.33650  0.86230  0.64770  Biso   1.000  O
  O33      1.0000 0.25830  0.23660  0.35000  Biso   1.000  O
  O34      1.0000 0.74170  0.23660  0.65000  Biso   1.000  O
  O35      1.0000 0.75830  0.73660  0.35000  Biso   1.000  O
  O36      1.0000 0.24170  0.73660  0.65000  Biso   1.000  O
  C1       1.0000 0.25210  0.42800  0.12480  Biso   1.000  C
  C2       1.0000 0.74790  0.42800  0.87520  Biso   1.000  C
  C3       1.0000 0.75210  0.92800  0.12480  Biso   1.000  C
  C4       1.0000 0.24790  0.92800  0.87520  Biso   1.000  C
  C5       1.0000 0.30800  0.40480  0.06340  Biso   1.000  C
  C6       1.0000 0.69200  0.40480  0.93660  Biso   1.000  C
  C7       1.0000 0.80800  0.90480  0.06340  Biso   1.000  C
  C8       1.0000 0.19200  0.90480  0.93660  Biso   1.000  C
  C9       1.0000 0.23860  0.35740  0.00370  Biso   1.000  C
  C10      1.0000 0.76140  0.35740  0.99630  Biso   1.000  C
  C11      1.0000 0.73860  0.85740  0.00370  Biso   1.000  C
  C12      1.0000 0.26140  0.85740  0.99630  Biso   1.000  C
  C13      1.0000 0.30140  0.36750  0.94270  Biso   1.000  C
  C14      1.0000 0.69860  0.36750  0.05730  Biso   1.000  C
  C15      1.0000 0.80140  0.86750  0.94270  Biso   1.000  C
  C16      1.0000 0.19860  0.86750  0.05730  Biso   1.000  C
  H1       1.0000 0.35850  0.32280  0.94980  Biso   1.000  H
  H2       1.0000 0.64150  0.32280  0.05020  Biso   1.000  H
  H3       1.0000 0.85850  0.82280  0.94980  Biso   1.000  H
  H4       1.0000 0.14150  0.82280  0.05020  Biso   1.000  H
  C17      1.0000 0.24230  0.34910  0.87210  Biso   1.000  C
  C18      1.0000 0.75770  0.34910  0.12790  Biso   1.000  C
  C19      1.0000 0.74230  0.84910  0.87210  Biso   1.000  C
  C20      1.0000 0.25770  0.84910  0.12790  Biso   1.000  C
  O37      1.0000 0.18970  0.41190  0.84190  Biso   1.000  O
  O38      1.0000 0.81030  0.41190  0.15810  Biso   1.000  O
  O39      1.0000 0.68970  0.91190  0.84190  Biso   1.000  O
  O40      1.0000 0.31030  0.91190  0.15810  Biso   1.000  O
  N1       1.0000 0.25160  0.27240  0.84620  Biso   1.000  N
  N2       1.0000 0.74840  0.27240  0.15380  Biso   1.000  N
  N3       1.0000 0.75160  0.77240  0.84620  Biso   1.000  N
  N4       1.0000 0.24840  0.77240  0.15380  Biso   1.000  N
  H5       1.0000 0.29630  0.23370  0.86700  Biso   1.000  H
  H6       1.0000 0.70370  0.23370  0.13300  Biso   1.000  H
  H7       1.0000 0.79630  0.73370  0.86700  Biso   1.000  H
  H8       1.0000 0.20370  0.73370  0.13300  Biso   1.000  H
  C21      1.0000 0.34330  0.47120  0.94940  Biso   1.000  C
  C22      1.0000 0.65670  0.47120  0.05060  Biso   1.000  C
  C23      1.0000 0.84330  0.97120  0.94940  Biso   1.000  C
  C24      1.0000 0.15670  0.97120  0.05060  Biso   1.000  C
  H9       1.0000 0.41350  0.47340  0.94010  Biso   1.000  H
  H10      1.0000 0.58650  0.47340  0.05990  Biso   1.000  H
  H11      1.0000 0.91350  0.97340  0.94010  Biso   1.000  H
  H12      1.0000 0.08650  0.97340  0.05990  Biso   1.000  H
  H13      1.0000 0.30320  0.51350  0.91680  Biso   1.000  H
  H14      1.0000 0.69680  0.51350  0.08320  Biso   1.000  H
  H15      1.0000 0.80320  0.01350  0.91680  Biso   1.000  H
  H16      1.0000 0.19680  0.01350  0.08320  Biso   1.000  H
  C25      1.0000 0.33460  0.49960  0.02620  Biso   1.000  C
  C26      1.0000 0.66540  0.49960  0.97380  Biso   1.000  C
  C27      1.0000 0.83460  0.99960  0.02620  Biso   1.000  C
  C28      1.0000 0.16540  0.99960  0.97380  Biso   1.000  C
  H17      1.0000 0.28150  0.54670  0.02810  Biso   1.000  H
  H18      1.0000 0.71850  0.54670  0.97190  Biso   1.000  H
  H19      1.0000 0.78150  0.04670  0.02810  Biso   1.000  H
  H20      1.0000 0.21850  0.04670  0.97190  Biso   1.000  H
  H21      1.0000 0.39830  0.52580  0.04860  Biso   1.000  H
  H22      1.0000 0.60170  0.52580  0.95140  Biso   1.000  H
  H23      1.0000 0.89830  0.02580  0.04860  Biso   1.000  H
  H24      1.0000 0.10170  0.02580  0.95140  Biso   1.000  H
  C29      1.0000 0.40220  0.35250  0.08950  Biso   1.000  C
  C30      1.0000 0.59780  0.35250  0.91050  Biso   1.000  C
  C31      1.0000 0.90220  0.85250  0.08950  Biso   1.000  C
  C32      1.0000 0.09780  0.85250  0.91050  Biso   1.000  C
  H25      1.0000 0.43870  0.33760  0.05060  Biso   1.000  H
  H26      1.0000 0.56130  0.33760  0.94940  Biso   1.000  H
  H27      1.0000 0.93870  0.83760  0.05060  Biso   1.000  H
  H28      1.0000 0.06130  0.83760  0.94940  Biso   1.000  H
  H29      1.0000 0.38500  0.29450  0.11200  Biso   1.000  H
  H30      1.0000 0.61500  0.29450  0.88800  Biso   1.000  H
  H31      1.0000 0.88500  0.79450  0.11200  Biso   1.000  H
  H32      1.0000 0.11500  0.79450  0.88800  Biso   1.000  H
  H33      1.0000 0.44390  0.39150  0.12280  Biso   1.000  H
  H34      1.0000 0.55610  0.39150  0.87720  Biso   1.000  H
  H35      1.0000 0.94390  0.89150  0.12280  Biso   1.000  H
  H36      1.0000 0.05610  0.89150  0.87720  Biso   1.000  H
  C33      1.0000 0.13900  0.40330  0.99100  Biso   1.000  C
  C34      1.0000 0.86100  0.40330  0.00900  Biso   1.000  C
  C35      1.0000 0.63900  0.90330  0.99100  Biso   1.000  C
  C36      1.0000 0.36100  0.90330  0.00900  Biso   1.000  C
  H37      1.0000 0.10250  0.39240  0.03060  Biso   1.000  H
  H38      1.0000 0.89750  0.39240  0.96940  Biso   1.000  H
  H39      1.0000 0.60250  0.89240  0.03060  Biso   1.000  H
  H40      1.0000 0.39750  0.89240  0.96940  Biso   1.000  H
  H41      1.0000 0.10150  0.37700  0.94920  Biso   1.000  H
  H42      1.0000 0.89850  0.37700  0.05080  Biso   1.000  H
  H43      1.0000 0.60150  0.87700  0.94920  Biso   1.000  H
  H44      1.0000 0.39850  0.87700  0.05080  Biso   1.000  H
  H45      1.0000 0.14770  0.47070  0.98480  Biso   1.000  H
  H46      1.0000 0.85230  0.47070  0.01520  Biso   1.000  H
  H47      1.0000 0.64770  0.97070  0.98480  Biso   1.000  H
  H48      1.0000 0.35230  0.97070  0.01520  Biso   1.000  H
  C37      1.0000 0.22190  0.25200  0.01840  Biso   1.000  C
  C38      1.0000 0.77810  0.25200  0.98160  Biso   1.000  C
  C39      1.0000 0.72190  0.75200  0.01840  Biso   1.000  C
  C40      1.0000 0.27810  0.75200  0.98160  Biso   1.000  C
  H49      1.0000 0.28650  0.22060  0.02820  Biso   1.000  H
  H50      1.0000 0.71350  0.22060  0.97180  Biso   1.000  H
  H51      1.0000 0.78650  0.72060  0.02820  Biso   1.000  H
  H52      1.0000 0.21350  0.72060  0.97180  Biso   1.000  H
  H53      1.0000 0.18370  0.22320  0.97780  Biso   1.000  H
  H54      1.0000 0.81630  0.22320  0.02220  Biso   1.000  H
  H55      1.0000 0.68370  0.72320  0.97780  Biso   1.000  H
  H56      1.0000 0.31630  0.72320  0.02220  Biso   1.000  H
  H57      1.0000 0.18510  0.24580  0.05830  Biso   1.000  H
  H58      1.0000 0.81490  0.24580  0.94170  Biso   1.000  H
  H59      1.0000 0.68510  0.74580  0.05830  Biso   1.000  H
  H60      1.0000 0.31490  0.74580  0.94170  Biso   1.000  H
  C41      1.0000 0.18930  0.23980  0.77950  Biso   1.000  C
  C42      1.0000 0.81070  0.23980  0.22050  Biso   1.000  C
  C43      1.0000 0.68930  0.73980  0.77950  Biso   1.000  C
  C44      1.0000 0.31070  0.73980  0.22050  Biso   1.000  C
  H61      1.0000 0.19490  0.28620  0.74250  Biso   1.000  H
  H62      1.0000 0.80510  0.28620  0.25750  Biso   1.000  H
  H63      1.0000 0.69490  0.78620  0.74250  Biso   1.000  H
  H64      1.0000 0.30510  0.78620  0.25750  Biso   1.000  H
  H65      1.0000 0.21580  0.17960  0.76470  Biso   1.000  H
  H66      1.0000 0.78420  0.17960  0.23530  Biso   1.000  H
  H67      1.0000 0.71580  0.67960  0.76470  Biso   1.000  H
  H68      1.0000 0.28420  0.67960  0.23530  Biso   1.000  H
  N5       1.0000 0.91530  0.27650  0.77520  Biso   1.000  N
  N6       1.0000 0.08470  0.27650  0.22480  Biso   1.000  N
  N7       1.0000 0.41530  0.77650  0.77520  Biso   1.000  N
  N8       1.0000 0.58470  0.77650  0.22480  Biso   1.000  N
  C45      1.0000 0.01380  0.29330  0.76570  Biso   1.000  C
  C46      1.0000 0.98620  0.29330  0.23430  Biso   1.000  C
  C47      1.0000 0.51380  0.79330  0.76570  Biso   1.000  C
  C48      1.0000 0.48620  0.79330  0.23430  Biso   1.000  C
  H69      1.0000 0.03110  0.34910  0.74350  Biso   1.000  H
  H70      1.0000 0.96890  0.34910  0.25650  Biso   1.000  H
  H71      1.0000 0.53110  0.84910  0.74350  Biso   1.000  H
  H72      1.0000 0.46890  0.84910  0.25650  Biso   1.000  H
  C49      1.0000 0.08710  0.22850  0.78860  Biso   1.000  C
  C50      1.0000 0.91290  0.22850  0.21140  Biso   1.000  C
  C51      1.0000 0.58710  0.72850  0.78860  Biso   1.000  C
  C52      1.0000 0.41290  0.72850  0.21140  Biso   1.000  C
  C53      1.0000 0.06180  0.14690  0.82100  Biso   1.000  C
  C54      1.0000 0.93820  0.14690  0.17900  Biso   1.000  C
  C55      1.0000 0.56180  0.64690  0.82100  Biso   1.000  C
  C56      1.0000 0.43820  0.64690  0.17900  Biso   1.000  C
  H73      1.0000 0.11190  0.10260  0.83670  Biso   1.000  H
  H74      1.0000 0.88810  0.10260  0.16330  Biso   1.000  H
  H75      1.0000 0.61190  0.60260  0.83670  Biso   1.000  H
  H76      1.0000 0.38810  0.60260  0.16330  Biso   1.000  H
  C57      1.0000 0.96330  0.13020  0.83050  Biso   1.000  C
  C58      1.0000 0.03670  0.13020  0.16950  Biso   1.000  C
  C59      1.0000 0.46330  0.63020  0.83050  Biso   1.000  C
  C60      1.0000 0.53670  0.63020  0.16950  Biso   1.000  C
  H77      1.0000 0.94600  0.07440  0.85260  Biso   1.000  H
  H78      1.0000 0.05400  0.07440  0.14740  Biso   1.000  H
  H79      1.0000 0.44600  0.57440  0.85260  Biso   1.000  H
  H80      1.0000 0.55400  0.57440  0.14740  Biso   1.000  H
  C61      1.0000 0.89000  0.19500  0.80760  Biso   1.000  C
  C62      1.0000 0.11000  0.19500  0.19240  Biso   1.000  C
  C63      1.0000 0.39000  0.69500  0.80760  Biso   1.000  C
  C64      1.0000 0.61000  0.69500  0.19240  Biso   1.000  C
  H81      1.0000 0.82270  0.18350  0.81410  Biso   1.000  H
  H82      1.0000 0.17730  0.18350  0.18590  Biso   1.000  H
  H83      1.0000 0.32270  0.68350  0.81410  Biso   1.000  H
  H84      1.0000 0.67730  0.68350  0.18590  Biso   1.000  H
  C65      1.0000 0.20560  0.28790  0.37480  Biso   1.000  C
  C66      1.0000 0.79440  0.28790  0.62520  Biso   1.000  C
  C67      1.0000 0.70560  0.78790  0.37480  Biso   1.000  C
  C68      1.0000 0.29440  0.78790  0.62520  Biso   1.000  C
  C69      1.0000 0.18830  0.26820  0.45460  Biso   1.000  C
  C70      1.0000 0.81170  0.26820  0.54540  Biso   1.000  C
  C71      1.0000 0.68830  0.76820  0.45460  Biso   1.000  C
  C72      1.0000 0.31170  0.76820  0.54540  Biso   1.000  C
  C73      1.0000 0.28520  0.29170  0.50570  Biso   1.000  C
  C74      1.0000 0.71480  0.29170  0.49430  Biso   1.000  C
  C75      1.0000 0.78520  0.79170  0.50570  Biso   1.000  C
  C76      1.0000 0.21480  0.79170  0.49430  Biso   1.000  C
  C77      1.0000 0.24370  0.28400  0.57470  Biso   1.000  C
  C78      1.0000 0.75630  0.28400  0.42530  Biso   1.000  C
  C79      1.0000 0.74370  0.78400  0.57470  Biso   1.000  C
  C80      1.0000 0.25630  0.78400  0.42530  Biso   1.000  C
  H85      1.0000 0.22890  0.21640  0.58170  Biso   1.000  H
  H86      1.0000 0.77110  0.21640  0.41830  Biso   1.000  H
  H87      1.0000 0.72890  0.71640  0.58170  Biso   1.000  H
  H88      1.0000 0.27110  0.71640  0.41830  Biso   1.000  H
  C81      1.0000 0.31910  0.31400  0.63510  Biso   1.000  C
  C82      1.0000 0.68090  0.31400  0.36490  Biso   1.000  C
  C83      1.0000 0.81910  0.81400  0.63510  Biso   1.000  C
  C84      1.0000 0.18090  0.81400  0.36490  Biso   1.000  C
  O41      1.0000 0.38610  0.25880  0.65700  Biso   1.000  O
  O42      1.0000 0.61390  0.25880  0.34300  Biso   1.000  O
  O43      1.0000 0.88610  0.75880  0.65700  Biso   1.000  O
  O44      1.0000 0.11390  0.75880  0.34300  Biso   1.000  O
  N9       1.0000 0.31960  0.38530  0.66400  Biso   1.000  N
  N10      1.0000 0.68040  0.38530  0.33600  Biso   1.000  N
  N11      1.0000 0.81960  0.88530  0.66400  Biso   1.000  N
  N12      1.0000 0.18040  0.88530  0.33600  Biso   1.000  N
  H89      1.0000 0.27500  0.42870  0.65140  Biso   1.000  H
  H90      1.0000 0.72500  0.42870  0.34860  Biso   1.000  H
  H91      1.0000 0.77500  0.92870  0.65140  Biso   1.000  H
  H92      1.0000 0.22500  0.92870  0.34860  Biso   1.000  H
  C85      1.0000 0.15260  0.33070  0.56460  Biso   1.000  C
  C86      1.0000 0.84740  0.33070  0.43540  Biso   1.000  C
  C87      1.0000 0.65260  0.83070  0.56460  Biso   1.000  C
  C88      1.0000 0.34740  0.83070  0.43540  Biso   1.000  C
  H93      1.0000 0.15840  0.39400  0.58520  Biso   1.000  H
  H94      1.0000 0.84160  0.39400  0.41480  Biso   1.000  H
  H95      1.0000 0.65840  0.89400  0.58520  Biso   1.000  H
  H96      1.0000 0.34160  0.89400  0.41480  Biso   1.000  H
  H97      1.0000 0.10080  0.29540  0.58540  Biso   1.000  H
  H98      1.0000 0.89920  0.29540  0.41460  Biso   1.000  H
  H99      1.0000 0.60080  0.79540  0.58540  Biso   1.000  H
  H100     1.0000 0.39920  0.79540  0.41460  Biso   1.000  H
  C89      1.0000 0.12650  0.33600  0.48310  Biso   1.000  C
  C90      1.0000 0.87350  0.33600  0.51690  Biso   1.000  C
  C91      1.0000 0.62650  0.83600  0.48310  Biso   1.000  C
  C92      1.0000 0.37350  0.83600  0.51690  Biso   1.000  C
  H101     1.0000 0.05520  0.32200  0.46940  Biso   1.000  H
  H102     1.0000 0.94480  0.32200  0.53060  Biso   1.000  H
  H103     1.0000 0.55520  0.82200  0.46940  Biso   1.000  H
  H104     1.0000 0.44480  0.82200  0.53060  Biso   1.000  H
  H105     1.0000 0.14040  0.39980  0.46640  Biso   1.000  H
  H106     1.0000 0.85960  0.39980  0.53360  Biso   1.000  H
  H107     1.0000 0.64040  0.89980  0.46640  Biso   1.000  H
  H108     1.0000 0.35960  0.89980  0.53360  Biso   1.000  H
  C93      1.0000 0.14850  0.19000  0.45600  Biso   1.000  C
  C94      1.0000 0.85150  0.19000  0.54400  Biso   1.000  C
  C95      1.0000 0.64850  0.69000  0.45600  Biso   1.000  C
  C96      1.0000 0.35150  0.69000  0.54400  Biso   1.000  C
  H109     1.0000 0.19220  0.14260  0.43950  Biso   1.000  H
  H110     1.0000 0.80780  0.14260  0.56050  Biso   1.000  H
  H111     1.0000 0.69220  0.64260  0.43950  Biso   1.000  H
  H112     1.0000 0.30780  0.64260  0.56050  Biso   1.000  H
  H113     1.0000 0.08460  0.19040  0.42620  Biso   1.000  H
  H114     1.0000 0.91540  0.19040  0.57380  Biso   1.000  H
  H115     1.0000 0.58460  0.69040  0.42620  Biso   1.000  H
  H116     1.0000 0.41540  0.69040  0.57380  Biso   1.000  H
  H117     1.0000 0.13730  0.17530  0.50360  Biso   1.000  H
  H118     1.0000 0.86270  0.17530  0.49640  Biso   1.000  H
  H119     1.0000 0.63730  0.67530  0.50360  Biso   1.000  H
  H120     1.0000 0.36270  0.67530  0.49640  Biso   1.000  H
  C97      1.0000 0.34550  0.36300  0.49180  Biso   1.000  C
  C98      1.0000 0.65450  0.36300  0.50820  Biso   1.000  C
  C99      1.0000 0.84550  0.86300  0.49180  Biso   1.000  C
  C100     1.0000 0.15450  0.86300  0.50820  Biso   1.000  C
  H121     1.0000 0.36640  0.35400  0.44590  Biso   1.000  H
  H122     1.0000 0.63360  0.35400  0.55410  Biso   1.000  H
  H123     1.0000 0.86640  0.85400  0.44590  Biso   1.000  H
  H124     1.0000 0.13360  0.85400  0.55410  Biso   1.000  H
  H125     1.0000 0.40440  0.36440  0.52660  Biso   1.000  H
  H126     1.0000 0.59560  0.36440  0.47340  Biso   1.000  H
  H127     1.0000 0.90440  0.86440  0.52660  Biso   1.000  H
  H128     1.0000 0.09560  0.86440  0.47340  Biso   1.000  H
  H129     1.0000 0.30940  0.42230  0.49270  Biso   1.000  H
  H130     1.0000 0.69060  0.42230  0.50730  Biso   1.000  H
  H131     1.0000 0.80940  0.92230  0.49270  Biso   1.000  H
  H132     1.0000 0.19060  0.92230  0.50730  Biso   1.000  H
  C101     1.0000 0.35600  0.20900  0.49880  Biso   1.000  C
  C102     1.0000 0.64400  0.20900  0.50120  Biso   1.000  C
  C103     1.0000 0.85600  0.70900  0.49880  Biso   1.000  C
  C104     1.0000 0.14400  0.70900  0.50120  Biso   1.000  C
  H133     1.0000 0.32250  0.15020  0.50870  Biso   1.000  H
  H134     1.0000 0.67750  0.15020  0.49130  Biso   1.000  H
  H135     1.0000 0.82250  0.65020  0.50870  Biso   1.000  H
  H136     1.0000 0.17750  0.65020  0.49130  Biso   1.000  H
  H137     1.0000 0.41630  0.21620  0.53160  Biso   1.000  H
  H138     1.0000 0.58370  0.21620  0.46840  Biso   1.000  H
  H139     1.0000 0.91630  0.71620  0.53160  Biso   1.000  H
  H140     1.0000 0.08370  0.71620  0.46840  Biso   1.000  H
  H141     1.0000 0.37360  0.20650  0.45160  Biso   1.000  H
  H142     1.0000 0.62640  0.20650  0.54840  Biso   1.000  H
  H143     1.0000 0.87360  0.70650  0.45160  Biso   1.000  H
  H144     1.0000 0.12640  0.70650  0.54840  Biso   1.000  H
  C105     1.0000 0.40530  0.40100  0.72750  Biso   1.000  C
  C106     1.0000 0.59470  0.40100  0.27250  Biso   1.000  C
  C107     1.0000 0.90530  0.90100  0.72750  Biso   1.000  C
  C108     1.0000 0.09470  0.90100  0.27250  Biso   1.000  C
  H145     1.0000 0.38230  0.44700  0.75990  Biso   1.000  H
  H146     1.0000 0.61770  0.44700  0.24010  Biso   1.000  H
  H147     1.0000 0.88230  0.94700  0.75990  Biso   1.000  H
  H148     1.0000 0.11770  0.94700  0.24010  Biso   1.000  H
  H149     1.0000 0.41860  0.34130  0.75270  Biso   1.000  H
  H150     1.0000 0.58140  0.34130  0.24730  Biso   1.000  H
  H151     1.0000 0.91860  0.84130  0.75270  Biso   1.000  H
  H152     1.0000 0.08140  0.84130  0.24730  Biso   1.000  H
  N13      1.0000 0.67500  0.42700  0.71050  Biso   1.000  N
  N14      1.0000 0.32500  0.42700  0.28950  Biso   1.000  N
  N15      1.0000 0.17500  0.92700  0.71050  Biso   1.000  N
  N16      1.0000 0.82500  0.92700  0.28950  Biso   1.000  N
  C109     1.0000 0.58580  0.38990  0.72650  Biso   1.000  C
  C110     1.0000 0.41420  0.38990  0.27350  Biso   1.000  C
  C111     1.0000 0.08580  0.88990  0.72650  Biso   1.000  C
  C112     1.0000 0.91420  0.88990  0.27350  Biso   1.000  C
  H153     1.0000 0.58590  0.33410  0.75300  Biso   1.000  H
  H154     1.0000 0.41410  0.33410  0.24700  Biso   1.000  H
  H155     1.0000 0.08590  0.83410  0.75300  Biso   1.000  H
  H156     1.0000 0.91410  0.83410  0.24700  Biso   1.000  H
  C113     1.0000 0.49640  0.43430  0.70380  Biso   1.000  C
  C114     1.0000 0.50360  0.43430  0.29620  Biso   1.000  C
  C115     1.0000 0.99640  0.93430  0.70380  Biso   1.000  C
  C116     1.0000 0.00360  0.93430  0.29620  Biso   1.000  C
  C117     1.0000 0.49620  0.51590  0.66510  Biso   1.000  C
  C118     1.0000 0.50380  0.51590  0.33490  Biso   1.000  C
  C119     1.0000 0.99620  0.01590  0.66510  Biso   1.000  C
  C120     1.0000 0.00380  0.01590  0.33490  Biso   1.000  C
  H157     1.0000 0.43500  0.54630  0.64960  Biso   1.000  H
  H158     1.0000 0.56500  0.54630  0.35040  Biso   1.000  H
  H159     1.0000 0.93500  0.04630  0.64960  Biso   1.000  H
  H160     1.0000 0.06500  0.04630  0.35040  Biso   1.000  H
  C121     1.0000 0.58540  0.55310  0.64910  Biso   1.000  C
  C122     1.0000 0.41460  0.55310  0.35090  Biso   1.000  C
  C123     1.0000 0.08540  0.05310  0.64910  Biso   1.000  C
  C124     1.0000 0.91460  0.05310  0.35090  Biso   1.000  C
  H161     1.0000 0.58520  0.60880  0.62260  Biso   1.000  H
  H162     1.0000 0.41480  0.60880  0.37740  Biso   1.000  H
  H163     1.0000 0.08520  0.10880  0.62260  Biso   1.000  H
  H164     1.0000 0.91480  0.10880  0.37740  Biso   1.000  H
  C125     1.0000 0.67480  0.50860  0.67180  Biso   1.000  C
  C126     1.0000 0.32520  0.50860  0.32820  Biso   1.000  C
  C127     1.0000 0.17480  0.00860  0.67180  Biso   1.000  C
  C128     1.0000 0.82520  0.00860  0.32820  Biso   1.000  C
  H165     1.0000 0.73580  0.53400  0.66090  Biso   1.000  H
  H166     1.0000 0.26420  0.53400  0.33910  Biso   1.000  H
  H167     1.0000 0.23580  0.03400  0.66090  Biso   1.000  H
  H168     1.0000 0.76420  0.03400  0.33910  Biso   1.000  H
