data_image0
_cell_length_a       15.4775
_cell_length_b       11.3913
_cell_length_c       17.798
_cell_angle_alpha    90
_cell_angle_beta     90
_cell_angle_gamma    90

_symmetry_space_group_name_H-M    "P 1"
_symmetry_int_tables_number       1

loop_
  _symmetry_equiv_pos_as_xyz
  'x, y, z'

loop_
  _atom_site_label
  _atom_site_occupancy
  _atom_site_fract_x
  _atom_site_fract_y
  _atom_site_fract_z
  _atom_site_thermal_displace_type
  _atom_site_B_iso_or_equiv
  _atom_site_type_symbol
  Cu1      1.0000 0.43921  0.60663  0.20064  Biso   1.000  Cu
  Cu2      1.0000 0.06079  0.39337  0.70064  Biso   1.000  Cu
  Cu3      1.0000 0.56079  0.10663  0.29936  Biso   1.000  Cu
  Cu4      1.0000 0.93921  0.89337  0.79936  Biso   1.000  Cu
  Cu5      1.0000 0.56079  0.39337  0.79936  Biso   1.000  Cu
  Cu6      1.0000 0.93921  0.60663  0.29936  Biso   1.000  Cu
  Cu7      1.0000 0.43921  0.89337  0.70064  Biso   1.000  Cu
  Cu8      1.0000 0.06079  0.10663  0.20064  Biso   1.000  Cu
  O1       1.0000 0.47898  0.60697  0.30800  Biso   1.000  O
  O2       1.0000 0.02102  0.39303  0.80800  Biso   1.000  O
  O3       1.0000 0.52102  0.10697  0.19200  Biso   1.000  O
  O4       1.0000 0.97898  0.89303  0.69200  Biso   1.000  O
  O5       1.0000 0.52102  0.39303  0.69200  Biso   1.000  O
  O6       1.0000 0.97898  0.60697  0.19200  Biso   1.000  O
  O7       1.0000 0.47898  0.89303  0.80800  Biso   1.000  O
  O8       1.0000 0.02102  0.10697  0.30800  Biso   1.000  O
  O9       1.0000 0.38906  0.45640  0.31884  Biso   1.000  O
  O10      1.0000 0.11094  0.54360  0.81884  Biso   1.000  O
  O11      1.0000 0.61094  0.95640  0.18116  Biso   1.000  O
  O12      1.0000 0.88906  0.04360  0.68116  Biso   1.000  O
  O13      1.0000 0.61094  0.54360  0.68116  Biso   1.000  O
  O14      1.0000 0.88906  0.45640  0.18116  Biso   1.000  O
  O15      1.0000 0.38906  0.04360  0.81884  Biso   1.000  O
  O16      1.0000 0.11094  0.95640  0.31884  Biso   1.000  O
  O17      1.0000 0.47969  0.74149  0.63483  Biso   1.000  O
  O18      1.0000 0.02031  0.25851  0.13483  Biso   1.000  O
  O19      1.0000 0.52031  0.24149  0.86517  Biso   1.000  O
  O20      1.0000 0.97969  0.75851  0.36517  Biso   1.000  O
  O21      1.0000 0.52031  0.25851  0.36517  Biso   1.000  O
  O22      1.0000 0.97969  0.74149  0.86517  Biso   1.000  O
  O23      1.0000 0.47969  0.75851  0.13483  Biso   1.000  O
  O24      1.0000 0.02031  0.24149  0.63483  Biso   1.000  O
  O25      1.0000 0.59370  0.77390  0.56400  Biso   1.000  O
  O26      1.0000 0.90630  0.22610  0.06400  Biso   1.000  O
  O27      1.0000 0.40630  0.27390  0.93600  Biso   1.000  O
  O28      1.0000 0.09370  0.72610  0.43600  Biso   1.000  O
  O29      1.0000 0.40630  0.22610  0.43600  Biso   1.000  O
  O30      1.0000 0.09370  0.77390  0.93600  Biso   1.000  O
  O31      1.0000 0.59370  0.72610  0.06400  Biso   1.000  O
  O32      1.0000 0.90630  0.27390  0.56400  Biso   1.000  O
  N1       1.0000 0.34670  0.51220  0.13710  Biso   1.000  N
  N2       1.0000 0.15330  0.48780  0.63710  Biso   1.000  N
  N3       1.0000 0.65330  0.01220  0.36290  Biso   1.000  N
  N4       1.0000 0.84670  0.98780  0.86290  Biso   1.000  N
  N5       1.0000 0.65330  0.48780  0.86290  Biso   1.000  N
  N6       1.0000 0.84670  0.51220  0.36290  Biso   1.000  N
  N7       1.0000 0.34670  0.98780  0.63710  Biso   1.000  N
  N8       1.0000 0.15330  0.01220  0.13710  Biso   1.000  N
  N9       1.0000 0.33221  0.69260  0.22931  Biso   1.000  N
  N10      1.0000 0.16779  0.30740  0.72931  Biso   1.000  N
  N11      1.0000 0.66779  0.19260  0.27069  Biso   1.000  N
  N12      1.0000 0.83221  0.80740  0.77069  Biso   1.000  N
  N13      1.0000 0.66779  0.30740  0.77069  Biso   1.000  N
  N14      1.0000 0.83221  0.69260  0.27069  Biso   1.000  N
  N15      1.0000 0.33221  0.80740  0.72931  Biso   1.000  N
  N16      1.0000 0.16779  0.19260  0.22931  Biso   1.000  N
  N17      1.0000 0.18633  0.68930  0.22991  Biso   1.000  N
  N18      1.0000 0.31367  0.31070  0.72991  Biso   1.000  N
  N19      1.0000 0.81367  0.18930  0.27009  Biso   1.000  N
  N20      1.0000 0.68633  0.81070  0.77009  Biso   1.000  N
  N21      1.0000 0.81367  0.31070  0.77009  Biso   1.000  N
  N22      1.0000 0.68633  0.68930  0.27009  Biso   1.000  N
  N23      1.0000 0.18633  0.81070  0.72991  Biso   1.000  N
  N24      1.0000 0.31367  0.18930  0.22991  Biso   1.000  N
  N25      1.0000 0.21743  0.77820  0.27341  Biso   1.000  N
  N26      1.0000 0.28257  0.22180  0.77341  Biso   1.000  N
  N27      1.0000 0.78257  0.27820  0.22659  Biso   1.000  N
  N28      1.0000 0.71743  0.72180  0.72659  Biso   1.000  N
  N29      1.0000 0.78257  0.22180  0.72659  Biso   1.000  N
  N30      1.0000 0.71743  0.77820  0.22659  Biso   1.000  N
  N31      1.0000 0.21743  0.72180  0.77341  Biso   1.000  N
  N32      1.0000 0.28257  0.27820  0.27341  Biso   1.000  N
  H1       1.0000 0.18560  0.82640  0.29830  Biso   1.000  H
  H2       1.0000 0.31440  0.17360  0.79830  Biso   1.000  H
  H3       1.0000 0.81440  0.32640  0.20170  Biso   1.000  H
  H4       1.0000 0.68560  0.67360  0.70170  Biso   1.000  H
  H5       1.0000 0.81440  0.17360  0.70170  Biso   1.000  H
  H6       1.0000 0.68560  0.82640  0.20170  Biso   1.000  H
  H7       1.0000 0.18560  0.67360  0.79830  Biso   1.000  H
  H8       1.0000 0.31440  0.32640  0.29830  Biso   1.000  H
  N33      1.0000 0.46357  0.99960  0.32600  Biso   1.000  N
  N34      1.0000 0.03643  0.00040  0.82600  Biso   1.000  N
  N35      1.0000 0.53643  0.49960  0.17400  Biso   1.000  N
  N36      1.0000 0.96357  0.50040  0.67400  Biso   1.000  N
  N37      1.0000 0.53643  0.00040  0.67400  Biso   1.000  N
  N38      1.0000 0.96357  0.99960  0.17400  Biso   1.000  N
  N39      1.0000 0.46357  0.50040  0.82600  Biso   1.000  N
  N40      1.0000 0.03643  0.49960  0.32600  Biso   1.000  N
  N41      1.0000 0.39493  0.03020  0.36737  Biso   1.000  N
  N42      1.0000 0.10507  0.96980  0.86737  Biso   1.000  N
  N43      1.0000 0.60507  0.53020  0.13263  Biso   1.000  N
  N44      1.0000 0.89493  0.46980  0.63263  Biso   1.000  N
  N45      1.0000 0.60507  0.96980  0.63263  Biso   1.000  N
  N46      1.0000 0.89493  0.03020  0.13263  Biso   1.000  N
  N47      1.0000 0.39493  0.46980  0.86737  Biso   1.000  N
  N48      1.0000 0.10507  0.53020  0.36737  Biso   1.000  N
  H9       1.0000 0.39330  0.08990  0.39690  Biso   1.000  H
  H10      1.0000 0.10670  0.91010  0.89690  Biso   1.000  H
  H11      1.0000 0.60670  0.58990  0.10310  Biso   1.000  H
  H12      1.0000 0.89330  0.41010  0.60310  Biso   1.000  H
  H13      1.0000 0.60670  0.91010  0.60310  Biso   1.000  H
  H14      1.0000 0.89330  0.08990  0.10310  Biso   1.000  H
  H15      1.0000 0.39330  0.41010  0.89690  Biso   1.000  H
  H16      1.0000 0.10670  0.58990  0.39690  Biso   1.000  H
  C1       1.0000 0.35970  0.42020  0.09190  Biso   1.000  C
  C2       1.0000 0.14030  0.57980  0.59190  Biso   1.000  C
  C3       1.0000 0.64030  0.92020  0.40810  Biso   1.000  C
  C4       1.0000 0.85970  0.07980  0.90810  Biso   1.000  C
  C5       1.0000 0.64030  0.57980  0.90810  Biso   1.000  C
  C6       1.0000 0.85970  0.42020  0.40810  Biso   1.000  C
  C7       1.0000 0.35970  0.07980  0.59190  Biso   1.000  C
  C8       1.0000 0.14030  0.92020  0.09190  Biso   1.000  C
  H17      1.0000 0.41600  0.39990  0.07920  Biso   1.000  H
  H18      1.0000 0.08400  0.60010  0.57920  Biso   1.000  H
  H19      1.0000 0.58400  0.89990  0.42080  Biso   1.000  H
  H20      1.0000 0.91600  0.10010  0.92080  Biso   1.000  H
  H21      1.0000 0.58400  0.60010  0.92080  Biso   1.000  H
  H22      1.0000 0.91600  0.39990  0.42080  Biso   1.000  H
  H23      1.0000 0.41600  0.10010  0.57920  Biso   1.000  H
  H24      1.0000 0.08400  0.89990  0.07920  Biso   1.000  H
  C9       1.0000 0.29230  0.35420  0.06330  Biso   1.000  C
  C10      1.0000 0.20770  0.64580  0.56330  Biso   1.000  C
  C11      1.0000 0.70770  0.85420  0.43670  Biso   1.000  C
  C12      1.0000 0.79230  0.14580  0.93670  Biso   1.000  C
  C13      1.0000 0.70770  0.64580  0.93670  Biso   1.000  C
  C14      1.0000 0.79230  0.35420  0.43670  Biso   1.000  C
  C15      1.0000 0.29230  0.14580  0.56330  Biso   1.000  C
  C16      1.0000 0.20770  0.85420  0.06330  Biso   1.000  C
  H25      1.0000 0.30340  0.29030  0.03220  Biso   1.000  H
  H26      1.0000 0.19660  0.70970  0.53220  Biso   1.000  H
  H27      1.0000 0.69660  0.79030  0.46780  Biso   1.000  H
  H28      1.0000 0.80340  0.20970  0.96780  Biso   1.000  H
  H29      1.0000 0.69660  0.70970  0.96780  Biso   1.000  H
  H30      1.0000 0.80340  0.29030  0.46780  Biso   1.000  H
  H31      1.0000 0.30340  0.20970  0.53220  Biso   1.000  H
  H32      1.0000 0.19660  0.79030  0.03220  Biso   1.000  H
  C17      1.0000 0.20880  0.38430  0.08150  Biso   1.000  C
  C18      1.0000 0.29120  0.61570  0.58150  Biso   1.000  C
  C19      1.0000 0.79120  0.88430  0.41850  Biso   1.000  C
  C20      1.0000 0.70880  0.11570  0.91850  Biso   1.000  C
  C21      1.0000 0.79120  0.61570  0.91850  Biso   1.000  C
  C22      1.0000 0.70880  0.38430  0.41850  Biso   1.000  C
  C23      1.0000 0.20880  0.11570  0.58150  Biso   1.000  C
  C24      1.0000 0.29120  0.88430  0.08150  Biso   1.000  C
  H33      1.0000 0.16270  0.34060  0.06300  Biso   1.000  H
  H34      1.0000 0.33730  0.65940  0.56300  Biso   1.000  H
  H35      1.0000 0.83730  0.84060  0.43700  Biso   1.000  H
  H36      1.0000 0.66270  0.15940  0.93700  Biso   1.000  H
  H37      1.0000 0.83730  0.65940  0.93700  Biso   1.000  H
  H38      1.0000 0.66270  0.34060  0.43700  Biso   1.000  H
  H39      1.0000 0.16270  0.15940  0.56300  Biso   1.000  H
  H40      1.0000 0.33730  0.84060  0.06300  Biso   1.000  H
  C25      1.0000 0.19390  0.47950  0.12740  Biso   1.000  C
  C26      1.0000 0.30610  0.52050  0.62740  Biso   1.000  C
  C27      1.0000 0.80610  0.97950  0.37260  Biso   1.000  C
  C28      1.0000 0.69390  0.02050  0.87260  Biso   1.000  C
  C29      1.0000 0.80610  0.52050  0.87260  Biso   1.000  C
  C30      1.0000 0.69390  0.47950  0.37260  Biso   1.000  C
  C31      1.0000 0.19390  0.02050  0.62740  Biso   1.000  C
  C32      1.0000 0.30610  0.97950  0.12740  Biso   1.000  C
  H41      1.0000 0.13800  0.50210  0.13980  Biso   1.000  H
  H42      1.0000 0.36200  0.49790  0.63980  Biso   1.000  H
  H43      1.0000 0.86200  0.00210  0.36020  Biso   1.000  H
  H44      1.0000 0.63800  0.99790  0.86020  Biso   1.000  H
  H45      1.0000 0.86200  0.49790  0.86020  Biso   1.000  H
  H46      1.0000 0.63800  0.50210  0.36020  Biso   1.000  H
  H47      1.0000 0.13800  0.99790  0.63980  Biso   1.000  H
  H48      1.0000 0.36200  0.00210  0.13980  Biso   1.000  H
  C33      1.0000 0.26430  0.54030  0.15425  Biso   1.000  C
  C34      1.0000 0.23570  0.45970  0.65425  Biso   1.000  C
  C35      1.0000 0.73570  0.04030  0.34575  Biso   1.000  C
  C36      1.0000 0.76430  0.95970  0.84575  Biso   1.000  C
  C37      1.0000 0.73570  0.45970  0.84575  Biso   1.000  C
  C38      1.0000 0.76430  0.54030  0.34575  Biso   1.000  C
  C39      1.0000 0.26430  0.95970  0.65425  Biso   1.000  C
  C40      1.0000 0.23570  0.04030  0.15425  Biso   1.000  C
  C41      1.0000 0.25820  0.64050  0.20482  Biso   1.000  C
  C42      1.0000 0.24180  0.35950  0.70482  Biso   1.000  C
  C43      1.0000 0.74180  0.14050  0.29518  Biso   1.000  C
  C44      1.0000 0.75820  0.85950  0.79518  Biso   1.000  C
  C45      1.0000 0.74180  0.35950  0.79518  Biso   1.000  C
  C46      1.0000 0.75820  0.64050  0.29518  Biso   1.000  C
  C47      1.0000 0.25820  0.85950  0.70482  Biso   1.000  C
  C48      1.0000 0.24180  0.14050  0.20482  Biso   1.000  C
  C49      1.0000 0.30430  0.78070  0.27247  Biso   1.000  C
  C50      1.0000 0.19570  0.21930  0.77247  Biso   1.000  C
  C51      1.0000 0.69570  0.28070  0.22753  Biso   1.000  C
  C52      1.0000 0.80430  0.71930  0.72753  Biso   1.000  C
  C53      1.0000 0.69570  0.21930  0.72753  Biso   1.000  C
  C54      1.0000 0.80430  0.78070  0.22753  Biso   1.000  C
  C55      1.0000 0.30430  0.71930  0.77247  Biso   1.000  C
  C56      1.0000 0.19570  0.28070  0.27247  Biso   1.000  C
  C57      1.0000 0.35590  0.87090  0.30737  Biso   1.000  C
  C58      1.0000 0.14410  0.12910  0.80737  Biso   1.000  C
  C59      1.0000 0.64410  0.37090  0.19263  Biso   1.000  C
  C60      1.0000 0.85590  0.62910  0.69263  Biso   1.000  C
  C61      1.0000 0.64410  0.12910  0.69263  Biso   1.000  C
  C62      1.0000 0.85590  0.87090  0.19263  Biso   1.000  C
  C63      1.0000 0.35590  0.62910  0.80737  Biso   1.000  C
  C64      1.0000 0.14410  0.37090  0.30737  Biso   1.000  C
  C65      1.0000 0.32950  0.95630  0.35700  Biso   1.000  C
  C66      1.0000 0.17050  0.04370  0.85700  Biso   1.000  C
  C67      1.0000 0.67050  0.45630  0.14300  Biso   1.000  C
  C68      1.0000 0.82950  0.54370  0.64300  Biso   1.000  C
  C69      1.0000 0.67050  0.04370  0.64300  Biso   1.000  C
  C70      1.0000 0.82950  0.95630  0.14300  Biso   1.000  C
  C71      1.0000 0.32950  0.54370  0.85700  Biso   1.000  C
  C72      1.0000 0.17050  0.45630  0.35700  Biso   1.000  C
  H49      1.0000 0.27540  0.96150  0.37940  Biso   1.000  H
  H50      1.0000 0.22460  0.03850  0.87940  Biso   1.000  H
  H51      1.0000 0.72460  0.46150  0.12060  Biso   1.000  H
  H52      1.0000 0.77540  0.53850  0.62060  Biso   1.000  H
  H53      1.0000 0.72460  0.03850  0.62060  Biso   1.000  H
  H54      1.0000 0.77540  0.96150  0.12060  Biso   1.000  H
  H55      1.0000 0.27540  0.53850  0.87940  Biso   1.000  H
  H56      1.0000 0.22460  0.46150  0.37940  Biso   1.000  H
  C73      1.0000 0.44040  0.90140  0.29000  Biso   1.000  C
  C74      1.0000 0.05960  0.09860  0.79000  Biso   1.000  C
  C75      1.0000 0.55960  0.40140  0.21000  Biso   1.000  C
  C76      1.0000 0.94040  0.59860  0.71000  Biso   1.000  C
  C77      1.0000 0.55960  0.09860  0.71000  Biso   1.000  C
  C78      1.0000 0.94040  0.90140  0.21000  Biso   1.000  C
  C79      1.0000 0.44040  0.59860  0.79000  Biso   1.000  C
  C80      1.0000 0.05960  0.40140  0.29000  Biso   1.000  C
  H57      1.0000 0.47600  0.85930  0.25780  Biso   1.000  H
  H58      1.0000 0.02400  0.14070  0.75780  Biso   1.000  H
  H59      1.0000 0.52400  0.35930  0.24220  Biso   1.000  H
  H60      1.0000 0.97600  0.64070  0.74220  Biso   1.000  H
  H61      1.0000 0.52400  0.14070  0.74220  Biso   1.000  H
  H62      1.0000 0.97600  0.85930  0.24220  Biso   1.000  H
  H63      1.0000 0.47600  0.64070  0.75780  Biso   1.000  H
  H64      1.0000 0.02400  0.35930  0.25780  Biso   1.000  H
  C81      1.0000 0.44414  0.52420  0.34451  Biso   1.000  C
  C82      1.0000 0.05586  0.47580  0.84451  Biso   1.000  C
  C83      1.0000 0.55586  0.02420  0.15549  Biso   1.000  C
  C84      1.0000 0.94414  0.97580  0.65549  Biso   1.000  C
  C85      1.0000 0.55586  0.47580  0.65549  Biso   1.000  C
  C86      1.0000 0.94414  0.52420  0.15549  Biso   1.000  C
  C87      1.0000 0.44414  0.97580  0.84451  Biso   1.000  C
  C88      1.0000 0.05586  0.02420  0.34451  Biso   1.000  C
  C89      1.0000 0.47409  0.50970  0.42492  Biso   1.000  C
  C90      1.0000 0.02591  0.49030  0.92492  Biso   1.000  C
  C91      1.0000 0.52591  0.00970  0.07508  Biso   1.000  C
  C92      1.0000 0.97409  0.99030  0.57508  Biso   1.000  C
  C93      1.0000 0.52591  0.49030  0.57508  Biso   1.000  C
  C94      1.0000 0.97409  0.50970  0.07508  Biso   1.000  C
  C95      1.0000 0.47409  0.99030  0.92492  Biso   1.000  C
  C96      1.0000 0.02591  0.00970  0.42492  Biso   1.000  C
  C97      1.0000 0.49290  0.60890  0.46706  Biso   1.000  C
  C98      1.0000 0.00710  0.39110  0.96706  Biso   1.000  C
  C99      1.0000 0.50710  0.10890  0.03294  Biso   1.000  C
  C100     1.0000 0.99290  0.89110  0.53294  Biso   1.000  C
  C101     1.0000 0.50710  0.39110  0.53294  Biso   1.000  C
  C102     1.0000 0.99290  0.60890  0.03294  Biso   1.000  C
  C103     1.0000 0.49290  0.89110  0.96706  Biso   1.000  C
  C104     1.0000 0.00710  0.10890  0.46706  Biso   1.000  C
  H65      1.0000 0.48890  0.68250  0.44470  Biso   1.000  H
  H66      1.0000 0.01110  0.31750  0.94470  Biso   1.000  H
  H67      1.0000 0.51110  0.18250  0.05530  Biso   1.000  H
  H68      1.0000 0.98890  0.81750  0.55530  Biso   1.000  H
  H69      1.0000 0.51110  0.31750  0.55530  Biso   1.000  H
  H70      1.0000 0.98890  0.68250  0.05530  Biso   1.000  H
  H71      1.0000 0.48890  0.81750  0.94470  Biso   1.000  H
  H72      1.0000 0.01110  0.18250  0.44470  Biso   1.000  H
  C105     1.0000 0.51783  0.60080  0.54205  Biso   1.000  C
  C106     1.0000 0.98217  0.39920  0.04205  Biso   1.000  C
  C107     1.0000 0.48217  0.10080  0.95795  Biso   1.000  C
  C108     1.0000 0.01783  0.89920  0.45795  Biso   1.000  C
  C109     1.0000 0.48217  0.39920  0.45795  Biso   1.000  C
  C110     1.0000 0.01783  0.60080  0.95795  Biso   1.000  C
  C111     1.0000 0.51783  0.89920  0.04205  Biso   1.000  C
  C112     1.0000 0.98217  0.10080  0.54205  Biso   1.000  C
  C113     1.0000 0.53110  0.71470  0.58474  Biso   1.000  C
  C114     1.0000 0.96890  0.28530  0.08474  Biso   1.000  C
  C115     1.0000 0.46890  0.21470  0.91526  Biso   1.000  C
  C116     1.0000 0.03110  0.78530  0.41526  Biso   1.000  C
  C117     1.0000 0.46890  0.28530  0.41526  Biso   1.000  C
  C118     1.0000 0.03110  0.71470  0.91526  Biso   1.000  C
  C119     1.0000 0.53110  0.78530  0.08474  Biso   1.000  C
  C120     1.0000 0.96890  0.21470  0.58474  Biso   1.000  C
