data_image0
_cell_length_a       9.0672
_cell_length_b       8.6022
_cell_length_c       9.601
_cell_angle_alpha    90
_cell_angle_beta     101.335
_cell_angle_gamma    90

_symmetry_space_group_name_H-M    "P 1"
_symmetry_int_tables_number       1

loop_
  _symmetry_equiv_pos_as_xyz
  'x, y, z'

loop_
  _atom_site_label
  _atom_site_occupancy
  _atom_site_fract_x
  _atom_site_fract_y
  _atom_site_fract_z
  _atom_site_thermal_displace_type
  _atom_site_B_iso_or_equiv
  _atom_site_type_symbol
  Cu1      1.0000 0.50000  0.50000  0.50000  Biso   1.000  Cu
  Cu2      1.0000 0.00000  0.00000  0.00000  Biso   1.000  Cu
  N1       1.0000 0.30980  0.57660  0.55960  Biso   1.000  N
  N2       1.0000 0.19020  0.07660  0.94040  Biso   1.000  N
  N3       1.0000 0.69020  0.42340  0.44040  Biso   1.000  N
  N4       1.0000 0.80980  0.92340  0.05960  Biso   1.000  N
  O1       1.0000 0.03290  0.79320  0.92380  Biso   1.000  O
  O2       1.0000 0.46710  0.29320  0.57620  Biso   1.000  O
  O3       1.0000 0.96710  0.20680  0.07620  Biso   1.000  O
  O4       1.0000 0.53290  0.70680  0.42380  Biso   1.000  O
  O5       1.0000 0.19760  0.68400  0.09970  Biso   1.000  O
  O6       1.0000 0.30240  0.18400  0.40030  Biso   1.000  O
  O7       1.0000 0.80240  0.31600  0.90030  Biso   1.000  O
  O8       1.0000 0.69760  0.81600  0.59970  Biso   1.000  O
  O9       1.0000 0.63120  0.55300  0.74050  Biso   1.000  O
  O10      1.0000 0.86880  0.05300  0.75950  Biso   1.000  O
  O11      1.0000 0.36880  0.44700  0.25950  Biso   1.000  O
  O12      1.0000 0.13120  0.94700  0.24050  Biso   1.000  O
  H1       1.0000 0.67160  0.63650  0.71900  Biso   1.000  H
  H2       1.0000 0.82840  0.13650  0.78100  Biso   1.000  H
  H3       1.0000 0.32840  0.36350  0.28100  Biso   1.000  H
  H4       1.0000 0.17160  0.86350  0.21900  Biso   1.000  H
  H5       1.0000 0.68900  0.49050  0.79410  Biso   1.000  H
  H6       1.0000 0.81100  0.99050  0.70590  Biso   1.000  H
  H7       1.0000 0.31100  0.50950  0.20590  Biso   1.000  H
  H8       1.0000 0.18900  0.00950  0.29410  Biso   1.000  H
  C1       1.0000 0.12250  0.68640  0.97630  Biso   1.000  C
  C2       1.0000 0.37750  0.18640  0.52370  Biso   1.000  C
  C3       1.0000 0.87750  0.31360  0.02370  Biso   1.000  C
  C4       1.0000 0.62250  0.81360  0.47630  Biso   1.000  C
  C5       1.0000 0.13360  0.54820  0.88010  Biso   1.000  C
  C6       1.0000 0.36640  0.04820  0.61990  Biso   1.000  C
  C7       1.0000 0.86640  0.45180  0.11990  Biso   1.000  C
  C8       1.0000 0.63360  0.95180  0.38010  Biso   1.000  C
  H9       1.0000 0.04280  0.48640  0.87190  Biso   1.000  H
  H10      1.0000 0.45720  0.98640  0.62810  Biso   1.000  H
  H11      1.0000 0.95720  0.51360  0.12810  Biso   1.000  H
  H12      1.0000 0.54280  0.01360  0.37190  Biso   1.000  H
  H13      1.0000 0.21760  0.48370  0.92440  Biso   1.000  H
  H14      1.0000 0.28240  0.98370  0.57560  Biso   1.000  H
  H15      1.0000 0.78240  0.51630  0.07560  Biso   1.000  H
  H16      1.0000 0.71760  0.01630  0.42440  Biso   1.000  H
  C9       1.0000 0.28370  0.54490  0.68830  Biso   1.000  C
  C10      1.0000 0.21630  0.04490  0.81170  Biso   1.000  C
  C11      1.0000 0.71630  0.45510  0.31170  Biso   1.000  C
  C12      1.0000 0.78370  0.95510  0.18830  Biso   1.000  C
  H17      1.0000 0.35530  0.48850  0.75090  Biso   1.000  H
  H18      1.0000 0.14470  0.98850  0.74910  Biso   1.000  H
  H19      1.0000 0.64470  0.51150  0.24910  Biso   1.000  H
  H20      1.0000 0.85530  0.01150  0.25090  Biso   1.000  H
  C13      1.0000 0.15450  0.59200  0.73310  Biso   1.000  C
  C14      1.0000 0.34550  0.09200  0.76690  Biso   1.000  C
  C15      1.0000 0.84550  0.40800  0.26690  Biso   1.000  C
  C16      1.0000 0.65450  0.90800  0.23310  Biso   1.000  C
  C17      1.0000 0.04750  0.66980  0.63720  Biso   1.000  C
  C18      1.0000 0.45250  0.16980  0.86280  Biso   1.000  C
  C19      1.0000 0.95250  0.33020  0.36280  Biso   1.000  C
  C20      1.0000 0.54750  0.83020  0.13720  Biso   1.000  C
  H21      1.0000 0.95720  0.69870  0.66200  Biso   1.000  H
  H22      1.0000 0.54280  0.19870  0.83800  Biso   1.000  H
  H23      1.0000 0.04280  0.30130  0.33800  Biso   1.000  H
  H24      1.0000 0.45720  0.80130  0.16200  Biso   1.000  H
  C21      1.0000 0.07370  0.70490  0.50560  Biso   1.000  C
  C22      1.0000 0.42630  0.20490  0.99440  Biso   1.000  C
  C23      1.0000 0.92630  0.29510  0.49440  Biso   1.000  C
  C24      1.0000 0.57370  0.79510  0.00560  Biso   1.000  C
  H25      1.0000 0.00370  0.76140  0.44150  Biso   1.000  H
  H26      1.0000 0.49630  0.26140  0.05850  Biso   1.000  H
  H27      1.0000 0.99630  0.23860  0.55850  Biso   1.000  H
  H28      1.0000 0.50370  0.73860  0.94150  Biso   1.000  H
  C25      1.0000 0.20580  0.65500  0.46930  Biso   1.000  C
  C26      1.0000 0.29420  0.15500  0.03070  Biso   1.000  C
  C27      1.0000 0.79420  0.34500  0.53070  Biso   1.000  C
  C28      1.0000 0.70580  0.84500  0.96930  Biso   1.000  C
  H29      1.0000 0.22280  0.67670  0.37890  Biso   1.000  H
  H30      1.0000 0.27720  0.17670  0.12110  Biso   1.000  H
  H31      1.0000 0.77720  0.32330  0.62110  Biso   1.000  H
  H32      1.0000 0.72280  0.82330  0.87890  Biso   1.000  H
