data_image0
_cell_length_a       8.1933
_cell_length_b       8.8144
_cell_length_c       35.209
_cell_angle_alpha    90
_cell_angle_beta     90
_cell_angle_gamma    90

_symmetry_space_group_name_H-M    "P 1"
_symmetry_int_tables_number       1

loop_
  _symmetry_equiv_pos_as_xyz
  'x, y, z'

loop_
  _atom_site_label
  _atom_site_occupancy
  _atom_site_fract_x
  _atom_site_fract_y
  _atom_site_fract_z
  _atom_site_thermal_displace_type
  _atom_site_B_iso_or_equiv
  _atom_site_type_symbol
  Cu1      1.0000 0.06114  0.28463  0.41003  Biso   1.000  Cu
  Cu2      1.0000 0.43886  0.71537  0.91003  Biso   1.000  Cu
  Cu3      1.0000 0.93886  0.78463  0.08997  Biso   1.000  Cu
  Cu4      1.0000 0.56114  0.21537  0.58997  Biso   1.000  Cu
  Cu5      1.0000 0.93886  0.71537  0.58997  Biso   1.000  Cu
  Cu6      1.0000 0.56114  0.28463  0.08997  Biso   1.000  Cu
  Cu7      1.0000 0.06114  0.21537  0.91003  Biso   1.000  Cu
  Cu8      1.0000 0.43886  0.78463  0.41003  Biso   1.000  Cu
  C1       1.0000 0.11200  0.07530  0.33769  Biso   1.000  C
  C2       1.0000 0.38800  0.92470  0.83769  Biso   1.000  C
  C3       1.0000 0.88800  0.57530  0.16231  Biso   1.000  C
  C4       1.0000 0.61200  0.42470  0.66231  Biso   1.000  C
  C5       1.0000 0.88800  0.92470  0.66231  Biso   1.000  C
  C6       1.0000 0.61200  0.07530  0.16231  Biso   1.000  C
  C7       1.0000 0.11200  0.42470  0.83769  Biso   1.000  C
  C8       1.0000 0.38800  0.57530  0.33769  Biso   1.000  C
  C9       1.0000 0.18130  0.02740  0.30336  Biso   1.000  C
  C10      1.0000 0.31870  0.97260  0.80336  Biso   1.000  C
  C11      1.0000 0.81870  0.52740  0.19664  Biso   1.000  C
  C12      1.0000 0.68130  0.47260  0.69664  Biso   1.000  C
  C13      1.0000 0.81870  0.97260  0.69664  Biso   1.000  C
  C14      1.0000 0.68130  0.02740  0.19664  Biso   1.000  C
  C15      1.0000 0.18130  0.47260  0.80336  Biso   1.000  C
  C16      1.0000 0.31870  0.52740  0.30336  Biso   1.000  C
  H1       1.0000 0.26580  0.95700  0.30390  Biso   1.000  H
  H2       1.0000 0.23420  0.04300  0.80390  Biso   1.000  H
  H3       1.0000 0.73420  0.45700  0.19610  Biso   1.000  H
  H4       1.0000 0.76580  0.54300  0.69610  Biso   1.000  H
  H5       1.0000 0.73420  0.04300  0.69610  Biso   1.000  H
  H6       1.0000 0.76580  0.95700  0.19610  Biso   1.000  H
  H7       1.0000 0.26580  0.54300  0.80390  Biso   1.000  H
  H8       1.0000 0.23420  0.45700  0.30390  Biso   1.000  H
  C17      1.0000 0.12840  0.08120  0.26910  Biso   1.000  C
  C18      1.0000 0.37160  0.91880  0.76910  Biso   1.000  C
  C19      1.0000 0.87160  0.58120  0.23090  Biso   1.000  C
  C20      1.0000 0.62840  0.41880  0.73090  Biso   1.000  C
  C21      1.0000 0.87160  0.91880  0.73090  Biso   1.000  C
  C22      1.0000 0.62840  0.08120  0.23090  Biso   1.000  C
  C23      1.0000 0.12840  0.41880  0.76910  Biso   1.000  C
  C24      1.0000 0.37160  0.58120  0.26910  Biso   1.000  C
  H9       1.0000 0.17470  0.04590  0.24670  Biso   1.000  H
  H10      1.0000 0.32530  0.95410  0.74670  Biso   1.000  H
  H11      1.0000 0.82530  0.54590  0.25330  Biso   1.000  H
  H12      1.0000 0.67470  0.45410  0.75330  Biso   1.000  H
  H13      1.0000 0.82530  0.95410  0.75330  Biso   1.000  H
  H14      1.0000 0.67470  0.04590  0.25330  Biso   1.000  H
  H15      1.0000 0.17470  0.45410  0.74670  Biso   1.000  H
  H16      1.0000 0.32530  0.54590  0.24670  Biso   1.000  H
  C25      1.0000 0.00470  0.18910  0.26804  Biso   1.000  C
  C26      1.0000 0.49530  0.81090  0.76804  Biso   1.000  C
  C27      1.0000 0.99530  0.68910  0.23196  Biso   1.000  C
  C28      1.0000 0.50470  0.31090  0.73196  Biso   1.000  C
  C29      1.0000 0.99530  0.81090  0.73196  Biso   1.000  C
  C30      1.0000 0.50470  0.18910  0.23196  Biso   1.000  C
  C31      1.0000 0.00470  0.31090  0.76804  Biso   1.000  C
  C32      1.0000 0.49530  0.68910  0.26804  Biso   1.000  C
  H17      1.0000 0.97120  0.22990  0.24500  Biso   1.000  H
  H18      1.0000 0.52880  0.77010  0.74500  Biso   1.000  H
  H19      1.0000 0.02880  0.72990  0.25500  Biso   1.000  H
  H20      1.0000 0.47120  0.27010  0.75500  Biso   1.000  H
  H21      1.0000 0.02880  0.77010  0.75500  Biso   1.000  H
  H22      1.0000 0.47120  0.22990  0.25500  Biso   1.000  H
  H23      1.0000 0.97120  0.27010  0.74500  Biso   1.000  H
  H24      1.0000 0.52880  0.72990  0.24500  Biso   1.000  H
  C33      1.0000 0.93240  0.23480  0.30134  Biso   1.000  C
  C34      1.0000 0.56760  0.76520  0.80134  Biso   1.000  C
  C35      1.0000 0.06760  0.73480  0.19866  Biso   1.000  C
  C36      1.0000 0.43240  0.26520  0.69866  Biso   1.000  C
  C37      1.0000 0.06760  0.76520  0.69866  Biso   1.000  C
  C38      1.0000 0.43240  0.23480  0.19866  Biso   1.000  C
  C39      1.0000 0.93240  0.26520  0.80134  Biso   1.000  C
  C40      1.0000 0.56760  0.73480  0.30134  Biso   1.000  C
  H25      1.0000 0.84850  0.30580  0.30050  Biso   1.000  H
  H26      1.0000 0.65150  0.69420  0.80050  Biso   1.000  H
  H27      1.0000 0.15150  0.80580  0.19950  Biso   1.000  H
  H28      1.0000 0.34850  0.19420  0.69950  Biso   1.000  H
  H29      1.0000 0.15150  0.69420  0.69950  Biso   1.000  H
  H30      1.0000 0.34850  0.30580  0.19950  Biso   1.000  H
  H31      1.0000 0.84850  0.19420  0.80050  Biso   1.000  H
  H32      1.0000 0.65150  0.80580  0.30050  Biso   1.000  H
  C41      1.0000 0.98170  0.17760  0.33641  Biso   1.000  C
  C42      1.0000 0.51830  0.82240  0.83641  Biso   1.000  C
  C43      1.0000 0.01830  0.67760  0.16359  Biso   1.000  C
  C44      1.0000 0.48170  0.32240  0.66359  Biso   1.000  C
  C45      1.0000 0.01830  0.82240  0.66359  Biso   1.000  C
  C46      1.0000 0.48170  0.17760  0.16359  Biso   1.000  C
  C47      1.0000 0.98170  0.32240  0.83641  Biso   1.000  C
  C48      1.0000 0.51830  0.67760  0.33641  Biso   1.000  C
  C49      1.0000 0.74890  0.24080  0.37425  Biso   1.000  C
  C50      1.0000 0.75110  0.75920  0.87425  Biso   1.000  C
  C51      1.0000 0.25110  0.74080  0.12575  Biso   1.000  C
  C52      1.0000 0.24890  0.25920  0.62575  Biso   1.000  C
  C53      1.0000 0.25110  0.75920  0.62575  Biso   1.000  C
  C54      1.0000 0.24890  0.24080  0.12575  Biso   1.000  C
  C55      1.0000 0.74890  0.25920  0.87425  Biso   1.000  C
  C56      1.0000 0.75110  0.74080  0.37425  Biso   1.000  C
  C57      1.0000 0.62990  0.15920  0.34817  Biso   1.000  C
  C58      1.0000 0.87010  0.84080  0.84817  Biso   1.000  C
  C59      1.0000 0.37010  0.65920  0.15183  Biso   1.000  C
  C60      1.0000 0.12990  0.34080  0.65183  Biso   1.000  C
  C61      1.0000 0.37010  0.84080  0.65183  Biso   1.000  C
  C62      1.0000 0.12990  0.15920  0.15183  Biso   1.000  C
  C63      1.0000 0.62990  0.34080  0.84817  Biso   1.000  C
  C64      1.0000 0.87010  0.65920  0.34817  Biso   1.000  C
  H33      1.0000 0.57990  0.23120  0.33130  Biso   1.000  H
  H34      1.0000 0.92010  0.76880  0.83130  Biso   1.000  H
  H35      1.0000 0.42010  0.73120  0.16870  Biso   1.000  H
  H36      1.0000 0.07990  0.26880  0.66870  Biso   1.000  H
  H37      1.0000 0.42010  0.76880  0.66870  Biso   1.000  H
  H38      1.0000 0.07990  0.23120  0.16870  Biso   1.000  H
  H39      1.0000 0.57990  0.26880  0.83130  Biso   1.000  H
  H40      1.0000 0.92010  0.73120  0.33130  Biso   1.000  H
  H41      1.0000 0.54720  0.11040  0.36310  Biso   1.000  H
  H42      1.0000 0.95280  0.88960  0.86310  Biso   1.000  H
  H43      1.0000 0.45280  0.61040  0.13690  Biso   1.000  H
  H44      1.0000 0.04720  0.38960  0.63690  Biso   1.000  H
  H45      1.0000 0.45280  0.88960  0.63690  Biso   1.000  H
  H46      1.0000 0.04720  0.11040  0.13690  Biso   1.000  H
  H47      1.0000 0.54720  0.38960  0.86310  Biso   1.000  H
  H48      1.0000 0.95280  0.61040  0.36310  Biso   1.000  H
  H49      1.0000 0.68750  0.08430  0.33360  Biso   1.000  H
  H50      1.0000 0.81250  0.91570  0.83360  Biso   1.000  H
  H51      1.0000 0.31250  0.58430  0.16640  Biso   1.000  H
  H52      1.0000 0.18750  0.41570  0.66640  Biso   1.000  H
  H53      1.0000 0.31250  0.91570  0.66640  Biso   1.000  H
  H54      1.0000 0.18750  0.08430  0.16640  Biso   1.000  H
  H55      1.0000 0.68750  0.41570  0.83360  Biso   1.000  H
  H56      1.0000 0.81250  0.58430  0.33360  Biso   1.000  H
  C65      1.0000 0.67560  0.32290  0.40459  Biso   1.000  C
  C66      1.0000 0.82440  0.67710  0.90459  Biso   1.000  C
  C67      1.0000 0.32440  0.82290  0.09541  Biso   1.000  C
  C68      1.0000 0.17560  0.17710  0.59541  Biso   1.000  C
  C69      1.0000 0.32440  0.67710  0.59541  Biso   1.000  C
  C70      1.0000 0.17560  0.32290  0.09541  Biso   1.000  C
  C71      1.0000 0.67560  0.17710  0.90459  Biso   1.000  C
  C72      1.0000 0.82440  0.82290  0.40459  Biso   1.000  C
  H57      1.0000 0.56270  0.31620  0.40670  Biso   1.000  H
  H58      1.0000 0.93730  0.68380  0.90670  Biso   1.000  H
  H59      1.0000 0.43730  0.81620  0.09330  Biso   1.000  H
  H60      1.0000 0.06270  0.18380  0.59330  Biso   1.000  H
  H61      1.0000 0.43730  0.68380  0.59330  Biso   1.000  H
  H62      1.0000 0.06270  0.31620  0.09330  Biso   1.000  H
  H63      1.0000 0.56270  0.18380  0.90670  Biso   1.000  H
  H64      1.0000 0.93730  0.81620  0.40670  Biso   1.000  H
  C73      1.0000 0.75430  0.41100  0.43107  Biso   1.000  C
  C74      1.0000 0.74570  0.58900  0.93107  Biso   1.000  C
  C75      1.0000 0.24570  0.91100  0.06893  Biso   1.000  C
  C76      1.0000 0.25430  0.08900  0.56893  Biso   1.000  C
  C77      1.0000 0.24570  0.58900  0.56893  Biso   1.000  C
  C78      1.0000 0.25430  0.41100  0.06893  Biso   1.000  C
  C79      1.0000 0.75430  0.08900  0.93107  Biso   1.000  C
  C80      1.0000 0.74570  0.91100  0.43107  Biso   1.000  C
  C81      1.0000 0.65800  0.49820  0.45991  Biso   1.000  C
  C82      1.0000 0.84200  0.50180  0.95991  Biso   1.000  C
  C83      1.0000 0.34200  0.99820  0.04009  Biso   1.000  C
  C84      1.0000 0.15800  0.00180  0.54009  Biso   1.000  C
  C85      1.0000 0.34200  0.50180  0.54009  Biso   1.000  C
  C86      1.0000 0.15800  0.49820  0.04009  Biso   1.000  C
  C87      1.0000 0.65800  0.00180  0.95991  Biso   1.000  C
  C88      1.0000 0.84200  0.99820  0.45991  Biso   1.000  C
  H65      1.0000 0.67520  0.45500  0.48460  Biso   1.000  H
  H66      1.0000 0.82480  0.54500  0.98460  Biso   1.000  H
  H67      1.0000 0.32480  0.95500  0.01540  Biso   1.000  H
  H68      1.0000 0.17520  0.04500  0.51540  Biso   1.000  H
  H69      1.0000 0.32480  0.54500  0.51540  Biso   1.000  H
  H70      1.0000 0.17520  0.45500  0.01540  Biso   1.000  H
  H71      1.0000 0.67520  0.04500  0.98460  Biso   1.000  H
  H72      1.0000 0.82480  0.95500  0.48460  Biso   1.000  H
  H73      1.0000 0.54410  0.49330  0.45360  Biso   1.000  H
  H74      1.0000 0.95590  0.50670  0.95360  Biso   1.000  H
  H75      1.0000 0.45590  0.99330  0.04640  Biso   1.000  H
  H76      1.0000 0.04410  0.00670  0.54640  Biso   1.000  H
  H77      1.0000 0.45590  0.50670  0.54640  Biso   1.000  H
  H78      1.0000 0.04410  0.49330  0.04640  Biso   1.000  H
  H79      1.0000 0.54410  0.00670  0.95360  Biso   1.000  H
  H80      1.0000 0.95590  0.99330  0.45360  Biso   1.000  H
  H81      1.0000 0.69300  0.60210  0.45990  Biso   1.000  H
  H82      1.0000 0.80700  0.39790  0.95990  Biso   1.000  H
  H83      1.0000 0.30700  0.10210  0.04010  Biso   1.000  H
  H84      1.0000 0.19300  0.89790  0.54010  Biso   1.000  H
  H85      1.0000 0.30700  0.39790  0.54010  Biso   1.000  H
  H86      1.0000 0.19300  0.60210  0.04010  Biso   1.000  H
  H87      1.0000 0.69300  0.89790  0.95990  Biso   1.000  H
  H88      1.0000 0.80700  0.10210  0.45990  Biso   1.000  H
  C89      1.0000 0.18920  0.01660  0.37355  Biso   1.000  C
  C90      1.0000 0.31080  0.98340  0.87355  Biso   1.000  C
  C91      1.0000 0.81080  0.51660  0.12645  Biso   1.000  C
  C92      1.0000 0.68920  0.48340  0.62645  Biso   1.000  C
  C93      1.0000 0.81080  0.98340  0.62645  Biso   1.000  C
  C94      1.0000 0.68920  0.01660  0.12645  Biso   1.000  C
  C95      1.0000 0.18920  0.48340  0.87355  Biso   1.000  C
  C96      1.0000 0.31080  0.51660  0.37355  Biso   1.000  C
  N1       1.0000 0.90760  0.23180  0.37032  Biso   1.000  N
  N2       1.0000 0.59240  0.76820  0.87032  Biso   1.000  N
  N3       1.0000 0.09240  0.73180  0.12968  Biso   1.000  N
  N4       1.0000 0.40760  0.26820  0.62968  Biso   1.000  N
  N5       1.0000 0.09240  0.76820  0.62968  Biso   1.000  N
  N6       1.0000 0.40760  0.23180  0.12968  Biso   1.000  N
  N7       1.0000 0.90760  0.26820  0.87032  Biso   1.000  N
  N8       1.0000 0.59240  0.73180  0.37032  Biso   1.000  N
  O1       1.0000 0.91130  0.42410  0.43399  Biso   1.000  O
  O2       1.0000 0.58870  0.57590  0.93399  Biso   1.000  O
  O3       1.0000 0.08870  0.92410  0.06601  Biso   1.000  O
  O4       1.0000 0.41130  0.07590  0.56601  Biso   1.000  O
  O5       1.0000 0.08870  0.57590  0.56601  Biso   1.000  O
  O6       1.0000 0.41130  0.42410  0.06601  Biso   1.000  O
  O7       1.0000 0.91130  0.07590  0.93399  Biso   1.000  O
  O8       1.0000 0.58870  0.92410  0.43399  Biso   1.000  O
  O9       1.0000 0.17180  0.08700  0.40485  Biso   1.000  O
  O10      1.0000 0.32820  0.91300  0.90485  Biso   1.000  O
  O11      1.0000 0.82820  0.58700  0.09515  Biso   1.000  O
  O12      1.0000 0.67180  0.41300  0.59515  Biso   1.000  O
  O13      1.0000 0.82820  0.91300  0.59515  Biso   1.000  O
  O14      1.0000 0.67180  0.08700  0.09515  Biso   1.000  O
  O15      1.0000 0.17180  0.41300  0.90485  Biso   1.000  O
  O16      1.0000 0.32820  0.58700  0.40485  Biso   1.000  O
  O17      1.0000 0.27110  0.89810  0.37077  Biso   1.000  O
  O18      1.0000 0.22890  0.10190  0.87077  Biso   1.000  O
  O19      1.0000 0.72890  0.39810  0.12923  Biso   1.000  O
  O20      1.0000 0.77110  0.60190  0.62923  Biso   1.000  O
  O21      1.0000 0.72890  0.10190  0.62923  Biso   1.000  O
  O22      1.0000 0.77110  0.89810  0.12923  Biso   1.000  O
  O23      1.0000 0.27110  0.60190  0.87077  Biso   1.000  O
  O24      1.0000 0.22890  0.39810  0.37077  Biso   1.000  O
  O25      1.0000 0.20980  0.34040  0.45295  Biso   1.000  O
  O26      1.0000 0.29020  0.65960  0.95295  Biso   1.000  O
  O27      1.0000 0.79020  0.84040  0.04705  Biso   1.000  O
  O28      1.0000 0.70980  0.15960  0.54705  Biso   1.000  O
  O29      1.0000 0.79020  0.65960  0.54705  Biso   1.000  O
  O30      1.0000 0.70980  0.34040  0.04705  Biso   1.000  O
  O31      1.0000 0.20980  0.15960  0.95295  Biso   1.000  O
  O32      1.0000 0.29020  0.84040  0.45295  Biso   1.000  O
  H89      1.0000 0.27860  0.28190  0.46030  Biso   1.000  H
  H90      1.0000 0.22140  0.71810  0.96030  Biso   1.000  H
  H91      1.0000 0.72140  0.78190  0.03970  Biso   1.000  H
  H92      1.0000 0.77860  0.21810  0.53970  Biso   1.000  H
  H93      1.0000 0.72140  0.71810  0.53970  Biso   1.000  H
  H94      1.0000 0.77860  0.28190  0.03970  Biso   1.000  H
  H95      1.0000 0.27860  0.21810  0.96030  Biso   1.000  H
  H96      1.0000 0.22140  0.78190  0.46030  Biso   1.000  H
  H97      1.0000 0.20190  0.41850  0.46400  Biso   1.000  H
  H98      1.0000 0.29810  0.58150  0.96400  Biso   1.000  H
  H99      1.0000 0.79810  0.91850  0.03600  Biso   1.000  H
  H100     1.0000 0.70190  0.08150  0.53600  Biso   1.000  H
  H101     1.0000 0.79810  0.58150  0.53600  Biso   1.000  H
  H102     1.0000 0.70190  0.41850  0.03600  Biso   1.000  H
  H103     1.0000 0.20190  0.08150  0.96400  Biso   1.000  H
  H104     1.0000 0.29810  0.91850  0.46400  Biso   1.000  H
  O33      1.0000 0.05190  0.65910  0.47715  Biso   1.000  O
  O34      1.0000 0.44810  0.34090  0.97715  Biso   1.000  O
  O35      1.0000 0.94810  0.15910  0.02285  Biso   1.000  O
  O36      1.0000 0.55190  0.84090  0.52285  Biso   1.000  O
  O37      1.0000 0.94810  0.34090  0.52285  Biso   1.000  O
  O38      1.0000 0.55190  0.65910  0.02285  Biso   1.000  O
  O39      1.0000 0.05190  0.84090  0.97715  Biso   1.000  O
  O40      1.0000 0.44810  0.15910  0.47715  Biso   1.000  O
  H105     1.0000 0.00320  0.59650  0.45900  Biso   1.000  H
  H106     1.0000 0.49680  0.40350  0.95900  Biso   1.000  H
  H107     1.0000 0.99680  0.09650  0.04100  Biso   1.000  H
  H108     1.0000 0.50320  0.90350  0.54100  Biso   1.000  H
  H109     1.0000 0.99680  0.40350  0.54100  Biso   1.000  H
  H110     1.0000 0.50320  0.59650  0.04100  Biso   1.000  H
  H111     1.0000 0.00320  0.90350  0.95900  Biso   1.000  H
  H112     1.0000 0.49680  0.09650  0.45900  Biso   1.000  H
  H113     1.0000 0.00820  0.64770  0.49950  Biso   1.000  H
  H114     1.0000 0.49180  0.35230  0.99950  Biso   1.000  H
  H115     1.0000 0.99180  0.14770  0.00050  Biso   1.000  H
  H116     1.0000 0.50820  0.85230  0.50050  Biso   1.000  H
  H117     1.0000 0.99180  0.35230  0.50050  Biso   1.000  H
  H118     1.0000 0.50820  0.64770  0.00050  Biso   1.000  H
  H119     1.0000 0.00820  0.85230  0.99950  Biso   1.000  H
  H120     1.0000 0.49180  0.14770  0.49950  Biso   1.000  H
