data_image0
_cell_length_a       8.259
_cell_length_b       13.084
_cell_length_c       22.228
_cell_angle_alpha    90
_cell_angle_beta     90.413
_cell_angle_gamma    90

_symmetry_space_group_name_H-M    "P 1"
_symmetry_int_tables_number       1

loop_
  _symmetry_equiv_pos_as_xyz
  'x, y, z'

loop_
  _atom_site_label
  _atom_site_occupancy
  _atom_site_fract_x
  _atom_site_fract_y
  _atom_site_fract_z
  _atom_site_thermal_displace_type
  _atom_site_B_iso_or_equiv
  _atom_site_type_symbol
  Cu1      1.0000 0.50000  0.50000  0.50000  Biso   1.000  Cu
  Cu2      1.0000 0.50000  0.00000  0.00000  Biso   1.000  Cu
  K1       1.0000 0.95570  0.47985  0.82898  Biso   1.000  K
  K2       1.0000 0.04430  0.97985  0.67102  Biso   1.000  K
  K3       1.0000 0.04430  0.52015  0.17102  Biso   1.000  K
  K4       1.0000 0.95570  0.02015  0.32898  Biso   1.000  K
  Cl1      1.0000 0.13900  0.57830  0.43296  Biso   1.000  Cl
  Cl2      1.0000 0.86100  0.07830  0.06704  Biso   1.000  Cl
  Cl3      1.0000 0.86100  0.42170  0.56704  Biso   1.000  Cl
  Cl4      1.0000 0.13900  0.92170  0.93296  Biso   1.000  Cl
  N1       1.0000 0.14850  0.39830  0.72780  Biso   1.000  N
  N2       1.0000 0.85150  0.89830  0.77220  Biso   1.000  N
  N3       1.0000 0.85150  0.60170  0.27220  Biso   1.000  N
  N4       1.0000 0.14850  0.10170  0.22780  Biso   1.000  N
  N5       1.0000 0.22180  0.13390  0.61140  Biso   1.000  N
  N6       1.0000 0.77820  0.63390  0.88860  Biso   1.000  N
  N7       1.0000 0.77820  0.86610  0.38860  Biso   1.000  N
  N8       1.0000 0.22180  0.36610  0.11140  Biso   1.000  N
  O1       1.0000 0.17060  0.47260  0.92590  Biso   1.000  O
  O2       1.0000 0.82940  0.97260  0.57410  Biso   1.000  O
  O3       1.0000 0.82940  0.52740  0.07410  Biso   1.000  O
  O4       1.0000 0.17060  0.02740  0.42590  Biso   1.000  O
  O5       1.0000 0.91500  0.32460  0.91600  Biso   1.000  O
  O6       1.0000 0.08500  0.82460  0.58400  Biso   1.000  O
  O7       1.0000 0.08500  0.67540  0.08400  Biso   1.000  O
  O8       1.0000 0.91500  0.17540  0.41600  Biso   1.000  O
  O9       1.0000 0.65240  0.38770  0.84270  Biso   1.000  O
  O10      1.0000 0.34760  0.88770  0.65730  Biso   1.000  O
  O11      1.0000 0.34760  0.61230  0.15730  Biso   1.000  O
  O12      1.0000 0.65240  0.11230  0.34270  Biso   1.000  O
  O13      1.0000 0.71210  0.50390  0.74380  Biso   1.000  O
  O14      1.0000 0.28790  0.00390  0.75620  Biso   1.000  O
  O15      1.0000 0.28790  0.49610  0.25620  Biso   1.000  O
  O16      1.0000 0.71210  0.99610  0.24380  Biso   1.000  O
  O17      1.0000 0.96630  0.64580  0.75530  Biso   1.000  O
  O18      1.0000 0.03370  0.14580  0.74470  Biso   1.000  O
  O19      1.0000 0.03370  0.35420  0.24470  Biso   1.000  O
  O20      1.0000 0.96630  0.85420  0.25530  Biso   1.000  O
  O21      1.0000 0.22360  0.61210  0.83570  Biso   1.000  O
  O22      1.0000 0.77640  0.11210  0.66430  Biso   1.000  O
  O23      1.0000 0.77640  0.38790  0.16430  Biso   1.000  O
  O24      1.0000 0.22360  0.88790  0.33570  Biso   1.000  O
  S1       1.0000 0.38010  0.51358  0.59435  Biso   1.000  S
  S2       1.0000 0.61990  0.01358  0.90565  Biso   1.000  S
  S3       1.0000 0.61990  0.48642  0.40565  Biso   1.000  S
  S4       1.0000 0.38010  0.98642  0.09435  Biso   1.000  S
  S5       1.0000 0.42270  0.33487  0.52112  Biso   1.000  S
  S6       1.0000 0.57730  0.83487  0.97888  Biso   1.000  S
  S7       1.0000 0.57730  0.66513  0.47888  Biso   1.000  S
  S8       1.0000 0.42270  0.16513  0.02112  Biso   1.000  S
  C1       1.0000 0.18200  0.37470  0.94730  Biso   1.000  C
  C2       1.0000 0.81800  0.87470  0.55270  Biso   1.000  C
  C3       1.0000 0.81800  0.62530  0.05270  Biso   1.000  C
  C4       1.0000 0.18200  0.12530  0.44730  Biso   1.000  C
  H1       1.0000 0.25720  0.37260  0.98100  Biso   1.000  H
  H2       1.0000 0.74280  0.87260  0.51900  Biso   1.000  H
  H3       1.0000 0.74280  0.62740  0.01900  Biso   1.000  H
  H4       1.0000 0.25720  0.12740  0.48100  Biso   1.000  H
  H5       1.0000 0.22300  0.33010  0.91600  Biso   1.000  H
  H6       1.0000 0.77700  0.83010  0.58400  Biso   1.000  H
  H7       1.0000 0.77700  0.66990  0.08400  Biso   1.000  H
  H8       1.0000 0.22300  0.16990  0.41600  Biso   1.000  H
  C5       1.0000 0.02080  0.33850  0.96680  Biso   1.000  C
  C6       1.0000 0.97920  0.83850  0.53320  Biso   1.000  C
  C7       1.0000 0.97920  0.66150  0.03320  Biso   1.000  C
  C8       1.0000 0.02080  0.16150  0.46680  Biso   1.000  C
  H9       1.0000 0.03240  0.27430  0.98810  Biso   1.000  H
  H10      1.0000 0.96760  0.77430  0.51190  Biso   1.000  H
  H11      1.0000 0.96760  0.72570  0.01190  Biso   1.000  H
  H12      1.0000 0.03240  0.22570  0.48810  Biso   1.000  H
  H13      1.0000 0.97390  0.38800  0.99410  Biso   1.000  H
  H14      1.0000 0.02610  0.88800  0.50590  Biso   1.000  H
  H15      1.0000 0.02610  0.61200  0.00590  Biso   1.000  H
  H16      1.0000 0.97390  0.11200  0.49410  Biso   1.000  H
  C9       1.0000 0.74640  0.31010  0.92930  Biso   1.000  C
  C10      1.0000 0.25360  0.81010  0.57070  Biso   1.000  C
  C11      1.0000 0.25360  0.68990  0.07070  Biso   1.000  C
  C12      1.0000 0.74640  0.18990  0.42930  Biso   1.000  C
  H17      1.0000 0.70830  0.36730  0.95300  Biso   1.000  H
  H18      1.0000 0.29170  0.86730  0.54700  Biso   1.000  H
  H19      1.0000 0.29170  0.63270  0.04700  Biso   1.000  H
  H20      1.0000 0.70830  0.13270  0.45300  Biso   1.000  H
  H21      1.0000 0.73400  0.24860  0.95310  Biso   1.000  H
  H22      1.0000 0.26600  0.74860  0.54690  Biso   1.000  H
  H23      1.0000 0.26600  0.75140  0.04690  Biso   1.000  H
  H24      1.0000 0.73400  0.25140  0.45310  Biso   1.000  H
  C13      1.0000 0.64590  0.30140  0.87420  Biso   1.000  C
  C14      1.0000 0.35410  0.80140  0.62580  Biso   1.000  C
  C15      1.0000 0.35410  0.69860  0.12580  Biso   1.000  C
  C16      1.0000 0.64590  0.19860  0.37420  Biso   1.000  C
  H25      1.0000 0.68470  0.24510  0.84990  Biso   1.000  H
  H26      1.0000 0.31530  0.74510  0.65010  Biso   1.000  H
  H27      1.0000 0.31530  0.75490  0.15010  Biso   1.000  H
  H28      1.0000 0.68470  0.25490  0.34990  Biso   1.000  H
  H29      1.0000 0.53460  0.28720  0.88510  Biso   1.000  H
  H30      1.0000 0.46540  0.78720  0.61490  Biso   1.000  H
  H31      1.0000 0.46540  0.71280  0.11490  Biso   1.000  H
  H32      1.0000 0.53460  0.21280  0.38510  Biso   1.000  H
  C17      1.0000 0.54640  0.38680  0.79280  Biso   1.000  C
  C18      1.0000 0.45360  0.88680  0.70720  Biso   1.000  C
  C19      1.0000 0.45360  0.61320  0.20720  Biso   1.000  C
  C20      1.0000 0.54640  0.11320  0.29280  Biso   1.000  C
  H33      1.0000 0.43710  0.37190  0.80580  Biso   1.000  H
  H34      1.0000 0.56290  0.87190  0.69420  Biso   1.000  H
  H35      1.0000 0.56290  0.62810  0.19420  Biso   1.000  H
  H36      1.0000 0.43710  0.12810  0.30580  Biso   1.000  H
  H37      1.0000 0.57910  0.33440  0.76450  Biso   1.000  H
  H38      1.0000 0.42090  0.83440  0.73550  Biso   1.000  H
  H39      1.0000 0.42090  0.66560  0.23550  Biso   1.000  H
  H40      1.0000 0.57910  0.16560  0.26450  Biso   1.000  H
  C21      1.0000 0.55190  0.48700  0.76420  Biso   1.000  C
  C22      1.0000 0.44810  0.98700  0.73580  Biso   1.000  C
  C23      1.0000 0.44810  0.51300  0.23580  Biso   1.000  C
  C24      1.0000 0.55190  0.01300  0.26420  Biso   1.000  C
  H41      1.0000 0.47660  0.48940  0.73050  Biso   1.000  H
  H42      1.0000 0.52340  0.98940  0.76950  Biso   1.000  H
  H43      1.0000 0.52340  0.51060  0.26950  Biso   1.000  H
  H44      1.0000 0.47660  0.01060  0.23050  Biso   1.000  H
  H45      1.0000 0.52170  0.53960  0.79270  Biso   1.000  H
  H46      1.0000 0.47830  0.03960  0.70730  Biso   1.000  H
  H47      1.0000 0.47830  0.46040  0.20730  Biso   1.000  H
  H48      1.0000 0.52170  0.96040  0.29270  Biso   1.000  H
  C25      1.0000 0.71950  0.59780  0.71270  Biso   1.000  C
  C26      1.0000 0.28050  0.09780  0.78730  Biso   1.000  C
  C27      1.0000 0.28050  0.40220  0.28730  Biso   1.000  C
  C28      1.0000 0.71950  0.90220  0.21270  Biso   1.000  C
  H49      1.0000 0.66790  0.65080  0.73630  Biso   1.000  H
  H50      1.0000 0.33210  0.15080  0.76370  Biso   1.000  H
  H51      1.0000 0.33210  0.34920  0.26370  Biso   1.000  H
  H52      1.0000 0.66790  0.84920  0.23630  Biso   1.000  H
  H53      1.0000 0.66180  0.59210  0.67460  Biso   1.000  H
  H54      1.0000 0.33820  0.09210  0.82540  Biso   1.000  H
  H55      1.0000 0.33820  0.40790  0.32540  Biso   1.000  H
  H56      1.0000 0.66180  0.90790  0.17460  Biso   1.000  H
  C29      1.0000 0.89090  0.62580  0.70160  Biso   1.000  C
  C30      1.0000 0.10910  0.12580  0.79840  Biso   1.000  C
  C31      1.0000 0.10910  0.37420  0.29840  Biso   1.000  C
  C32      1.0000 0.89090  0.87420  0.20160  Biso   1.000  C
  H57      1.0000 0.94550  0.57000  0.68140  Biso   1.000  H
  H58      1.0000 0.05450  0.07000  0.81860  Biso   1.000  H
  H59      1.0000 0.05450  0.43000  0.31860  Biso   1.000  H
  H60      1.0000 0.94550  0.93000  0.18140  Biso   1.000  H
  H61      1.0000 0.89560  0.68560  0.67590  Biso   1.000  H
  H62      1.0000 0.10440  0.18560  0.82410  Biso   1.000  H
  H63      1.0000 0.10440  0.31440  0.32410  Biso   1.000  H
  H64      1.0000 0.89560  0.81440  0.17590  Biso   1.000  H
  C33      1.0000 0.12120  0.68810  0.74910  Biso   1.000  C
  C34      1.0000 0.87880  0.18810  0.75090  Biso   1.000  C
  C35      1.0000 0.87880  0.31190  0.25090  Biso   1.000  C
  C36      1.0000 0.12120  0.81190  0.24910  Biso   1.000  C
  H65      1.0000 0.11410  0.75170  0.72680  Biso   1.000  H
  H66      1.0000 0.88590  0.25170  0.77320  Biso   1.000  H
  H67      1.0000 0.88590  0.24830  0.27320  Biso   1.000  H
  H68      1.0000 0.11410  0.74830  0.22680  Biso   1.000  H
  H69      1.0000 0.18950  0.64140  0.72680  Biso   1.000  H
  H70      1.0000 0.81050  0.14140  0.77320  Biso   1.000  H
  H71      1.0000 0.81050  0.35860  0.27320  Biso   1.000  H
  H72      1.0000 0.18950  0.85860  0.22680  Biso   1.000  H
  C37      1.0000 0.19040  0.70660  0.80720  Biso   1.000  C
  C38      1.0000 0.80960  0.20660  0.69280  Biso   1.000  C
  C39      1.0000 0.80960  0.29340  0.19280  Biso   1.000  C
  C40      1.0000 0.19040  0.79340  0.30720  Biso   1.000  C
  H73      1.0000 0.28960  0.74560  0.80320  Biso   1.000  H
  H74      1.0000 0.71040  0.24560  0.69680  Biso   1.000  H
  H75      1.0000 0.71040  0.25440  0.19680  Biso   1.000  H
  H76      1.0000 0.28960  0.75440  0.30320  Biso   1.000  H
  H77      1.0000 0.11560  0.74600  0.83130  Biso   1.000  H
  H78      1.0000 0.88440  0.24600  0.66870  Biso   1.000  H
  H79      1.0000 0.88440  0.25400  0.16870  Biso   1.000  H
  H80      1.0000 0.11560  0.75400  0.33130  Biso   1.000  H
  C41      1.0000 0.29110  0.62210  0.89120  Biso   1.000  C
  C42      1.0000 0.70890  0.12210  0.60880  Biso   1.000  C
  C43      1.0000 0.70890  0.37790  0.10880  Biso   1.000  C
  C44      1.0000 0.29110  0.87790  0.39120  Biso   1.000  C
  H81      1.0000 0.21890  0.66090  0.91670  Biso   1.000  H
  H82      1.0000 0.78110  0.16090  0.58330  Biso   1.000  H
  H83      1.0000 0.78110  0.33910  0.08330  Biso   1.000  H
  H84      1.0000 0.21890  0.83910  0.41670  Biso   1.000  H
  H85      1.0000 0.39210  0.65960  0.88810  Biso   1.000  H
  H86      1.0000 0.60790  0.15960  0.61190  Biso   1.000  H
  H87      1.0000 0.60790  0.34040  0.11190  Biso   1.000  H
  H88      1.0000 0.39210  0.84040  0.38810  Biso   1.000  H
  C45      1.0000 0.32220  0.52180  0.91840  Biso   1.000  C
  C46      1.0000 0.67780  0.02180  0.58160  Biso   1.000  C
  C47      1.0000 0.67780  0.47820  0.08160  Biso   1.000  C
  C48      1.0000 0.32220  0.97820  0.41840  Biso   1.000  C
  H89      1.0000 0.39130  0.48130  0.89250  Biso   1.000  H
  H90      1.0000 0.60870  0.98130  0.60750  Biso   1.000  H
  H91      1.0000 0.60870  0.51870  0.10750  Biso   1.000  H
  H92      1.0000 0.39130  0.01870  0.39250  Biso   1.000  H
  H93      1.0000 0.37610  0.52990  0.95700  Biso   1.000  H
  H94      1.0000 0.62390  0.02990  0.54300  Biso   1.000  H
  H95      1.0000 0.62390  0.47010  0.04300  Biso   1.000  H
  H96      1.0000 0.37610  0.97010  0.45700  Biso   1.000  H
  C49      1.0000 0.34730  0.38310  0.58890  Biso   1.000  C
  C50      1.0000 0.65270  0.88310  0.91110  Biso   1.000  C
  C51      1.0000 0.65270  0.61690  0.41110  Biso   1.000  C
  C52      1.0000 0.34730  0.11690  0.08890  Biso   1.000  C
  C53      1.0000 0.26770  0.32430  0.63150  Biso   1.000  C
  C54      1.0000 0.73230  0.82430  0.86850  Biso   1.000  C
  C55      1.0000 0.73230  0.67570  0.36850  Biso   1.000  C
  C56      1.0000 0.26770  0.17570  0.13150  Biso   1.000  C
  C57      1.0000 0.20290  0.36870  0.68600  Biso   1.000  C
  C58      1.0000 0.79710  0.86870  0.81400  Biso   1.000  C
  C59      1.0000 0.79710  0.63130  0.31400  Biso   1.000  C
  C60      1.0000 0.20290  0.13130  0.18600  Biso   1.000  C
  C61      1.0000 0.24460  0.21830  0.61940  Biso   1.000  C
  C62      1.0000 0.75540  0.71830  0.88060  Biso   1.000  C
  C63      1.0000 0.75540  0.78170  0.38060  Biso   1.000  C
  C64      1.0000 0.24460  0.28170  0.11940  Biso   1.000  C
  C65      1.0000 0.03170  0.47610  0.47370  Biso   1.000  C
  C66      1.0000 0.96830  0.97610  0.02630  Biso   1.000  C
  C67      1.0000 0.96830  0.52390  0.52630  Biso   1.000  C
  C68      1.0000 0.03170  0.02390  0.97370  Biso   1.000  C
  H97      1.0000 0.94480  0.44810  0.44910  Biso   1.000  H
  H98      1.0000 0.05520  0.94810  0.05090  Biso   1.000  H
  H99      1.0000 0.05520  0.55190  0.55090  Biso   1.000  H
  H100     1.0000 0.94480  0.05190  0.94910  Biso   1.000  H
  H101     1.0000 0.10550  0.42130  0.48450  Biso   1.000  H
  H102     1.0000 0.89450  0.92130  0.01550  Biso   1.000  H
  H103     1.0000 0.89450  0.57870  0.51550  Biso   1.000  H
  H104     1.0000 0.10550  0.07870  0.98450  Biso   1.000  H
