data_image0
_cell_length_a       13.691
_cell_length_b       6.245
_cell_length_c       10.298
_cell_angle_alpha    90
_cell_angle_beta     103.92
_cell_angle_gamma    90

_symmetry_space_group_name_H-M    "P 1"
_symmetry_int_tables_number       1

loop_
  _symmetry_equiv_pos_as_xyz
  'x, y, z'

loop_
  _atom_site_label
  _atom_site_occupancy
  _atom_site_fract_x
  _atom_site_fract_y
  _atom_site_fract_z
  _atom_site_thermal_displace_type
  _atom_site_B_iso_or_equiv
  _atom_site_type_symbol
  Cu1      1.0000 0.53010  0.87430  0.30030  Biso   1.000  Cu
  Cu2      1.0000 0.03010  0.12570  0.80030  Biso   1.000  Cu
  Cu3      1.0000 0.63720  0.29840  0.18090  Biso   1.000  Cu
  Cu4      1.0000 0.13720  0.70160  0.68090  Biso   1.000  Cu
  Br1      1.0000 0.68400  0.60050  0.34570  Biso   1.000  Br
  Br2      1.0000 0.18400  0.39950  0.84570  Biso   1.000  Br
  Br3      1.0000 0.46470  0.95610  0.48850  Biso   1.000  Br
  Br4      1.0000 0.96470  0.04390  0.98850  Biso   1.000  Br
  Br5      1.0000 0.81600  0.10050  0.15430  Biso   1.000  Br
  Br6      1.0000 0.31600  0.89950  0.65430  Biso   1.000  Br
  O1       1.0000 0.60850  0.13140  0.31690  Biso   1.000  O
  O2       1.0000 0.10850  0.86860  0.81690  Biso   1.000  O
  N1       1.0000 0.42890  0.64100  0.22460  Biso   1.000  N
  N2       1.0000 0.92890  0.35900  0.72460  Biso   1.000  N
  N3       1.0000 0.50470  0.93820  0.10420  Biso   1.000  N
  N4       1.0000 0.00470  0.06180  0.60420  Biso   1.000  N
  N5       1.0000 0.54700  0.08520  0.05560  Biso   1.000  N
  N6       1.0000 0.04700  0.91480  0.55560  Biso   1.000  N
  N7       1.0000 0.63000  0.44760  0.00860  Biso   1.000  N
  N8       1.0000 0.13000  0.55240  0.50860  Biso   1.000  N
  C1       1.0000 0.39710  0.48620  0.29570  Biso   1.000  C
  C2       1.0000 0.89710  0.51380  0.79570  Biso   1.000  C
  C3       1.0000 0.33460  0.32860  0.23730  Biso   1.000  C
  C4       1.0000 0.83460  0.67140  0.73730  Biso   1.000  C
  C5       1.0000 0.30840  0.32240  0.10040  Biso   1.000  C
  C6       1.0000 0.80840  0.67760  0.60040  Biso   1.000  C
  C7       1.0000 0.33890  0.46390  0.02610  Biso   1.000  C
  C8       1.0000 0.83890  0.53610  0.52610  Biso   1.000  C
  C9       1.0000 0.40130  0.62130  0.07880  Biso   1.000  C
  C10      1.0000 0.90130  0.37870  0.57880  Biso   1.000  C
  C11      1.0000 0.44660  0.78560  0.01520  Biso   1.000  C
  C12      1.0000 0.94660  0.21440  0.51520  Biso   1.000  C
  C13      1.0000 0.42550  0.82950  0.88210  Biso   1.000  C
  C14      1.0000 0.92550  0.17050  0.38210  Biso   1.000  C
  C15      1.0000 0.47140  0.99780  0.82740  Biso   1.000  C
  C16      1.0000 0.97140  0.00220  0.32740  Biso   1.000  C
  C17      1.0000 0.53120  0.13380  0.92440  Biso   1.000  C
  C18      1.0000 0.03120  0.86620  0.42440  Biso   1.000  C
  C19      1.0000 0.58400  0.32480  0.88890  Biso   1.000  C
  C20      1.0000 0.08400  0.67520  0.38890  Biso   1.000  C
  C21      1.0000 0.58260  0.39010  0.76050  Biso   1.000  C
  C22      1.0000 0.08260  0.60990  0.26050  Biso   1.000  C
  C23      1.0000 0.63160  0.59060  0.75250  Biso   1.000  C
  C24      1.0000 0.13160  0.40940  0.25250  Biso   1.000  C
  C25      1.0000 0.68220  0.70230  0.85890  Biso   1.000  C
  C26      1.0000 0.18220  0.29770  0.35890  Biso   1.000  C
  C27      1.0000 0.67980  0.61920  0.97600  Biso   1.000  C
  C28      1.0000 0.17980  0.38080  0.47600  Biso   1.000  C
