data_image0
_cell_length_a       4.9593
_cell_length_b       9.8973
_cell_length_c       10.4697
_cell_angle_alpha    94.237
_cell_angle_beta     94.955
_cell_angle_gamma    97.353

_symmetry_space_group_name_H-M    "P 1"
_symmetry_int_tables_number       1

loop_
  _symmetry_equiv_pos_as_xyz
  'x, y, z'

loop_
  _atom_site_label
  _atom_site_occupancy
  _atom_site_fract_x
  _atom_site_fract_y
  _atom_site_fract_z
  _atom_site_thermal_displace_type
  _atom_site_B_iso_or_equiv
  _atom_site_type_symbol
  Cu1      1.0000 0.00000  0.00000  0.50000  Biso   1.000  Cu
  O1       1.0000 0.29780  0.97250  0.62860  Biso   1.000  O
  O2       1.0000 0.70220  0.02750  0.37140  Biso   1.000  O
  O3       1.0000 0.13580  0.85130  0.32660  Biso   1.000  O
  O4       1.0000 0.86420  0.14870  0.67340  Biso   1.000  O
  Cu2      1.0000 0.50000  0.00000  0.00000  Biso   1.000  Cu
  O5       1.0000 0.37390  0.17000  0.94930  Biso   1.000  O
  O6       1.0000 0.62610  0.83000  0.05070  Biso   1.000  O
  O7       1.0000 0.23790  0.98940  0.12290  Biso   1.000  O
  O8       1.0000 0.76210  0.01060  0.87710  Biso   1.000  O
  O9       1.0000 0.53680  0.28690  0.27550  Biso   1.000  O
  O10      1.0000 0.46320  0.71310  0.72450  Biso   1.000  O
  C1       1.0000 0.37740  0.35630  0.34760  Biso   1.000  C
  C2       1.0000 0.62260  0.64370  0.65240  Biso   1.000  C
  C3       1.0000 0.20550  0.26830  0.43030  Biso   1.000  C
  C4       1.0000 0.79450  0.73170  0.56970  Biso   1.000  C
  O11      1.0000 0.25280  0.14420  0.43370  Biso   1.000  O
  O12      1.0000 0.74720  0.85580  0.56630  Biso   1.000  O
  O13      1.0000 0.03230  0.32310  0.48460  Biso   1.000  O
  O14      1.0000 0.96770  0.67690  0.51540  Biso   1.000  O
  C5       1.0000 0.37020  0.49240  0.34460  Biso   1.000  C
  C6       1.0000 0.62980  0.50760  0.65540  Biso   1.000  C
  C7       1.0000 0.53890  0.57000  0.26430  Biso   1.000  C
  C8       1.0000 0.46110  0.43000  0.73570  Biso   1.000  C
  O15      1.0000 0.54660  0.69750  0.26340  Biso   1.000  O
  O16      1.0000 0.45340  0.30250  0.73660  Biso   1.000  O
  C9       1.0000 0.70430  0.49220  0.18750  Biso   1.000  C
  C10      1.0000 0.29570  0.50780  0.81250  Biso   1.000  C
  C11      1.0000 0.69900  0.35710  0.19810  Biso   1.000  C
  C12      1.0000 0.30100  0.64290  0.80190  Biso   1.000  C
  C13      1.0000 0.87650  0.26730  0.12890  Biso   1.000  C
  C14      1.0000 0.12350  0.73270  0.87110  Biso   1.000  C
  O17      1.0000 0.85560  0.14420  0.15770  Biso   1.000  O
  O18      1.0000 0.14440  0.85580  0.84230  Biso   1.000  O
  O19      1.0000 0.02740  0.32100  0.05450  Biso   1.000  O
  O20      1.0000 0.97260  0.67900  0.94550  Biso   1.000  O
  H1       1.0000 0.44420  0.93850  0.60640  Biso   1.000  H
  H2       1.0000 0.55580  0.06150  0.39360  Biso   1.000  H
  H3       1.0000 0.25310  0.93040  0.69630  Biso   1.000  H
  H4       1.0000 0.74690  0.06960  0.30370  Biso   1.000  H
  H5       1.0000 0.97970  0.79720  0.30910  Biso   1.000  H
  H6       1.0000 0.02030  0.20280  0.69090  Biso   1.000  H
  H7       1.0000 0.28080  0.80970  0.34010  Biso   1.000  H
  H8       1.0000 0.71920  0.19030  0.65990  Biso   1.000  H
  H9       1.0000 0.23060  0.20250  0.97710  Biso   1.000  H
  H10      1.0000 0.76940  0.79750  0.02290  Biso   1.000  H
  H11      1.0000 0.42150  0.20720  0.87940  Biso   1.000  H
  H12      1.0000 0.57850  0.79280  0.12060  Biso   1.000  H
  H13      1.0000 0.10920  0.04280  0.12540  Biso   1.000  H
  H14      1.0000 0.89080  0.95720  0.87460  Biso   1.000  H
  H15      1.0000 0.19850  0.92870  0.17810  Biso   1.000  H
  H16      1.0000 0.80150  0.07130  0.82190  Biso   1.000  H
  H17      1.0000 0.25270  0.53640  0.39590  Biso   1.000  H
  H18      1.0000 0.74730  0.46360  0.60410  Biso   1.000  H
  H19      1.0000 0.81650  0.53640  0.12960  Biso   1.000  H
  H20      1.0000 0.18350  0.46360  0.87040  Biso   1.000  H
