data_image0
_cell_length_a       11.29
_cell_length_b       8.685
_cell_length_c       16.799
_cell_angle_alpha    90
_cell_angle_beta     105.598
_cell_angle_gamma    90

_symmetry_space_group_name_H-M    "P 1"
_symmetry_int_tables_number       1

loop_
  _symmetry_equiv_pos_as_xyz
  'x, y, z'

loop_
  _atom_site_label
  _atom_site_occupancy
  _atom_site_fract_x
  _atom_site_fract_y
  _atom_site_fract_z
  _atom_site_thermal_displace_type
  _atom_site_B_iso_or_equiv
  _atom_site_type_symbol
  Cu1      1.0000 0.62624  0.22907  0.87821  Biso   1.000  Cu
  Cu2      1.0000 0.37376  0.72907  0.62179  Biso   1.000  Cu
  Cu3      1.0000 0.37376  0.77093  0.12179  Biso   1.000  Cu
  Cu4      1.0000 0.62624  0.27093  0.37821  Biso   1.000  Cu
  N1       1.0000 0.67260  0.32390  0.98980  Biso   1.000  N
  N2       1.0000 0.32740  0.82390  0.51020  Biso   1.000  N
  N3       1.0000 0.32740  0.67610  0.01020  Biso   1.000  N
  N4       1.0000 0.67260  0.17610  0.48980  Biso   1.000  N
  C1       1.0000 0.57830  0.32160  0.02310  Biso   1.000  C
  C2       1.0000 0.42170  0.82160  0.47690  Biso   1.000  C
  C3       1.0000 0.42170  0.67840  0.97690  Biso   1.000  C
  C4       1.0000 0.57830  0.17840  0.52310  Biso   1.000  C
  N5       1.0000 0.60670  0.39720  0.09530  Biso   1.000  N
  N6       1.0000 0.39330  0.89720  0.40470  Biso   1.000  N
  N7       1.0000 0.39330  0.60280  0.90470  Biso   1.000  N
  N8       1.0000 0.60670  0.10280  0.59530  Biso   1.000  N
  H1       1.0000 0.55930  0.41040  0.12720  Biso   1.000  H
  H2       1.0000 0.44070  0.91040  0.37280  Biso   1.000  H
  H3       1.0000 0.44070  0.58960  0.87280  Biso   1.000  H
  H4       1.0000 0.55930  0.08960  0.62720  Biso   1.000  H
  C5       1.0000 0.72360  0.44900  0.10890  Biso   1.000  C
  C6       1.0000 0.27640  0.94900  0.39110  Biso   1.000  C
  C7       1.0000 0.27640  0.55100  0.89110  Biso   1.000  C
  C8       1.0000 0.72360  0.05100  0.60890  Biso   1.000  C
  H5       1.0000 0.76770  0.50490  0.15450  Biso   1.000  H
  H6       1.0000 0.23230  0.00490  0.34550  Biso   1.000  H
  H7       1.0000 0.23230  0.49510  0.84550  Biso   1.000  H
  H8       1.0000 0.76770  0.99510  0.65450  Biso   1.000  H
  C9       1.0000 0.76440  0.40360  0.04270  Biso   1.000  C
  C10      1.0000 0.23560  0.90360  0.45730  Biso   1.000  C
  C11      1.0000 0.23560  0.59640  0.95730  Biso   1.000  C
  C12      1.0000 0.76440  0.09640  0.54270  Biso   1.000  C
  H9       1.0000 0.84160  0.42380  0.03530  Biso   1.000  H
  H10      1.0000 0.15840  0.92380  0.46470  Biso   1.000  H
  H11      1.0000 0.15840  0.57620  0.96470  Biso   1.000  H
  H12      1.0000 0.84160  0.07620  0.53530  Biso   1.000  H
  C13      1.0000 0.46770  0.24270  0.97950  Biso   1.000  C
  C14      1.0000 0.53230  0.74270  0.52050  Biso   1.000  C
  C15      1.0000 0.53230  0.75730  0.02050  Biso   1.000  C
  C16      1.0000 0.46770  0.25730  0.47950  Biso   1.000  C
  H13      1.0000 0.39990  0.23280  0.00060  Biso   1.000  H
  H14      1.0000 0.60010  0.73280  0.49940  Biso   1.000  H
  H15      1.0000 0.60010  0.76720  0.99940  Biso   1.000  H
  H16      1.0000 0.39990  0.26720  0.50060  Biso   1.000  H
  N9       1.0000 0.47010  0.18750  0.90990  Biso   1.000  N
  N10      1.0000 0.52990  0.68750  0.59010  Biso   1.000  N
  N11      1.0000 0.52990  0.81250  0.09010  Biso   1.000  N
  N12      1.0000 0.47010  0.31250  0.40990  Biso   1.000  N
  C17      1.0000 0.36580  0.10580  0.85620  Biso   1.000  C
  C18      1.0000 0.63420  0.60580  0.64380  Biso   1.000  C
  C19      1.0000 0.63420  0.89420  0.14380  Biso   1.000  C
  C20      1.0000 0.36580  0.39420  0.35620  Biso   1.000  C
  H17      1.0000 0.31460  0.17790  0.81780  Biso   1.000  H
  H18      1.0000 0.68540  0.67790  0.68220  Biso   1.000  H
  H19      1.0000 0.68540  0.82210  0.18220  Biso   1.000  H
  H20      1.0000 0.31460  0.32210  0.31780  Biso   1.000  H
  H21      1.0000 0.31640  0.06080  0.88930  Biso   1.000  H
  H22      1.0000 0.68360  0.56080  0.61070  Biso   1.000  H
  H23      1.0000 0.68360  0.93920  0.11070  Biso   1.000  H
  H24      1.0000 0.31640  0.43920  0.38930  Biso   1.000  H
  C21      1.0000 0.40950  0.98030  0.80840  Biso   1.000  C
  C22      1.0000 0.59050  0.48030  0.69160  Biso   1.000  C
  C23      1.0000 0.59050  0.01970  0.19160  Biso   1.000  C
  C24      1.0000 0.40950  0.51970  0.30840  Biso   1.000  C
  H25      1.0000 0.33870  0.92170  0.77790  Biso   1.000  H
  H26      1.0000 0.66130  0.42170  0.72210  Biso   1.000  H
  H27      1.0000 0.66130  0.07830  0.22210  Biso   1.000  H
  H28      1.0000 0.33870  0.57830  0.27790  Biso   1.000  H
  H29      1.0000 0.46240  0.91090  0.84750  Biso   1.000  H
  H30      1.0000 0.53760  0.41090  0.65250  Biso   1.000  H
  H31      1.0000 0.53760  0.08910  0.15250  Biso   1.000  H
  H32      1.0000 0.46240  0.58910  0.34750  Biso   1.000  H
  C25      1.0000 0.47900  0.03750  0.74810  Biso   1.000  C
  C26      1.0000 0.52100  0.53750  0.75190  Biso   1.000  C
  C27      1.0000 0.52100  0.96250  0.25190  Biso   1.000  C
  C28      1.0000 0.47900  0.46250  0.24810  Biso   1.000  C
  O1       1.0000 0.56070  0.13900  0.77010  Biso   1.000  O
  O2       1.0000 0.43930  0.63900  0.72990  Biso   1.000  O
  O3       1.0000 0.43930  0.86100  0.22990  Biso   1.000  O
  O4       1.0000 0.56070  0.36100  0.27010  Biso   1.000  O
  O5       1.0000 0.45600  0.97850  0.67840  Biso   1.000  O
  O6       1.0000 0.54400  0.47850  0.82160  Biso   1.000  O
  O7       1.0000 0.54400  0.02150  0.32160  Biso   1.000  O
  O8       1.0000 0.45600  0.52150  0.17840  Biso   1.000  O
  C29      1.0000 0.95780  0.27740  0.80670  Biso   1.000  C
  C30      1.0000 0.04220  0.77740  0.69330  Biso   1.000  C
  C31      1.0000 0.04220  0.72260  0.19330  Biso   1.000  C
  C32      1.0000 0.95780  0.22260  0.30670  Biso   1.000  C
  F1       1.0000 0.89800  0.34110  0.73610  Biso   1.000  F
  F2       1.0000 0.10200  0.84110  0.76390  Biso   1.000  F
  F3       1.0000 0.10200  0.65890  0.26390  Biso   1.000  F
  F4       1.0000 0.89800  0.15890  0.23610  Biso   1.000  F
  F5       1.0000 0.00070  0.37610  0.83560  Biso   1.000  F
  F6       1.0000 0.99930  0.87610  0.66440  Biso   1.000  F
  F7       1.0000 0.99930  0.62390  0.16440  Biso   1.000  F
  F8       1.0000 0.00070  0.12390  0.33560  Biso   1.000  F
  F9       1.0000 0.03820  0.19160  0.78710  Biso   1.000  F
  F10      1.0000 0.96180  0.69160  0.71290  Biso   1.000  F
  F11      1.0000 0.96180  0.80840  0.21290  Biso   1.000  F
  F12      1.0000 0.03820  0.30840  0.28710  Biso   1.000  F
  F13      1.0000 0.91460  0.29970  0.72920  Biso   1.000  F
  F14      1.0000 0.08540  0.79970  0.77080  Biso   1.000  F
  F15      1.0000 0.08540  0.70030  0.27080  Biso   1.000  F
  F16      1.0000 0.91460  0.20030  0.22920  Biso   1.000  F
  F17      1.0000 0.99680  0.41090  0.85070  Biso   1.000  F
  F18      1.0000 0.00320  0.91090  0.64930  Biso   1.000  F
  F19      1.0000 0.00320  0.58910  0.14930  Biso   1.000  F
  F20      1.0000 0.99680  0.08910  0.35070  Biso   1.000  F
  F21      1.0000 0.06380  0.20330  0.82360  Biso   1.000  F
  F22      1.0000 0.93620  0.70330  0.67640  Biso   1.000  F
  F23      1.0000 0.93620  0.79670  0.17640  Biso   1.000  F
  F24      1.0000 0.06380  0.29670  0.32360  Biso   1.000  F
  C33      1.0000 0.86540  0.19310  0.84500  Biso   1.000  C
  C34      1.0000 0.13460  0.69310  0.65500  Biso   1.000  C
  C35      1.0000 0.13460  0.80690  0.15500  Biso   1.000  C
  C36      1.0000 0.86540  0.30690  0.34500  Biso   1.000  C
  O9       1.0000 0.78210  0.28130  0.85330  Biso   1.000  O
  O10      1.0000 0.21790  0.78130  0.64670  Biso   1.000  O
  O11      1.0000 0.21790  0.71870  0.14670  Biso   1.000  O
  O12      1.0000 0.78210  0.21870  0.35330  Biso   1.000  O
  C37      1.0000 0.88420  0.03950  0.86310  Biso   1.000  C
  C38      1.0000 0.11580  0.53950  0.63690  Biso   1.000  C
  C39      1.0000 0.11580  0.96050  0.13690  Biso   1.000  C
  C40      1.0000 0.88420  0.46050  0.36310  Biso   1.000  C
  H33      1.0000 0.94940  0.99110  0.84920  Biso   1.000  H
  H34      1.0000 0.05060  0.49110  0.65080  Biso   1.000  H
  H35      1.0000 0.05060  0.00890  0.15080  Biso   1.000  H
  H36      1.0000 0.94940  0.50890  0.34920  Biso   1.000  H
  C41      1.0000 0.81120  0.95100  0.90110  Biso   1.000  C
  C42      1.0000 0.18880  0.45100  0.59890  Biso   1.000  C
  C43      1.0000 0.18880  0.04900  0.09890  Biso   1.000  C
  C44      1.0000 0.81120  0.54900  0.40110  Biso   1.000  C
  O13      1.0000 0.72030  0.99060  0.92370  Biso   1.000  O
  O14      1.0000 0.27970  0.49060  0.57630  Biso   1.000  O
  O15      1.0000 0.27970  0.00940  0.07630  Biso   1.000  O
  O16      1.0000 0.72030  0.50940  0.42370  Biso   1.000  O
  C45      1.0000 0.84410  0.77900  0.91320  Biso   1.000  C
  C46      1.0000 0.15590  0.27900  0.58680  Biso   1.000  C
  C47      1.0000 0.15590  0.22100  0.08680  Biso   1.000  C
  C48      1.0000 0.84410  0.72100  0.41320  Biso   1.000  C
  F25      1.0000 0.78430  0.70400  0.95300  Biso   1.000  F
  F26      1.0000 0.21570  0.20400  0.54700  Biso   1.000  F
  F27      1.0000 0.21570  0.29600  0.04700  Biso   1.000  F
  F28      1.0000 0.78430  0.79600  0.45300  Biso   1.000  F
  F29      1.0000 0.96390  0.76180  0.95110  Biso   1.000  F
  F30      1.0000 0.03610  0.26180  0.54890  Biso   1.000  F
  F31      1.0000 0.03610  0.23820  0.04890  Biso   1.000  F
  F32      1.0000 0.96390  0.73820  0.45110  Biso   1.000  F
  F33      1.0000 0.83230  0.71280  0.83850  Biso   1.000  F
  F34      1.0000 0.16770  0.21280  0.66150  Biso   1.000  F
  F35      1.0000 0.16770  0.28720  0.16150  Biso   1.000  F
  F36      1.0000 0.83230  0.78720  0.33850  Biso   1.000  F
  F37      1.0000 0.95040  0.74350  0.91020  Biso   1.000  F
  F38      1.0000 0.04960  0.24350  0.58980  Biso   1.000  F
  F39      1.0000 0.04960  0.25650  0.08980  Biso   1.000  F
  F40      1.0000 0.95040  0.75650  0.41020  Biso   1.000  F
  F41      1.0000 0.76340  0.69430  0.88000  Biso   1.000  F
  F42      1.0000 0.23660  0.19430  0.62000  Biso   1.000  F
  F43      1.0000 0.23660  0.30570  0.12000  Biso   1.000  F
  F44      1.0000 0.76340  0.80570  0.38000  Biso   1.000  F
  F45      1.0000 0.85720  0.75430  0.99620  Biso   1.000  F
  F46      1.0000 0.14280  0.25430  0.50380  Biso   1.000  F
  F47      1.0000 0.14280  0.24570  0.00380  Biso   1.000  F
  F48      1.0000 0.85720  0.74570  0.49620  Biso   1.000  F
