data_image0
_cell_length_a       17.3392
_cell_length_b       11.4434
_cell_length_c       6.7896
_cell_angle_alpha    90
_cell_angle_beta     90
_cell_angle_gamma    90

_symmetry_space_group_name_H-M    "P 1"
_symmetry_int_tables_number       1

loop_
  _symmetry_equiv_pos_as_xyz
  'x, y, z'

loop_
  _atom_site_label
  _atom_site_occupancy
  _atom_site_fract_x
  _atom_site_fract_y
  _atom_site_fract_z
  _atom_site_thermal_displace_type
  _atom_site_B_iso_or_equiv
  _atom_site_type_symbol
  Cu1      1.0000 0.94099  0.77612  0.38903  Biso   1.000  Cu
  Cu2      1.0000 0.05901  0.22388  0.88903  Biso   1.000  Cu
  Cu3      1.0000 0.55901  0.27612  0.88903  Biso   1.000  Cu
  Cu4      1.0000 0.44099  0.72388  0.38903  Biso   1.000  Cu
  N1       1.0000 0.83084  0.77440  0.42440  Biso   1.000  N
  N2       1.0000 0.16916  0.22560  0.92440  Biso   1.000  N
  N3       1.0000 0.66916  0.27440  0.92440  Biso   1.000  N
  N4       1.0000 0.33084  0.72560  0.42440  Biso   1.000  N
  C1       1.0000 0.80190  0.82780  0.58420  Biso   1.000  C
  C2       1.0000 0.19810  0.17220  0.08420  Biso   1.000  C
  C3       1.0000 0.69810  0.32780  0.08420  Biso   1.000  C
  C4       1.0000 0.30190  0.67220  0.58420  Biso   1.000  C
  C5       1.0000 0.72350  0.82960  0.61770  Biso   1.000  C
  C6       1.0000 0.27650  0.17040  0.11770  Biso   1.000  C
  C7       1.0000 0.77650  0.32960  0.11770  Biso   1.000  C
  C8       1.0000 0.22350  0.67040  0.61770  Biso   1.000  C
  H1       1.0000 0.70280  0.86550  0.73220  Biso   1.000  H
  H2       1.0000 0.29720  0.13450  0.23220  Biso   1.000  H
  H3       1.0000 0.79720  0.36550  0.23220  Biso   1.000  H
  H4       1.0000 0.20280  0.63450  0.73220  Biso   1.000  H
  C9       1.0000 0.67540  0.77740  0.47900  Biso   1.000  C
  C10      1.0000 0.32460  0.22260  0.97900  Biso   1.000  C
  C11      1.0000 0.82460  0.27740  0.97900  Biso   1.000  C
  C12      1.0000 0.17540  0.72260  0.47900  Biso   1.000  C
  C13      1.0000 0.70600  0.72230  0.31450  Biso   1.000  C
  C14      1.0000 0.29400  0.27770  0.81450  Biso   1.000  C
  C15      1.0000 0.79400  0.22230  0.81450  Biso   1.000  C
  C16      1.0000 0.20600  0.77770  0.31450  Biso   1.000  C
  H5       1.0000 0.67330  0.68630  0.21990  Biso   1.000  H
  H6       1.0000 0.32670  0.31370  0.71990  Biso   1.000  H
  H7       1.0000 0.82670  0.18630  0.71990  Biso   1.000  H
  H8       1.0000 0.17330  0.81370  0.21990  Biso   1.000  H
  C17      1.0000 0.78620  0.72130  0.29180  Biso   1.000  C
  C18      1.0000 0.21380  0.27870  0.79180  Biso   1.000  C
  C19      1.0000 0.71380  0.22130  0.79180  Biso   1.000  C
  C20      1.0000 0.28620  0.77870  0.29180  Biso   1.000  C
  C21      1.0000 0.83079  0.66640  0.13150  Biso   1.000  C
  C22      1.0000 0.16921  0.33360  0.63150  Biso   1.000  C
  C23      1.0000 0.66921  0.16640  0.63150  Biso   1.000  C
  C24      1.0000 0.33079  0.83360  0.13150  Biso   1.000  C
  C25      1.0000 0.79770  0.61200  0.97080  Biso   1.000  C
  C26      1.0000 0.20230  0.38800  0.47080  Biso   1.000  C
  C27      1.0000 0.70230  0.11200  0.47080  Biso   1.000  C
  C28      1.0000 0.29770  0.88800  0.97080  Biso   1.000  C
  H9       1.0000 0.74320  0.60630  0.95870  Biso   1.000  H
  H10      1.0000 0.25680  0.39370  0.45870  Biso   1.000  H
  H11      1.0000 0.75680  0.10630  0.45870  Biso   1.000  H
  H12      1.0000 0.24320  0.89370  0.95870  Biso   1.000  H
  C29      1.0000 0.84610  0.56580  0.82710  Biso   1.000  C
  C30      1.0000 0.15390  0.43420  0.32710  Biso   1.000  C
  C31      1.0000 0.65390  0.06580  0.32710  Biso   1.000  C
  C32      1.0000 0.34610  0.93420  0.82710  Biso   1.000  C
  C33      1.0000 0.92550  0.57530  0.84810  Biso   1.000  C
  C34      1.0000 0.07450  0.42470  0.34810  Biso   1.000  C
  C35      1.0000 0.57450  0.07530  0.34810  Biso   1.000  C
  C36      1.0000 0.42550  0.92470  0.84810  Biso   1.000  C
  H13      1.0000 0.95940  0.54530  0.75060  Biso   1.000  H
  H14      1.0000 0.04060  0.45470  0.25060  Biso   1.000  H
  H15      1.0000 0.54060  0.04530  0.25060  Biso   1.000  H
  H16      1.0000 0.45940  0.95470  0.75060  Biso   1.000  H
  C37      1.0000 0.95400  0.62980  0.01520  Biso   1.000  C
  C38      1.0000 0.04600  0.37020  0.51520  Biso   1.000  C
  C39      1.0000 0.54600  0.12980  0.51520  Biso   1.000  C
  C40      1.0000 0.45400  0.87020  0.01520  Biso   1.000  C
  H17      1.0000 0.00830  0.63480  0.03230  Biso   1.000  H
  H18      1.0000 0.99170  0.36520  0.53230  Biso   1.000  H
  H19      1.0000 0.49170  0.13480  0.53230  Biso   1.000  H
  H20      1.0000 0.50830  0.86520  0.03230  Biso   1.000  H
  N5       1.0000 0.90844  0.67530  0.15250  Biso   1.000  N
  N6       1.0000 0.09156  0.32470  0.65250  Biso   1.000  N
  N7       1.0000 0.59156  0.17530  0.65250  Biso   1.000  N
  N8       1.0000 0.40844  0.82470  0.15250  Biso   1.000  N
  C41      1.0000 0.81450  0.50970  0.64360  Biso   1.000  C
  C42      1.0000 0.18550  0.49030  0.14360  Biso   1.000  C
  C43      1.0000 0.68550  0.00970  0.14360  Biso   1.000  C
  C44      1.0000 0.31450  0.99030  0.64360  Biso   1.000  C
  O1       1.0000 0.85394  0.47950  0.50920  Biso   1.000  O
  O2       1.0000 0.14606  0.52050  0.00920  Biso   1.000  O
  O3       1.0000 0.64606  0.97950  0.00920  Biso   1.000  O
  O4       1.0000 0.35394  0.02050  0.50920  Biso   1.000  O
  O5       1.0000 0.73931  0.49810  0.65310  Biso   1.000  O
  O6       1.0000 0.26069  0.50190  0.15310  Biso   1.000  O
  O7       1.0000 0.76069  0.99810  0.15310  Biso   1.000  O
  O8       1.0000 0.23931  0.00190  0.65310  Biso   1.000  O
  H21      1.0000 0.72100  0.47800  0.55800  Biso   1.000  H
  H22      1.0000 0.27900  0.52200  0.05800  Biso   1.000  H
  H23      1.0000 0.77900  0.97800  0.05800  Biso   1.000  H
  H24      1.0000 0.22100  0.02200  0.55800  Biso   1.000  H
  C45      1.0000 0.58870  0.77910  0.51080  Biso   1.000  C
  C46      1.0000 0.41130  0.22090  0.01080  Biso   1.000  C
  C47      1.0000 0.91130  0.27910  0.01080  Biso   1.000  C
  C48      1.0000 0.08870  0.72090  0.51080  Biso   1.000  C
  O9       1.0000 0.54921  0.74530  0.36700  Biso   1.000  O
  O10      1.0000 0.45079  0.25470  0.86700  Biso   1.000  O
  O11      1.0000 0.95079  0.24530  0.86700  Biso   1.000  O
  O12      1.0000 0.04921  0.75470  0.36700  Biso   1.000  O
  O13      1.0000 0.84835  0.92470  0.87130  Biso   1.000  O
  O14      1.0000 0.15165  0.07530  0.37130  Biso   1.000  O
  O15      1.0000 0.65165  0.42470  0.37130  Biso   1.000  O
  O16      1.0000 0.34835  0.57530  0.87130  Biso   1.000  O
  C49      1.0000 0.86570  0.87740  0.71240  Biso   1.000  C
  C50      1.0000 0.13430  0.12260  0.21240  Biso   1.000  C
  C51      1.0000 0.63430  0.37740  0.21240  Biso   1.000  C
  C52      1.0000 0.36570  0.62260  0.71240  Biso   1.000  C
  O17      1.0000 0.56479  0.81270  0.67410  Biso   1.000  O
  O18      1.0000 0.43521  0.18730  0.17410  Biso   1.000  O
  O19      1.0000 0.93521  0.31270  0.17410  Biso   1.000  O
  O20      1.0000 0.06479  0.68730  0.67410  Biso   1.000  O
  O21      1.0000 0.93310  0.86330  0.64840  Biso   1.000  O
  O22      1.0000 0.06690  0.13670  0.14840  Biso   1.000  O
  O23      1.0000 0.56690  0.36330  0.14840  Biso   1.000  O
  O24      1.0000 0.43310  0.63670  0.64840  Biso   1.000  O
  O25      1.0000 0.95161  0.93200  0.18810  Biso   1.000  O
  O26      1.0000 0.04839  0.06800  0.68810  Biso   1.000  O
  O27      1.0000 0.54839  0.43200  0.68810  Biso   1.000  O
  O28      1.0000 0.45161  0.56800  0.18810  Biso   1.000  O
  H25      1.0000 0.93900  0.99500  0.24200  Biso   1.000  H
  H26      1.0000 0.06100  0.00500  0.74200  Biso   1.000  H
  H27      1.0000 0.56100  0.49500  0.74200  Biso   1.000  H
  H28      1.0000 0.43900  0.50500  0.24200  Biso   1.000  H
  H29      1.0000 0.92300  0.92400  0.08700  Biso   1.000  H
  H30      1.0000 0.07700  0.07600  0.58700  Biso   1.000  H
  H31      1.0000 0.57700  0.42400  0.58700  Biso   1.000  H
  H32      1.0000 0.42300  0.57600  0.08700  Biso   1.000  H
  O29      1.0000 0.90710  0.11290  0.44750  Biso   1.000  O
  O30      1.0000 0.09290  0.88710  0.94750  Biso   1.000  O
  O31      1.0000 0.59290  0.61290  0.94750  Biso   1.000  O
  O32      1.0000 0.40710  0.38710  0.44750  Biso   1.000  O
  H33      1.0000 0.93600  0.09400  0.54800  Biso   1.000  H
  H34      1.0000 0.06400  0.90600  0.04800  Biso   1.000  H
  H35      1.0000 0.56400  0.59400  0.04800  Biso   1.000  H
  H36      1.0000 0.43600  0.40600  0.54800  Biso   1.000  H
  H37      1.0000 0.92900  0.17300  0.39000  Biso   1.000  H
  H38      1.0000 0.07100  0.82700  0.89000  Biso   1.000  H
  H39      1.0000 0.57100  0.67300  0.89000  Biso   1.000  H
  H40      1.0000 0.42900  0.32700  0.39000  Biso   1.000  H
