data_image0
_cell_length_a       17.175
_cell_length_b       12.034
_cell_length_c       8.324
_cell_angle_alpha    90
_cell_angle_beta     113.606
_cell_angle_gamma    90

_symmetry_space_group_name_H-M    "P 1"
_symmetry_int_tables_number       1

loop_
  _symmetry_equiv_pos_as_xyz
  'x, y, z'

loop_
  _atom_site_label
  _atom_site_occupancy
  _atom_site_fract_x
  _atom_site_fract_y
  _atom_site_fract_z
  _atom_site_thermal_displace_type
  _atom_site_B_iso_or_equiv
  _atom_site_type_symbol
  Cu1      1.0000 0.25000  0.25000  0.50000  Biso   1.000  Cu
  Cu2      1.0000 0.75000  0.25000  0.00000  Biso   1.000  Cu
  Cu3      1.0000 0.75000  0.75000  0.50000  Biso   1.000  Cu
  Cu4      1.0000 0.25000  0.75000  0.00000  Biso   1.000  Cu
  O1       1.0000 0.16284  0.34900  0.33790  Biso   1.000  O
  O2       1.0000 0.83716  0.34900  0.16210  Biso   1.000  O
  O3       1.0000 0.66284  0.84900  0.33790  Biso   1.000  O
  O4       1.0000 0.33716  0.84900  0.16210  Biso   1.000  O
  O5       1.0000 0.83716  0.65100  0.66210  Biso   1.000  O
  O6       1.0000 0.16284  0.65100  0.83790  Biso   1.000  O
  O7       1.0000 0.33716  0.15100  0.66210  Biso   1.000  O
  O8       1.0000 0.66284  0.15100  0.83790  Biso   1.000  O
  O9       1.0000 0.23449  0.50930  0.42340  Biso   1.000  O
  O10      1.0000 0.76551  0.50930  0.07660  Biso   1.000  O
  O11      1.0000 0.73449  0.00930  0.42340  Biso   1.000  O
  O12      1.0000 0.26551  0.00930  0.07660  Biso   1.000  O
  O13      1.0000 0.76551  0.49070  0.57660  Biso   1.000  O
  O14      1.0000 0.23449  0.49070  0.92340  Biso   1.000  O
  O15      1.0000 0.26551  0.99070  0.57660  Biso   1.000  O
  O16      1.0000 0.73449  0.99070  0.92340  Biso   1.000  O
  N1       1.0000 0.33707  0.29940  0.40680  Biso   1.000  N
  N2       1.0000 0.66293  0.29940  0.09320  Biso   1.000  N
  N3       1.0000 0.83707  0.79940  0.40680  Biso   1.000  N
  N4       1.0000 0.16293  0.79940  0.09320  Biso   1.000  N
  N5       1.0000 0.66293  0.70060  0.59320  Biso   1.000  N
  N6       1.0000 0.33707  0.70060  0.90680  Biso   1.000  N
  N7       1.0000 0.16293  0.20060  0.59320  Biso   1.000  N
  N8       1.0000 0.83707  0.20060  0.90680  Biso   1.000  N
  C1       1.0000 0.41720  0.31990  0.51450  Biso   1.000  C
  C2       1.0000 0.58280  0.31990  0.98550  Biso   1.000  C
  C3       1.0000 0.91720  0.81990  0.51450  Biso   1.000  C
  C4       1.0000 0.08280  0.81990  0.98550  Biso   1.000  C
  C5       1.0000 0.58280  0.68010  0.48550  Biso   1.000  C
  C6       1.0000 0.41720  0.68010  0.01450  Biso   1.000  C
  C7       1.0000 0.08280  0.18010  0.48550  Biso   1.000  C
  C8       1.0000 0.91720  0.18010  0.01450  Biso   1.000  C
  H1       1.0000 0.43010  0.32340  0.63540  Biso   1.000  H
  H2       1.0000 0.56990  0.32340  0.86460  Biso   1.000  H
  H3       1.0000 0.93010  0.82340  0.63540  Biso   1.000  H
  H4       1.0000 0.06990  0.82340  0.86460  Biso   1.000  H
  H5       1.0000 0.56990  0.67660  0.36460  Biso   1.000  H
  H6       1.0000 0.43010  0.67660  0.13540  Biso   1.000  H
  H7       1.0000 0.06990  0.17660  0.36460  Biso   1.000  H
  H8       1.0000 0.93010  0.17660  0.13540  Biso   1.000  H
  C9       1.0000 0.48210  0.33610  0.46090  Biso   1.000  C
  C10      1.0000 0.51790  0.33610  0.03910  Biso   1.000  C
  C11      1.0000 0.98210  0.83610  0.46090  Biso   1.000  C
  C12      1.0000 0.01790  0.83610  0.03910  Biso   1.000  C
  C13      1.0000 0.51790  0.66390  0.53910  Biso   1.000  C
  C14      1.0000 0.48210  0.66390  0.96090  Biso   1.000  C
  C15      1.0000 0.01790  0.16390  0.53910  Biso   1.000  C
  C16      1.0000 0.98210  0.16390  0.96090  Biso   1.000  C
  H9       1.0000 0.53720  0.35230  0.54330  Biso   1.000  H
  H10      1.0000 0.46280  0.35230  0.95670  Biso   1.000  H
  H11      1.0000 0.03720  0.85230  0.54330  Biso   1.000  H
  H12      1.0000 0.96280  0.85230  0.95670  Biso   1.000  H
  H13      1.0000 0.46280  0.64770  0.45670  Biso   1.000  H
  H14      1.0000 0.53720  0.64770  0.04330  Biso   1.000  H
  H15      1.0000 0.96280  0.14770  0.45670  Biso   1.000  H
  H16      1.0000 0.03720  0.14770  0.04330  Biso   1.000  H
  C17      1.0000 0.46570  0.32830  0.28120  Biso   1.000  C
  C18      1.0000 0.53430  0.32830  0.21880  Biso   1.000  C
  C19      1.0000 0.96570  0.82830  0.28120  Biso   1.000  C
  C20      1.0000 0.03430  0.82830  0.21880  Biso   1.000  C
  C21      1.0000 0.53430  0.67170  0.71880  Biso   1.000  C
  C22      1.0000 0.46570  0.67170  0.78120  Biso   1.000  C
  C23      1.0000 0.03430  0.17170  0.71880  Biso   1.000  C
  C24      1.0000 0.96570  0.17170  0.78120  Biso   1.000  C
  C25      1.0000 0.38100  0.31260  0.17030  Biso   1.000  C
  C26      1.0000 0.61900  0.31260  0.32970  Biso   1.000  C
  C27      1.0000 0.88100  0.81260  0.17030  Biso   1.000  C
  C28      1.0000 0.11900  0.81260  0.32970  Biso   1.000  C
  C29      1.0000 0.61900  0.68740  0.82970  Biso   1.000  C
  C30      1.0000 0.38100  0.68740  0.67030  Biso   1.000  C
  C31      1.0000 0.11900  0.18740  0.82970  Biso   1.000  C
  C32      1.0000 0.88100  0.18740  0.67030  Biso   1.000  C
  H17      1.0000 0.36550  0.31090  0.04840  Biso   1.000  H
  H18      1.0000 0.63450  0.31090  0.45160  Biso   1.000  H
  H19      1.0000 0.86550  0.81090  0.04840  Biso   1.000  H
  H20      1.0000 0.13450  0.81090  0.45160  Biso   1.000  H
  H21      1.0000 0.63450  0.68910  0.95160  Biso   1.000  H
  H22      1.0000 0.36550  0.68910  0.54840  Biso   1.000  H
  H23      1.0000 0.13450  0.18910  0.95160  Biso   1.000  H
  H24      1.0000 0.86550  0.18910  0.54840  Biso   1.000  H
  C33      1.0000 0.31970  0.29960  0.23440  Biso   1.000  C
  C34      1.0000 0.68030  0.29960  0.26560  Biso   1.000  C
  C35      1.0000 0.81970  0.79960  0.23440  Biso   1.000  C
  C36      1.0000 0.18030  0.79960  0.26560  Biso   1.000  C
  C37      1.0000 0.68030  0.70040  0.76560  Biso   1.000  C
  C38      1.0000 0.31970  0.70040  0.73440  Biso   1.000  C
  C39      1.0000 0.18030  0.20040  0.76560  Biso   1.000  C
  C40      1.0000 0.81970  0.20040  0.73440  Biso   1.000  C
  H25      1.0000 0.26300  0.29040  0.15450  Biso   1.000  H
  H26      1.0000 0.73700  0.29040  0.34550  Biso   1.000  H
  H27      1.0000 0.76300  0.79040  0.15450  Biso   1.000  H
  H28      1.0000 0.23700  0.79040  0.34550  Biso   1.000  H
  H29      1.0000 0.73700  0.70960  0.84550  Biso   1.000  H
  H30      1.0000 0.26300  0.70960  0.65450  Biso   1.000  H
  H31      1.0000 0.23700  0.20960  0.84550  Biso   1.000  H
  H32      1.0000 0.76300  0.20960  0.65450  Biso   1.000  H
  C41      1.0000 0.17260  0.45300  0.32410  Biso   1.000  C
  C42      1.0000 0.82740  0.45300  0.17590  Biso   1.000  C
  C43      1.0000 0.67260  0.95300  0.32410  Biso   1.000  C
  C44      1.0000 0.32740  0.95300  0.17590  Biso   1.000  C
  C45      1.0000 0.82740  0.54700  0.67590  Biso   1.000  C
  C46      1.0000 0.17260  0.54700  0.82410  Biso   1.000  C
  C47      1.0000 0.32740  0.04700  0.67590  Biso   1.000  C
  C48      1.0000 0.67260  0.04700  0.82410  Biso   1.000  C
  C49      1.0000 0.10560  0.51200  0.17720  Biso   1.000  C
  C50      1.0000 0.89440  0.51200  0.32280  Biso   1.000  C
  C51      1.0000 0.60560  0.01200  0.17720  Biso   1.000  C
  C52      1.0000 0.39440  0.01200  0.32280  Biso   1.000  C
  C53      1.0000 0.89440  0.48800  0.82280  Biso   1.000  C
  C54      1.0000 0.10560  0.48800  0.67720  Biso   1.000  C
  C55      1.0000 0.39440  0.98800  0.82280  Biso   1.000  C
  C56      1.0000 0.60560  0.98800  0.67720  Biso   1.000  C
  H33      1.0000 0.11630  0.58660  0.15940  Biso   1.000  H
  H34      1.0000 0.88370  0.58660  0.34060  Biso   1.000  H
  H35      1.0000 0.61630  0.08660  0.15940  Biso   1.000  H
  H36      1.0000 0.38370  0.08660  0.34060  Biso   1.000  H
  H37      1.0000 0.88370  0.41340  0.84060  Biso   1.000  H
  H38      1.0000 0.11630  0.41340  0.65940  Biso   1.000  H
  H39      1.0000 0.38370  0.91340  0.84060  Biso   1.000  H
  H40      1.0000 0.61630  0.91340  0.65940  Biso   1.000  H
  C57      1.0000 0.03280  0.46990  0.06950  Biso   1.000  C
  C58      1.0000 0.96720  0.46990  0.43050  Biso   1.000  C
  C59      1.0000 0.53280  0.96990  0.06950  Biso   1.000  C
  C60      1.0000 0.46720  0.96990  0.43050  Biso   1.000  C
  C61      1.0000 0.96720  0.53010  0.93050  Biso   1.000  C
  C62      1.0000 0.03280  0.53010  0.56950  Biso   1.000  C
  C63      1.0000 0.46720  0.03010  0.93050  Biso   1.000  C
  C64      1.0000 0.53280  0.03010  0.56950  Biso   1.000  C
  H41      1.0000 0.02260  0.39470  0.08410  Biso   1.000  H
  H42      1.0000 0.97740  0.39470  0.41590  Biso   1.000  H
  H43      1.0000 0.52260  0.89470  0.08410  Biso   1.000  H
  H44      1.0000 0.47740  0.89470  0.41590  Biso   1.000  H
  H45      1.0000 0.97740  0.60530  0.91590  Biso   1.000  H
  H46      1.0000 0.02260  0.60530  0.58410  Biso   1.000  H
  H47      1.0000 0.47740  0.10530  0.91590  Biso   1.000  H
  H48      1.0000 0.52260  0.10530  0.58410  Biso   1.000  H
  O17      1.0000 0.18477  0.10390  0.27110  Biso   1.000  O
  O18      1.0000 0.81523  0.10390  0.22890  Biso   1.000  O
  O19      1.0000 0.68477  0.60390  0.27110  Biso   1.000  O
  O20      1.0000 0.31523  0.60390  0.22890  Biso   1.000  O
  O21      1.0000 0.81523  0.89610  0.72890  Biso   1.000  O
  O22      1.0000 0.18477  0.89610  0.77110  Biso   1.000  O
  O23      1.0000 0.31523  0.39610  0.72890  Biso   1.000  O
  O24      1.0000 0.68477  0.39610  0.77110  Biso   1.000  O
  H49      1.0000 0.20800  0.08300  0.20000  Biso   1.000  H
  H50      1.0000 0.79200  0.08300  0.30000  Biso   1.000  H
  H51      1.0000 0.70800  0.58300  0.20000  Biso   1.000  H
  H52      1.0000 0.29200  0.58300  0.30000  Biso   1.000  H
  H53      1.0000 0.79200  0.91700  0.80000  Biso   1.000  H
  H54      1.0000 0.20800  0.91700  0.70000  Biso   1.000  H
  H55      1.0000 0.29200  0.41700  0.80000  Biso   1.000  H
  H56      1.0000 0.70800  0.41700  0.70000  Biso   1.000  H
  H57      1.0000 0.20000  0.06200  0.34000  Biso   1.000  H
  H58      1.0000 0.80000  0.06200  0.16000  Biso   1.000  H
  H59      1.0000 0.70000  0.56200  0.34000  Biso   1.000  H
  H60      1.0000 0.30000  0.56200  0.16000  Biso   1.000  H
  H61      1.0000 0.80000  0.93800  0.66000  Biso   1.000  H
  H62      1.0000 0.20000  0.93800  0.84000  Biso   1.000  H
  H63      1.0000 0.30000  0.43800  0.66000  Biso   1.000  H
  H64      1.0000 0.70000  0.43800  0.84000  Biso   1.000  H
