data_image0
_cell_length_a       13.533
_cell_length_b       7.908
_cell_length_c       12.066
_cell_angle_alpha    90
_cell_angle_beta     111.04
_cell_angle_gamma    90

_symmetry_space_group_name_H-M    "P 1"
_symmetry_int_tables_number       1

loop_
  _symmetry_equiv_pos_as_xyz
  'x, y, z'

loop_
  _atom_site_label
  _atom_site_occupancy
  _atom_site_fract_x
  _atom_site_fract_y
  _atom_site_fract_z
  _atom_site_thermal_displace_type
  _atom_site_B_iso_or_equiv
  _atom_site_type_symbol
  O1       1.0000 0.91170  0.22820  0.89170  Biso   1.000  O
  O2       1.0000 0.08830  0.72820  0.60830  Biso   1.000  O
  O3       1.0000 0.08830  0.77180  0.10830  Biso   1.000  O
  O4       1.0000 0.91170  0.27180  0.39170  Biso   1.000  O
  H1       1.0000 0.91400  0.28300  0.94500  Biso   1.000  H
  H2       1.0000 0.08600  0.78300  0.55500  Biso   1.000  H
  H3       1.0000 0.08600  0.71700  0.05500  Biso   1.000  H
  H4       1.0000 0.91400  0.21700  0.44500  Biso   1.000  H
  H5       1.0000 0.98300  0.19200  0.87500  Biso   1.000  H
  H6       1.0000 0.01700  0.69200  0.62500  Biso   1.000  H
  H7       1.0000 0.01700  0.80800  0.12500  Biso   1.000  H
  H8       1.0000 0.98300  0.30800  0.37500  Biso   1.000  H
  Cu1      1.0000 0.10120  0.18990  0.76340  Biso   1.000  Cu
  Cu2      1.0000 0.89880  0.68990  0.73660  Biso   1.000  Cu
  Cu3      1.0000 0.89880  0.81010  0.23660  Biso   1.000  Cu
  Cu4      1.0000 0.10120  0.31010  0.26340  Biso   1.000  Cu
  O5       1.0000 0.03630  0.41060  0.75860  Biso   1.000  O
  O6       1.0000 0.96370  0.91060  0.74140  Biso   1.000  O
  O7       1.0000 0.96370  0.58940  0.24140  Biso   1.000  O
  O8       1.0000 0.03630  0.08940  0.25860  Biso   1.000  O
  C1       1.0000 0.06780  0.48800  0.85640  Biso   1.000  C
  C2       1.0000 0.93220  0.98800  0.64360  Biso   1.000  C
  C3       1.0000 0.93220  0.51200  0.14360  Biso   1.000  C
  C4       1.0000 0.06780  0.01200  0.35640  Biso   1.000  C
  O9       1.0000 0.02100  0.61680  0.87480  Biso   1.000  O
  O10      1.0000 0.97900  0.11680  0.62520  Biso   1.000  O
  O11      1.0000 0.97900  0.38320  0.12520  Biso   1.000  O
  O12      1.0000 0.02100  0.88320  0.37480  Biso   1.000  O
  C5       1.0000 0.16830  0.43040  0.95280  Biso   1.000  C
  C6       1.0000 0.83170  0.93040  0.54720  Biso   1.000  C
  C7       1.0000 0.83170  0.56960  0.04720  Biso   1.000  C
  C8       1.0000 0.16830  0.06960  0.45280  Biso   1.000  C
  C9       1.0000 0.25750  0.54800  0.95230  Biso   1.000  C
  C10      1.0000 0.74250  0.04800  0.54770  Biso   1.000  C
  C11      1.0000 0.74250  0.45200  0.04770  Biso   1.000  C
  C12      1.0000 0.25750  0.95200  0.45230  Biso   1.000  C
  N1       1.0000 0.18870  0.25630  0.92630  Biso   1.000  N
  N2       1.0000 0.81130  0.75630  0.57370  Biso   1.000  N
  N3       1.0000 0.81130  0.74370  0.07370  Biso   1.000  N
  N4       1.0000 0.18870  0.24370  0.42630  Biso   1.000  N
  S1       1.0000 0.23240  0.13340  0.03640  Biso   1.000  S
  S2       1.0000 0.76760  0.63340  0.46360  Biso   1.000  S
  S3       1.0000 0.76760  0.86660  0.96360  Biso   1.000  S
  S4       1.0000 0.23240  0.36660  0.53640  Biso   1.000  S
  O13      1.0000 0.23570  0.96450  0.99110  Biso   1.000  O
  O14      1.0000 0.76430  0.46450  0.50890  Biso   1.000  O
  O15      1.0000 0.76430  0.03550  0.00890  Biso   1.000  O
  O16      1.0000 0.23570  0.53550  0.49110  Biso   1.000  O
  O17      1.0000 0.17780  0.14790  0.11980  Biso   1.000  O
  O18      1.0000 0.82220  0.64790  0.38020  Biso   1.000  O
  O19      1.0000 0.82220  0.85210  0.88020  Biso   1.000  O
  O20      1.0000 0.17780  0.35210  0.61980  Biso   1.000  O
  C13      1.0000 0.36650  0.18800  0.11590  Biso   1.000  C
  C14      1.0000 0.63350  0.68800  0.38410  Biso   1.000  C
  C15      1.0000 0.63350  0.81200  0.88410  Biso   1.000  C
  C16      1.0000 0.36650  0.31200  0.61590  Biso   1.000  C
  C17      1.0000 0.40060  0.23200  0.23450  Biso   1.000  C
  C18      1.0000 0.59940  0.73200  0.26550  Biso   1.000  C
  C19      1.0000 0.59940  0.76800  0.76550  Biso   1.000  C
  C20      1.0000 0.40060  0.26800  0.73450  Biso   1.000  C
  C21      1.0000 0.50720  0.26860  0.29350  Biso   1.000  C
  C22      1.0000 0.49280  0.76860  0.20650  Biso   1.000  C
  C23      1.0000 0.49280  0.73140  0.70650  Biso   1.000  C
  C24      1.0000 0.50720  0.23140  0.79350  Biso   1.000  C
  C25      1.0000 0.57760  0.25300  0.23860  Biso   1.000  C
  C26      1.0000 0.42240  0.75300  0.26140  Biso   1.000  C
  C27      1.0000 0.42240  0.74700  0.76140  Biso   1.000  C
  C28      1.0000 0.57760  0.24700  0.73860  Biso   1.000  C
  C29      1.0000 0.54390  0.20860  0.12080  Biso   1.000  C
  C30      1.0000 0.45610  0.70860  0.37920  Biso   1.000  C
  C31      1.0000 0.45610  0.79140  0.87920  Biso   1.000  C
  C32      1.0000 0.54390  0.29140  0.62080  Biso   1.000  C
  C33      1.0000 0.43760  0.17610  0.05930  Biso   1.000  C
  C34      1.0000 0.56240  0.67610  0.44070  Biso   1.000  C
  C35      1.0000 0.56240  0.82390  0.94070  Biso   1.000  C
  C36      1.0000 0.43760  0.32390  0.55930  Biso   1.000  C
  O21      1.0000 0.18460  0.98790  0.75680  Biso   1.000  O
  O22      1.0000 0.81540  0.48790  0.74320  Biso   1.000  O
  O23      1.0000 0.81540  0.01210  0.24320  Biso   1.000  O
  O24      1.0000 0.18460  0.51210  0.25680  Biso   1.000  O
  H9       1.0000 0.15500  0.44600  0.02600  Biso   1.000  H
  H10      1.0000 0.84500  0.94600  0.47400  Biso   1.000  H
  H11      1.0000 0.84500  0.55400  0.97400  Biso   1.000  H
  H12      1.0000 0.15500  0.05400  0.52600  Biso   1.000  H
  H13      1.0000 0.23200  0.65000  0.96100  Biso   1.000  H
  H14      1.0000 0.76800  0.15000  0.53900  Biso   1.000  H
  H15      1.0000 0.76800  0.35000  0.03900  Biso   1.000  H
  H16      1.0000 0.23200  0.85000  0.46100  Biso   1.000  H
  H17      1.0000 0.32300  0.52700  0.99400  Biso   1.000  H
  H18      1.0000 0.67700  0.02700  0.50600  Biso   1.000  H
  H19      1.0000 0.67700  0.47300  0.00600  Biso   1.000  H
  H20      1.0000 0.32300  0.97300  0.49400  Biso   1.000  H
  H21      1.0000 0.26100  0.54000  0.87900  Biso   1.000  H
  H22      1.0000 0.73900  0.04000  0.62100  Biso   1.000  H
  H23      1.0000 0.73900  0.46000  0.12100  Biso   1.000  H
  H24      1.0000 0.26100  0.96000  0.37900  Biso   1.000  H
  H25      1.0000 0.34400  0.21100  0.27800  Biso   1.000  H
  H26      1.0000 0.65600  0.71100  0.22200  Biso   1.000  H
  H27      1.0000 0.65600  0.78900  0.72200  Biso   1.000  H
  H28      1.0000 0.34400  0.28900  0.77800  Biso   1.000  H
  H29      1.0000 0.54300  0.25400  0.38200  Biso   1.000  H
  H30      1.0000 0.45700  0.75400  0.11800  Biso   1.000  H
  H31      1.0000 0.45700  0.74600  0.61800  Biso   1.000  H
  H32      1.0000 0.54300  0.24600  0.88200  Biso   1.000  H
  H33      1.0000 0.65100  0.27400  0.28000  Biso   1.000  H
  H34      1.0000 0.34900  0.77400  0.22000  Biso   1.000  H
  H35      1.0000 0.34900  0.72600  0.72000  Biso   1.000  H
  H36      1.0000 0.65100  0.22600  0.78000  Biso   1.000  H
  H37      1.0000 0.59500  0.19900  0.08000  Biso   1.000  H
  H38      1.0000 0.40500  0.69900  0.42000  Biso   1.000  H
  H39      1.0000 0.40500  0.80100  0.92000  Biso   1.000  H
  H40      1.0000 0.59500  0.30100  0.58000  Biso   1.000  H
  H41      1.0000 0.41600  0.14900  0.98500  Biso   1.000  H
  H42      1.0000 0.58400  0.64900  0.51500  Biso   1.000  H
  H43      1.0000 0.58400  0.85100  0.01500  Biso   1.000  H
  H44      1.0000 0.41600  0.35100  0.48500  Biso   1.000  H
  H45      1.0000 0.20700  0.95600  0.82300  Biso   1.000  H
  H46      1.0000 0.79300  0.45600  0.67700  Biso   1.000  H
  H47      1.0000 0.79300  0.04400  0.17700  Biso   1.000  H
  H48      1.0000 0.20700  0.54400  0.32300  Biso   1.000  H
  H49      1.0000 0.15300  0.86600  0.72100  Biso   1.000  H
  H50      1.0000 0.84700  0.36600  0.77900  Biso   1.000  H
  H51      1.0000 0.84700  0.13400  0.27900  Biso   1.000  H
  H52      1.0000 0.15300  0.63400  0.22100  Biso   1.000  H
