data_image0
_cell_length_a       8.3053
_cell_length_b       7.2256
_cell_length_c       8.4336
_cell_angle_alpha    90
_cell_angle_beta     112.205
_cell_angle_gamma    90

_symmetry_space_group_name_H-M    "P 1"
_symmetry_int_tables_number       1

loop_
  _symmetry_equiv_pos_as_xyz
  'x, y, z'

loop_
  _atom_site_label
  _atom_site_occupancy
  _atom_site_fract_x
  _atom_site_fract_y
  _atom_site_fract_z
  _atom_site_thermal_displace_type
  _atom_site_B_iso_or_equiv
  _atom_site_type_symbol
  Cu1      1.0000 0.00000  0.00000  0.00000  Biso   1.000  Cu
  Cu2      1.0000 0.50000  0.50000  0.00000  Biso   1.000  Cu
  O1       1.0000 0.24990  0.00000  0.13800  Biso   1.000  O
  O2       1.0000 0.74990  0.50000  0.13800  Biso   1.000  O
  O3       1.0000 0.75010  0.00000  0.86200  Biso   1.000  O
  O4       1.0000 0.25010  0.50000  0.86200  Biso   1.000  O
  O5       1.0000 0.17340  0.00000  0.36190  Biso   1.000  O
  O6       1.0000 0.67340  0.50000  0.36190  Biso   1.000  O
  O7       1.0000 0.82660  0.00000  0.63810  Biso   1.000  O
  O8       1.0000 0.32660  0.50000  0.63810  Biso   1.000  O
  O9       1.0000 0.00000  0.27280  0.00000  Biso   1.000  O
  O10      1.0000 0.50000  0.77280  0.00000  Biso   1.000  O
  O11      1.0000 0.00000  0.72720  0.00000  Biso   1.000  O
  O12      1.0000 0.50000  0.22720  0.00000  Biso   1.000  O
  H1       1.0000 0.07860  0.33340  0.98040  Biso   1.000  H
  H2       1.0000 0.57860  0.83340  0.98040  Biso   1.000  H
  H3       1.0000 0.92140  0.33340  0.01960  Biso   1.000  H
  H4       1.0000 0.42140  0.83340  0.01960  Biso   1.000  H
  H5       1.0000 0.92140  0.66660  0.01960  Biso   1.000  H
  H6       1.0000 0.42140  0.16660  0.01960  Biso   1.000  H
  H7       1.0000 0.07860  0.66660  0.98040  Biso   1.000  H
  H8       1.0000 0.57860  0.16660  0.98040  Biso   1.000  H
  C1       1.0000 0.28460  0.00000  0.29820  Biso   1.000  C
  C2       1.0000 0.78460  0.50000  0.29820  Biso   1.000  C
  C3       1.0000 0.71540  0.00000  0.70180  Biso   1.000  C
  C4       1.0000 0.21540  0.50000  0.70180  Biso   1.000  C
  C5       1.0000 0.47730  0.00000  0.40590  Biso   1.000  C
  C6       1.0000 0.97730  0.50000  0.40590  Biso   1.000  C
  C7       1.0000 0.52270  0.00000  0.59410  Biso   1.000  C
  C8       1.0000 0.02270  0.50000  0.59410  Biso   1.000  C
  H9       1.0000 0.52920  0.10810  0.37620  Biso   1.000  H
  H10      1.0000 0.02920  0.60810  0.37620  Biso   1.000  H
  H11      1.0000 0.47080  0.10810  0.62380  Biso   1.000  H
  H12      1.0000 0.97080  0.60810  0.62380  Biso   1.000  H
  H13      1.0000 0.47080  0.89190  0.62380  Biso   1.000  H
  H14      1.0000 0.97080  0.39190  0.62380  Biso   1.000  H
  H15      1.0000 0.52920  0.89190  0.37620  Biso   1.000  H
  H16      1.0000 0.02920  0.39190  0.37620  Biso   1.000  H
  O13      1.0000 0.31210  0.50000  0.28670  Biso   1.000  O
  O14      1.0000 0.81210  0.00000  0.28670  Biso   1.000  O
  O15      1.0000 0.68790  0.50000  0.71330  Biso   1.000  O
  O16      1.0000 0.18790  0.00000  0.71330  Biso   1.000  O
  H17      1.0000 0.35780  0.59630  0.32440  Biso   1.000  H
  H18      1.0000 0.85780  0.09630  0.32440  Biso   1.000  H
  H19      1.0000 0.64220  0.59630  0.67560  Biso   1.000  H
  H20      1.0000 0.14220  0.09630  0.67560  Biso   1.000  H
  H21      1.0000 0.64220  0.40370  0.67560  Biso   1.000  H
  H22      1.0000 0.14220  0.90370  0.67560  Biso   1.000  H
  H23      1.0000 0.35780  0.40370  0.32440  Biso   1.000  H
  H24      1.0000 0.85780  0.90370  0.32440  Biso   1.000  H
