data_image0
_cell_length_a       11.654
_cell_length_b       12.148
_cell_length_c       12.695
_cell_angle_alpha    67.43
_cell_angle_beta     77.66
_cell_angle_gamma    86.11

_symmetry_space_group_name_H-M    "P 1"
_symmetry_int_tables_number       1

loop_
  _symmetry_equiv_pos_as_xyz
  'x, y, z'

loop_
  _atom_site_label
  _atom_site_occupancy
  _atom_site_fract_x
  _atom_site_fract_y
  _atom_site_fract_z
  _atom_site_thermal_displace_type
  _atom_site_B_iso_or_equiv
  _atom_site_type_symbol
  W1       1.0000 0.83609  0.85159  0.27853  Biso   1.000  W
  W2       1.0000 0.16391  0.14841  0.72147  Biso   1.000  W
  W3       1.0000 0.04917  0.69952  0.15410  Biso   1.000  W
  W4       1.0000 0.95083  0.30048  0.84590  Biso   1.000  W
  W5       1.0000 0.21814  0.84824  0.87654  Biso   1.000  W
  W6       1.0000 0.78186  0.15176  0.12346  Biso   1.000  W
  W7       1.0000 0.07962  0.21567  0.08916  Biso   1.000  W
  W8       1.0000 0.92038  0.78433  0.91084  Biso   1.000  W
  W9       1.0000 0.13155  0.91676  0.23994  Biso   1.000  W
  W10      1.0000 0.86845  0.08324  0.76006  Biso   1.000  W
  W11      1.0000 0.70072  0.93331  0.03673  Biso   1.000  W
  W12      1.0000 0.29928  0.06669  0.96327  Biso   1.000  W
  Cu1      1.0000 0.26760  0.91180  0.49560  Biso   1.000  Cu
  Cu2      1.0000 0.73240  0.08820  0.50440  Biso   1.000  Cu
  Na1      1.0000 0.52660  0.47250  0.64760  Biso   1.000  Na
  Na2      1.0000 0.47340  0.52750  0.35240  Biso   1.000  Na
  Na3      1.0000 0.19840  0.38470  0.25590  Biso   1.000  Na
  Na4      1.0000 0.80160  0.61530  0.74410  Biso   1.000  Na
  Si1      1.0000 0.00000  0.00000  0.00000  Biso   1.000  Si
  O1       1.0000 0.08600  0.79700  0.84200  Biso   1.000  O
  O2       1.0000 0.91400  0.20300  0.15800  Biso   1.000  O
  O3       1.0000 0.07730  0.55400  0.22820  Biso   1.000  O
  O4       1.0000 0.92270  0.44600  0.77180  Biso   1.000  O
  O5       1.0000 0.19320  0.87270  0.36250  Biso   1.000  O
  O6       1.0000 0.80680  0.12730  0.63750  Biso   1.000  O
  O7       1.0000 0.32400  0.77300  0.81400  Biso   1.000  O
  O8       1.0000 0.67600  0.22700  0.18600  Biso   1.000  O
  O9       1.0000 0.06100  0.23700  0.41500  Biso   1.000  O
  O10      1.0000 0.93900  0.76300  0.58500  Biso   1.000  O
  O11      1.0000 0.33800  0.23600  0.26500  Biso   1.000  O
  O12      1.0000 0.66200  0.76400  0.73500  Biso   1.000  O
  O13      1.0000 0.11420  0.32610  0.13230  Biso   1.000  O
  O14      1.0000 0.88580  0.67390  0.86770  Biso   1.000  O
  O15      1.0000 0.11200  0.89700  0.59390  Biso   1.000  O
  O16      1.0000 0.88800  0.10300  0.40610  Biso   1.000  O
  O17      1.0000 0.55800  0.89300  0.05900  Biso   1.000  O
  O18      1.0000 0.44200  0.10700  0.94100  Biso   1.000  O
  O19      1.0000 0.18300  0.73700  0.03000  Biso   1.000  O
  O20      1.0000 0.81700  0.26300  0.97000  Biso   1.000  O
  O21      1.0000 0.31720  0.74450  0.55670  Biso   1.000  O
  O22      1.0000 0.68280  0.25550  0.44330  Biso   1.000  O
  O23      1.0000 0.74400  0.83600  0.18500  Biso   1.000  O
  O24      1.0000 0.25600  0.16400  0.81500  Biso   1.000  O
  O25      1.0000 0.75240  0.77830  0.41240  Biso   1.000  O
  O26      1.0000 0.24760  0.22170  0.58760  Biso   1.000  O
  O27      1.0000 0.25490  0.08020  0.42190  Biso   1.000  O
  O28      1.0000 0.74510  0.91980  0.57810  Biso   1.000  O
  O29      1.0000 0.33800  0.39400  0.75800  Biso   1.000  O
  O30      1.0000 0.66200  0.60600  0.24200  Biso   1.000  O
  O31      1.0000 0.46800  0.60100  0.76100  Biso   1.000  O
  O32      1.0000 0.53200  0.39900  0.23900  Biso   1.000  O
  O33      1.0000 0.43100  0.61700  0.50000  Biso   1.000  O
  O34      1.0000 0.56900  0.38300  0.50000  Biso   1.000  O
  O35      1.0000 0.97000  0.88500  0.31600  Biso   1.000  O
  O36      1.0000 0.03000  0.11500  0.68400  Biso   1.000  O
  O37      1.0000 0.21900  0.18100  0.00900  Biso   1.000  O
  O38      1.0000 0.78100  0.81900  0.99100  Biso   1.000  O
  O39      1.0000 0.28000  0.43800  0.39600  Biso   1.000  O
  O40      1.0000 0.72000  0.56200  0.60400  Biso   1.000  O
  O41      1.0000 0.60900  0.30100  0.79900  Biso   1.000  O
  O42      1.0000 0.39100  0.69900  0.20100  Biso   1.000  O
  O43      1.0000 0.10500  0.04200  0.05600  Biso   1.000  O
  O44      1.0000 0.89500  0.95800  0.94400  Biso   1.000  O
  O45      1.0000 0.09600  0.07600  0.21400  Biso   1.000  O
  O46      1.0000 0.90400  0.92400  0.78600  Biso   1.000  O
  O47      1.0000 0.00200  0.88900  0.14200  Biso   1.000  O
  O48      1.0000 0.99800  0.11100  0.85800  Biso   1.000  O
  O49      1.0000 0.30200  0.92800  0.93400  Biso   1.000  O
  O50      1.0000 0.69800  0.07200  0.06600  Biso   1.000  O
  O51      1.0000 0.04400  0.86600  0.98800  Biso   1.000  O
  O52      1.0000 0.95600  0.13400  0.01200  Biso   1.000  O
  O53      1.0000 0.95900  0.67800  0.05400  Biso   1.000  O
  O54      1.0000 0.04100  0.32200  0.94600  Biso   1.000  O
  O55      1.0000 0.86200  0.99700  0.08000  Biso   1.000  O
  O56      1.0000 0.13800  0.00300  0.92000  Biso   1.000  O
  O57      1.0000 0.50000  0.50000  0.00000  Biso   1.000  O
  O58      1.0000 0.79300  0.00500  0.25500  Biso   1.000  O
  O59      1.0000 0.20700  0.99500  0.74500  Biso   1.000  O
  O60      1.0000 0.91500  0.69400  0.27600  Biso   1.000  O
  O61      1.0000 0.08500  0.30600  0.72400  Biso   1.000  O
  O62      1.0000 0.14100  0.77700  0.21100  Biso   1.000  O
  O63      1.0000 0.85900  0.22300  0.78900  Biso   1.000  O
  O64      1.0000 0.26200  0.96300  0.11500  Biso   1.000  O
  O65      1.0000 0.73800  0.03700  0.88500  Biso   1.000  O
  O66      1.0000 0.33600  0.51900  0.07800  Biso   1.000  O
  O67      1.0000 0.66400  0.48100  0.92200  Biso   1.000  O
  N1       1.0000 0.43300  0.93700  0.40580  Biso   1.000  N
  N2       1.0000 0.56700  0.06300  0.59420  Biso   1.000  N
  C1       1.0000 0.51500  0.94700  0.48200  Biso   1.000  C
  C2       1.0000 0.48500  0.05300  0.51800  Biso   1.000  C
  H1       1.0000 0.50850  0.87430  0.55050  Biso   1.000  H
  H2       1.0000 0.49150  0.12570  0.44950  Biso   1.000  H
  H3       1.0000 0.59510  0.95530  0.43840  Biso   1.000  H
  H4       1.0000 0.40490  0.04470  0.56160  Biso   1.000  H
  C3       1.0000 0.46000  0.82900  0.38500  Biso   1.000  C
  C4       1.0000 0.54000  0.17100  0.61500  Biso   1.000  C
  H5       1.0000 0.54420  0.81690  0.37320  Biso   1.000  H
  H6       1.0000 0.45580  0.18310  0.62680  Biso   1.000  H
  H7       1.0000 0.43480  0.83510  0.31460  Biso   1.000  H
  H8       1.0000 0.56520  0.16490  0.68540  Biso   1.000  H
  C5       1.0000 0.40100  0.72700  0.48200  Biso   1.000  C
  C6       1.0000 0.59900  0.27300  0.51800  Biso   1.000  C
  C7       1.0000 0.43200  0.04400  0.29900  Biso   1.000  C
  C8       1.0000 0.56800  0.95600  0.70100  Biso   1.000  C
  H9       1.0000 0.41650  0.02240  0.23770  Biso   1.000  H
  H10      1.0000 0.58350  0.97760  0.76230  Biso   1.000  H
  H11      1.0000 0.50780  0.08540  0.27250  Biso   1.000  H
  H12      1.0000 0.49220  0.91460  0.72750  Biso   1.000  H
  C9       1.0000 0.33400  0.12600  0.33200  Biso   1.000  C
  C10      1.0000 0.66600  0.87400  0.66800  Biso   1.000  C
