data_image0
_cell_length_a       11.7
_cell_length_b       12.164
_cell_length_c       12.689
_cell_angle_alpha    67.94
_cell_angle_beta     76.89
_cell_angle_gamma    85.37

_symmetry_space_group_name_H-M    "P 1"
_symmetry_int_tables_number       1

loop_
  _symmetry_equiv_pos_as_xyz
  'x, y, z'

loop_
  _atom_site_label
  _atom_site_occupancy
  _atom_site_fract_x
  _atom_site_fract_y
  _atom_site_fract_z
  _atom_site_thermal_displace_type
  _atom_site_B_iso_or_equiv
  _atom_site_type_symbol
  C1       1.0000 0.89600  0.72560  0.99000  Biso   1.000  C
  C2       1.0000 0.10400  0.27440  0.01000  Biso   1.000  C
  C3       1.0000 0.92700  0.04690  0.80310  Biso   1.000  C
  C4       1.0000 0.07300  0.95310  0.19690  Biso   1.000  C
  H1       1.0000 0.91180  0.02470  0.74170  Biso   1.000  H
  H2       1.0000 0.08820  0.97530  0.25830  Biso   1.000  H
  H3       1.0000 0.00180  0.08820  0.77520  Biso   1.000  H
  H4       1.0000 0.99820  0.91180  0.22480  Biso   1.000  H
  C5       1.0000 0.01850  0.95110  0.97680  Biso   1.000  C
  C6       1.0000 0.98150  0.04890  0.02320  Biso   1.000  C
  H5       1.0000 0.09610  0.96860  0.92680  Biso   1.000  H
  H6       1.0000 0.90390  0.03140  0.07320  Biso   1.000  H
  H7       1.0000 0.02250  0.87690  0.04110  Biso   1.000  H
  H8       1.0000 0.97750  0.12310  0.95890  Biso   1.000  H
  C7       1.0000 0.83400  0.12520  0.83200  Biso   1.000  C
  C8       1.0000 0.16600  0.87480  0.16800  Biso   1.000  C
  C9       1.0000 0.96300  0.82700  0.88700  Biso   1.000  C
  C10      1.0000 0.03700  0.17300  0.11300  Biso   1.000  C
  H9       1.0000 0.94150  0.83280  0.81590  Biso   1.000  H
  H10      1.0000 0.05850  0.16720  0.18410  Biso   1.000  H
  H11      1.0000 0.04640  0.81400  0.87940  Biso   1.000  H
  H12      1.0000 0.95360  0.18600  0.12060  Biso   1.000  H
  N1       1.0000 0.93200  0.93830  0.90810  Biso   1.000  N
  N2       1.0000 0.06800  0.06170  0.09190  Biso   1.000  N
  O1       1.0000 0.75060  0.08300  0.92100  Biso   1.000  O
  O2       1.0000 0.24940  0.91700  0.07900  Biso   1.000  O
  O3       1.0000 0.60960  0.90170  0.09270  Biso   1.000  O
  O4       1.0000 0.39040  0.09830  0.90730  Biso   1.000  O
  O5       1.0000 0.81320  0.93240  0.42100  Biso   1.000  O
  O6       1.0000 0.18680  0.06760  0.57900  Biso   1.000  O
  O7       1.0000 0.76630  0.15590  0.31090  Biso   1.000  O
  O8       1.0000 0.23370  0.84410  0.68910  Biso   1.000  O
  O9       1.0000 0.94200  0.10710  0.43470  Biso   1.000  O
  O10      1.0000 0.05800  0.89290  0.56530  Biso   1.000  O
  O11      1.0000 0.69840  0.87740  0.85840  Biso   1.000  O
  O12      1.0000 0.30160  0.12260  0.14160  Biso   1.000  O
  O13      1.0000 0.61940  0.32840  0.63180  Biso   1.000  O
  O14      1.0000 0.38060  0.67160  0.36820  Biso   1.000  O
  O15      1.0000 0.53710  0.31400  0.44720  Biso   1.000  O
  O16      1.0000 0.46290  0.68600  0.55280  Biso   1.000  O
  O17      1.0000 0.74900  0.21980  0.08040  Biso   1.000  O
  O18      1.0000 0.25100  0.78020  0.91960  Biso   1.000  O
  O19      1.0000 0.63770  0.77300  0.72000  Biso   1.000  O
  O20      1.0000 0.36230  0.22700  0.28000  Biso   1.000  O
  O21      1.0000 0.82620  0.77560  0.30600  Biso   1.000  O
  O22      1.0000 0.17380  0.22440  0.69400  Biso   1.000  O
  O23      1.0000 0.42060  0.44910  0.27170  Biso   1.000  O
  O24      1.0000 0.57940  0.55090  0.72830  Biso   1.000  O
  O25      1.0000 0.58400  0.79680  0.34240  Biso   1.000  O
  O26      1.0000 0.41600  0.20320  0.65760  Biso   1.000  O
  O27      1.0000 0.58610  0.27950  0.24800  Biso   1.000  O
  O28      1.0000 0.41390  0.72050  0.75200  Biso   1.000  O
  O29      1.0000 0.16300  0.60760  0.74600  Biso   1.000  O
  O30      1.0000 0.83700  0.39240  0.25400  Biso   1.000  O
  H13      1.0000 0.19090  0.67860  0.72920  Biso   1.000  H
  H14      1.0000 0.80910  0.32140  0.27080  Biso   1.000  H
  H15      1.0000 0.22440  0.56640  0.73460  Biso   1.000  H
  H16      1.0000 0.77560  0.43360  0.26540  Biso   1.000  H
  O31      1.0000 0.72550  0.19100  0.50700  Biso   1.000  O
  O32      1.0000 0.27450  0.80900  0.49300  Biso   1.000  O
  O33      1.0000 0.88800  0.69810  0.70400  Biso   1.000  O
  O34      1.0000 0.11200  0.30190  0.29600  Biso   1.000  O
  H17      1.0000 0.81870  0.72910  0.72280  Biso   1.000  H
  H18      1.0000 0.18130  0.27090  0.27720  Biso   1.000  H
  H19      1.0000 0.89610  0.70470  0.63270  Biso   1.000  H
  H20      1.0000 0.10390  0.29530  0.36730  Biso   1.000  H
  O35      1.0000 0.02100  0.40600  0.73700  Biso   1.000  O
  O36      1.0000 0.97900  0.59400  0.26300  Biso   1.000  O
  H21      1.0000 0.04290  0.33280  0.75710  Biso   1.000  H
  H22      1.0000 0.95710  0.66720  0.24290  Biso   1.000  H
  H23      1.0000 0.02920  0.43210  0.66220  Biso   1.000  H
  H24      1.0000 0.97080  0.56790  0.33780  Biso   1.000  H
  O37      1.0000 0.76710  0.96770  0.62010  Biso   1.000  O
  O38      1.0000 0.23290  0.03230  0.37990  Biso   1.000  O
  O39      1.0000 0.77500  0.44190  0.89680  Biso   1.000  O
  O40      1.0000 0.22500  0.55810  0.10320  Biso   1.000  O
  O41      1.0000 0.47190  0.88100  0.82200  Biso   1.000  O
  O42      1.0000 0.52810  0.11900  0.17800  Biso   1.000  O
  O43      1.0000 0.83100  0.51600  0.58500  Biso   1.000  O
  O44      1.0000 0.16900  0.48400  0.41500  Biso   1.000  O
  H25      1.0000 0.87000  0.57810  0.57710  Biso   1.000  H
  H26      1.0000 0.13000  0.42190  0.42290  Biso   1.000  H
  H27      1.0000 0.85660  0.50650  0.51900  Biso   1.000  H
  H28      1.0000 0.14340  0.49350  0.48100  Biso   1.000  H
  O45      1.0000 0.56030  0.23610  0.91500  Biso   1.000  O
  O46      1.0000 0.43970  0.76390  0.08500  Biso   1.000  O
  H29      1.0000 0.53850  0.16400  0.92330  Biso   1.000  H
  H30      1.0000 0.46150  0.83600  0.07670  Biso   1.000  H
  H31      1.0000 0.53630  0.23050  0.99080  Biso   1.000  H
  H32      1.0000 0.46370  0.76950  0.00920  Biso   1.000  H
  O47      1.0000 0.83720  0.23380  0.76230  Biso   1.000  O
  O48      1.0000 0.16280  0.76620  0.23770  Biso   1.000  O
  O49      1.0000 0.93400  0.62340  0.99660  Biso   1.000  O
  O50      1.0000 0.06600  0.37660  0.00340  Biso   1.000  O
  O51      1.0000 0.60210  0.07700  0.71680  Biso   1.000  O
  O52      1.0000 0.39790  0.92300  0.28320  Biso   1.000  O
  O53      1.0000 0.59400  0.03800  0.54700  Biso   1.000  O
  O54      1.0000 0.40600  0.96200  0.45300  Biso   1.000  O
  O55      1.0000 0.81420  0.74990  0.06040  Biso   1.000  O
  O56      1.0000 0.18580  0.25010  0.93960  Biso   1.000  O
  O57      1.0000 0.62100  0.00500  0.42300  Biso   1.000  O
  O58      1.0000 0.37900  0.99500  0.57700  Biso   1.000  O
  O59      1.0000 0.46100  0.11400  0.51600  Biso   1.000  O
  O60      1.0000 0.53900  0.88600  0.48400  Biso   1.000  O
  O61      1.0000 0.71010  0.99210  0.24210  Biso   1.000  O
  O62      1.0000 0.28990  0.00790  0.75790  Biso   1.000  O
  O63      1.0000 0.68460  0.73510  0.52440  Biso   1.000  O
  O64      1.0000 0.31540  0.26490  0.47560  Biso   1.000  O
  O65      1.0000 0.49700  0.09800  0.37800  Biso   1.000  O
  O66      1.0000 0.50300  0.90200  0.62200  Biso   1.000  O
  O67      1.0000 0.41000  0.42400  0.01100  Biso   1.000  O
  O68      1.0000 0.59000  0.57600  0.98900  Biso   1.000  O
  H33      1.0000 0.38190  0.35830  0.01700  Biso   1.000  H
  H34      1.0000 0.61810  0.64170  0.98300  Biso   1.000  H
  H35      1.0000 0.41470  0.41700  0.07910  Biso   1.000  H
  H36      1.0000 0.58530  0.58300  0.92090  Biso   1.000  H
  O69      1.0000 0.95700  0.31000  0.52000  Biso   1.000  O
  O70      1.0000 0.04300  0.69000  0.48000  Biso   1.000  O
  H37      1.0000 0.96670  0.25530  0.49270  Biso   1.000  H
  H38      1.0000 0.03330  0.74470  0.50730  Biso   1.000  H
  H39      1.0000 0.02260  0.32400  0.53020  Biso   1.000  H
  H40      1.0000 0.97740  0.67600  0.46980  Biso   1.000  H
  P1       1.0000 0.50000  0.00000  0.50000  Biso   1.000  P
  W1       1.0000 0.80194  0.06772  0.45997  Biso   1.000  W
  W2       1.0000 0.19806  0.93228  0.54003  Biso   1.000  W
  W3       1.0000 0.72212  0.84585  0.37059  Biso   1.000  W
  W4       1.0000 0.27788  0.15415  0.62941  Biso   1.000  W
  W5       1.0000 0.57988  0.22045  0.58959  Biso   1.000  W
  W6       1.0000 0.42012  0.77955  0.41041  Biso   1.000  W
  W7       1.0000 0.63313  0.91808  0.74269  Biso   1.000  W
  W8       1.0000 0.36687  0.08192  0.25731  Biso   1.000  W
  W9       1.0000 0.44767  0.30413  0.34621  Biso   1.000  W
  W10      1.0000 0.55233  0.69587  0.65379  Biso   1.000  W
  W11      1.0000 0.66652  0.14975  0.21659  Biso   1.000  W
  W12      1.0000 0.33348  0.85025  0.78341  Biso   1.000  W
  Cu1      1.0000 0.76710  0.91410  0.99860  Biso   1.000  Cu
  Cu2      1.0000 0.23290  0.08590  0.00140  Biso   1.000  Cu
  Na1      1.0000 0.69810  0.38350  0.75970  Biso   1.000  Na
  Na2      1.0000 0.30190  0.61650  0.24030  Biso   1.000  Na
  Na3      1.0000 0.97450  0.52920  0.85360  Biso   1.000  Na
  Na4      1.0000 0.02550  0.47080  0.14640  Biso   1.000  Na
