data_image0
_cell_length_a       12.646
_cell_length_b       13.158
_cell_length_c       14.185
_cell_angle_alpha    73.86
_cell_angle_beta     78.835
_cell_angle_gamma    84.533

_symmetry_space_group_name_H-M    "P 1"
_symmetry_int_tables_number       1

loop_
  _symmetry_equiv_pos_as_xyz
  'x, y, z'

loop_
  _atom_site_label
  _atom_site_occupancy
  _atom_site_fract_x
  _atom_site_fract_y
  _atom_site_fract_z
  _atom_site_thermal_displace_type
  _atom_site_B_iso_or_equiv
  _atom_site_type_symbol
  Cu1      1.0000 0.11750  0.45900  0.83670  Biso   1.000  Cu
  Cu2      1.0000 0.88250  0.54100  0.16330  Biso   1.000  Cu
  Cu3      1.0000 0.99850  0.12110  0.11146  Biso   1.000  Cu
  Cu4      1.0000 0.00150  0.87890  0.88854  Biso   1.000  Cu
  O1       1.0000 0.98770  0.40120  0.92730  Biso   1.000  O
  O2       1.0000 0.01230  0.59880  0.07270  Biso   1.000  O
  H1       1.0000 0.93420  0.45760  0.93040  Biso   1.000  H
  H2       1.0000 0.06580  0.54240  0.06960  Biso   1.000  H
  H3       1.0000 0.00390  0.36870  0.99270  Biso   1.000  H
  H4       1.0000 0.99610  0.63130  0.00730  Biso   1.000  H
  O3       1.0000 0.93430  0.15120  0.99200  Biso   1.000  O
  O4       1.0000 0.06570  0.84880  0.00800  Biso   1.000  O
  H5       1.0000 0.85720  0.15170  0.01100  Biso   1.000  H
  H6       1.0000 0.14280  0.84830  0.98900  Biso   1.000  H
  H7       1.0000 0.95800  0.09710  0.95800  Biso   1.000  H
  H8       1.0000 0.04200  0.90290  0.04200  Biso   1.000  H
  O5       1.0000 0.11400  0.49900  0.54900  Biso   1.000  O
  O6       1.0000 0.88600  0.50100  0.45100  Biso   1.000  O
  O7       1.0000 0.07300  0.43590  0.71920  Biso   1.000  O
  O8       1.0000 0.92700  0.56410  0.28080  Biso   1.000  O
  O9       1.0000 0.17310  0.50580  0.93180  Biso   1.000  O
  O10      1.0000 0.82690  0.49420  0.06820  Biso   1.000  O
  O11      1.0000 0.03910  0.82530  0.25310  Biso   1.000  O
  O12      1.0000 0.96090  0.17470  0.74690  Biso   1.000  O
  O13      1.0000 0.98300  0.36720  0.22360  Biso   1.000  O
  O14      1.0000 0.01700  0.63280  0.77640  Biso   1.000  O
  O15      1.0000 0.98320  0.26870  0.11570  Biso   1.000  O
  O16      1.0000 0.01680  0.73130  0.88430  Biso   1.000  O
  O17      1.0000 0.22800  0.29840  0.84940  Biso   1.000  O
  O18      1.0000 0.77200  0.70160  0.15060  Biso   1.000  O
  O19      1.0000 0.18460  0.12820  0.02990  Biso   1.000  O
  O20      1.0000 0.81540  0.87180  0.97010  Biso   1.000  O
  O21      1.0000 0.01350  0.96660  0.13640  Biso   1.000  O
  O22      1.0000 0.98650  0.03340  0.86360  Biso   1.000  O
  O23      1.0000 0.30000  0.60500  0.94200  Biso   1.000  O
  O24      1.0000 0.70000  0.39500  0.05800  Biso   1.000  O
  C1       1.0000 0.22930  0.11040  0.93770  Biso   1.000  C
  C2       1.0000 0.77070  0.88960  0.06230  Biso   1.000  C
  H9       1.0000 0.20950  0.04180  0.93520  Biso   1.000  H
  H10      1.0000 0.79050  0.95820  0.06480  Biso   1.000  H
  H11      1.0000 0.30740  0.11080  0.92760  Biso   1.000  H
  H12      1.0000 0.69260  0.88920  0.07240  Biso   1.000  H
  C3       1.0000 0.01780  0.18180  0.27960  Biso   1.000  C
  C4       1.0000 0.98220  0.81820  0.72040  Biso   1.000  C
  H13      1.0000 0.95050  0.15850  0.32130  Biso   1.000  H
  H14      1.0000 0.04950  0.84150  0.67870  Biso   1.000  H
  H15      1.0000 0.06390  0.19520  0.32080  Biso   1.000  H
  H16      1.0000 0.93610  0.80480  0.67920  Biso   1.000  H
  C5       1.0000 0.18600  0.19900  0.85540  Biso   1.000  C
  C6       1.0000 0.81400  0.80100  0.14460  Biso   1.000  C
  H17      1.0000 0.20420  0.18190  0.79250  Biso   1.000  H
  H18      1.0000 0.79580  0.81810  0.20750  Biso   1.000  H
  H19      1.0000 0.10880  0.20380  0.87310  Biso   1.000  H
  H20      1.0000 0.89120  0.79620  0.12690  Biso   1.000  H
  C7       1.0000 0.23340  0.06800  0.11260  Biso   1.000  C
  C8       1.0000 0.76660  0.93200  0.88740  Biso   1.000  C
  H21      1.0000 0.31050  0.07200  0.09720  Biso   1.000  H
  H22      1.0000 0.68950  0.92800  0.90280  Biso   1.000  H
  H23      1.0000 0.21550  0.99540  0.13000  Biso   1.000  H
  H24      1.0000 0.78450  0.00460  0.87000  Biso   1.000  H
  C9       1.0000 0.04200  0.98920  0.29000  Biso   1.000  C
  C10      1.0000 0.95800  0.01080  0.71000  Biso   1.000  C
  H25      1.0000 0.09800  0.95930  0.32800  Biso   1.000  H
  H26      1.0000 0.90200  0.04070  0.67200  Biso   1.000  H
  H27      1.0000 0.97610  0.99100  0.33620  Biso   1.000  H
  H28      1.0000 0.02390  0.00900  0.66380  Biso   1.000  H
  C11      1.0000 0.22100  0.54700  0.64900  Biso   1.000  C
  C12      1.0000 0.77900  0.45300  0.35100  Biso   1.000  C
  H29      1.0000 0.28250  0.53630  0.59920  Biso   1.000  H
  H30      1.0000 0.71750  0.46370  0.40080  Biso   1.000  H
  H31      1.0000 0.20230  0.62220  0.63430  Biso   1.000  H
  H32      1.0000 0.79770  0.37780  0.36570  Biso   1.000  H
  C13      1.0000 0.25300  0.56800  0.89400  Biso   1.000  C
  C14      1.0000 0.74700  0.43200  0.10600  Biso   1.000  C
  C15      1.0000 0.33800  0.44100  0.74700  Biso   1.000  C
  C16      1.0000 0.66200  0.55900  0.25300  Biso   1.000  C
  H33      1.0000 0.37450  0.44720  0.79910  Biso   1.000  H
  H34      1.0000 0.62550  0.55280  0.20090  Biso   1.000  H
  H35      1.0000 0.38810  0.46020  0.68430  Biso   1.000  H
  H36      1.0000 0.61190  0.53980  0.31570  Biso   1.000  H
  C17      1.0000 0.27600  0.60000  0.78200  Biso   1.000  C
  C18      1.0000 0.72400  0.40000  0.21800  Biso   1.000  C
  H37      1.0000 0.23330  0.66400  0.75760  Biso   1.000  H
  H38      1.0000 0.76670  0.33600  0.24240  Biso   1.000  H
  H39      1.0000 0.35160  0.61570  0.75910  Biso   1.000  H
  H40      1.0000 0.64840  0.38430  0.24090  Biso   1.000  H
  C19      1.0000 0.18520  0.10800  0.19900  Biso   1.000  C
  C20      1.0000 0.81480  0.89200  0.80100  Biso   1.000  C
  H41      1.0000 0.22040  0.07110  0.25480  Biso   1.000  H
  H42      1.0000 0.77960  0.92890  0.74520  Biso   1.000  H
  H43      1.0000 0.20050  0.18270  0.18340  Biso   1.000  H
  H44      1.0000 0.79950  0.81730  0.81660  Biso   1.000  H
  C21      1.0000 0.02980  0.91740  0.22470  Biso   1.000  C
  C22      1.0000 0.97020  0.08260  0.77530  Biso   1.000  C
  C23      1.0000 0.99670  0.27860  0.20000  Biso   1.000  C
  C24      1.0000 0.00330  0.72140  0.80000  Biso   1.000  C
  C25      1.0000 0.31000  0.32800  0.76700  Biso   1.000  C
  C26      1.0000 0.69000  0.67200  0.23300  Biso   1.000  C
  H45      1.0000 0.28700  0.31860  0.70860  Biso   1.000  H
  H46      1.0000 0.71300  0.68140  0.29140  Biso   1.000  H
  H47      1.0000 0.37370  0.28280  0.77820  Biso   1.000  H
  H48      1.0000 0.62630  0.71720  0.22180  Biso   1.000  H
  C27      1.0000 0.12900  0.49200  0.63860  Biso   1.000  C
  C28      1.0000 0.87100  0.50800  0.36140  Biso   1.000  C
  N1       1.0000 0.25000  0.51330  0.74180  Biso   1.000  N
  N2       1.0000 0.75000  0.48670  0.25820  Biso   1.000  N
  N3       1.0000 0.06810  0.09780  0.23090  Biso   1.000  N
  N4       1.0000 0.93190  0.90220  0.76910  Biso   1.000  N
  W1       1.0000 0.70464  0.06781  0.29462  Biso   1.000  W
  W2       1.0000 0.29536  0.93219  0.70538  Biso   1.000  W
  W3       1.0000 0.45439  0.20154  0.29122  Biso   1.000  W
  W4       1.0000 0.54561  0.79846  0.70878  Biso   1.000  W
  W5       1.0000 0.24838  0.13351  0.49662  Biso   1.000  W
  W6       1.0000 0.75162  0.86649  0.50338  Biso   1.000  W
  W7       1.0000 0.27696  0.87134  0.48511  Biso   1.000  W
  W8       1.0000 0.72304  0.12866  0.51489  Biso   1.000  W
  W9       1.0000 0.48359  0.93972  0.28044  Biso   1.000  W
  W10      1.0000 0.51641  0.06028  0.71956  Biso   1.000  W
  W11      1.0000 0.47097  0.26225  0.51078  Biso   1.000  W
  W12      1.0000 0.52903  0.73775  0.48922  Biso   1.000  W
  O25      1.0000 0.31070  0.19100  0.35880  Biso   1.000  O
  O26      1.0000 0.68930  0.80900  0.64120  Biso   1.000  O
  O27      1.0000 0.60560  0.17970  0.25700  Biso   1.000  O
  O28      1.0000 0.39440  0.82030  0.74300  Biso   1.000  O
  O29      1.0000 0.62550  0.98060  0.25000  Biso   1.000  O
  O30      1.0000 0.37450  0.01940  0.75000  Biso   1.000  O
  O31      1.0000 0.43510  0.08500  0.24200  Biso   1.000  O
  O32      1.0000 0.56490  0.91500  0.75800  Biso   1.000  O
  O33      1.0000 0.45740  0.38750  0.51830  Biso   1.000  O
  O34      1.0000 0.54260  0.61250  0.48170  Biso   1.000  O
  O35      1.0000 0.34350  0.91400  0.34680  Biso   1.000  O
  O36      1.0000 0.65650  0.08600  0.65320  Biso   1.000  O
  O37      1.0000 0.12770  0.20000  0.49260  Biso   1.000  O
  O38      1.0000 0.87230  0.80000  0.50740  Biso   1.000  O
  O39      1.0000 0.47590  0.91210  0.17230  Biso   1.000  O
  O40      1.0000 0.52410  0.08790  0.82770  Biso   1.000  O
  O41      1.0000 0.47300  0.96400  0.61590  Biso   1.000  O
  O42      1.0000 0.52700  0.03600  0.38410  Biso   1.000  O
  O43      1.0000 0.48330  0.28200  0.37320  Biso   1.000  O
  O44      1.0000 0.51670  0.71800  0.62680  Biso   1.000  O
  O45      1.0000 0.80620  0.09910  0.19640  Biso   1.000  O
  O46      1.0000 0.19380  0.90090  0.80360  Biso   1.000  O
  O47      1.0000 0.23000  0.05780  0.63240  Biso   1.000  O
  O48      1.0000 0.77000  0.94220  0.36760  Biso   1.000  O
  O49      1.0000 0.17080  0.80690  0.47740  Biso   1.000  O
  O50      1.0000 0.82920  0.19310  0.52260  Biso   1.000  O
  O51      1.0000 0.25300  0.85740  0.62330  Biso   1.000  O
  O52      1.0000 0.74700  0.14260  0.37670  Biso   1.000  O
  O53      1.0000 0.21300  0.01320  0.46490  Biso   1.000  O
  O54      1.0000 0.78700  0.98680  0.53510  Biso   1.000  O
  O55      1.0000 0.62180  0.24400  0.49010  Biso   1.000  O
  O56      1.0000 0.37820  0.75600  0.50990  Biso   1.000  O
  O57      1.0000 0.53350  0.80900  0.35290  Biso   1.000  O
  O58      1.0000 0.46650  0.19100  0.64710  Biso   1.000  O
  O59      1.0000 0.32490  0.23300  0.52980  Biso   1.000  O
  O60      1.0000 0.67510  0.76700  0.47020  Biso   1.000  O
  O61      1.0000 0.43360  0.29860  0.19120  Biso   1.000  O
  O62      1.0000 0.56640  0.70140  0.80880  Biso   1.000  O
  B1       1.0000 0.50000  0.00000  0.50000  Biso   1.000  B
  O63      1.0000 0.37800  0.99200  0.53120  Biso   1.000  O
  O64      1.0000 0.62200  0.00800  0.46880  Biso   1.000  O
  O65      1.0000 0.56200  0.88900  0.53900  Biso   1.000  O
  O66      1.0000 0.43800  0.11100  0.46100  Biso   1.000  O
  O67      1.0000 0.54000  0.08600  0.54400  Biso   1.000  O
  O68      1.0000 0.46000  0.91400  0.45600  Biso   1.000  O
  O69      1.0000 0.27800  0.78500  0.00300  Biso   1.000  O
  O70      1.0000 0.72200  0.21500  0.99700  Biso   1.000  O
  O71      1.0000 0.77500  0.57300  0.86800  Biso   1.000  O
  O72      1.0000 0.22500  0.42700  0.13200  Biso   1.000  O
  O73      1.0000 0.85000  0.34980  0.81960  Biso   1.000  O
  O74      1.0000 0.15000  0.65020  0.18040  Biso   1.000  O
  O75      1.0000 0.65000  0.69100  0.99100  Biso   1.000  O
  O76      1.0000 0.35000  0.30900  0.00900  Biso   1.000  O
  O77      1.0000 0.03400  0.67150  0.42990  Biso   1.000  O
  O78      1.0000 0.96600  0.32850  0.57010  Biso   1.000  O
  O79      1.0000 0.53300  0.12300  0.00900  Biso   1.000  O
  O80      1.0000 0.46700  0.87700  0.99100  Biso   1.000  O
  O81      1.0000 0.63170  0.56290  0.92680  Biso   1.000  O
  O82      1.0000 0.36830  0.43710  0.07320  Biso   1.000  O
  O83      1.0000 0.73200  0.52500  0.73800  Biso   1.000  O
  O84      1.0000 0.26800  0.47500  0.26200  Biso   1.000  O
  O85      1.0000 0.17000  0.64900  0.35300  Biso   1.000  O
  O86      1.0000 0.83000  0.35100  0.64700  Biso   1.000  O
  O87      1.0000 0.28100  0.75500  0.24400  Biso   1.000  O
  O88      1.0000 0.71900  0.24500  0.75600  Biso   1.000  O
  O89      1.0000 0.35200  0.56700  0.38000  Biso   1.000  O
  O90      1.0000 0.64800  0.43300  0.62000  Biso   1.000  O
  O91      1.0000 0.86500  0.58000  0.64900  Biso   1.000  O
  O92      1.0000 0.13500  0.42000  0.35100  Biso   1.000  O
  C29      1.0000 0.04030  0.51140  0.49240  Biso   1.000  C
  C30      1.0000 0.95970  0.48860  0.50760  Biso   1.000  C
