data_image0
_cell_length_a       21.533
_cell_length_b       6.852
_cell_length_c       17.059
_cell_angle_alpha    90
_cell_angle_beta     94.44
_cell_angle_gamma    90

_symmetry_space_group_name_H-M    "P 1"
_symmetry_int_tables_number       1

loop_
  _symmetry_equiv_pos_as_xyz
  'x, y, z'

loop_
  _atom_site_label
  _atom_site_occupancy
  _atom_site_fract_x
  _atom_site_fract_y
  _atom_site_fract_z
  _atom_site_thermal_displace_type
  _atom_site_B_iso_or_equiv
  _atom_site_type_symbol
  Cu1      1.0000 0.24280  0.21260  0.00290  Biso   1.000  Cu
  Cu2      1.0000 0.74280  0.71260  0.50290  Biso   1.000  Cu
  Cu3      1.0000 0.75720  0.21260  0.49710  Biso   1.000  Cu
  Cu4      1.0000 0.25720  0.71260  0.99710  Biso   1.000  Cu
  Cu5      1.0000 0.75720  0.78740  0.99710  Biso   1.000  Cu
  Cu6      1.0000 0.25720  0.28740  0.49710  Biso   1.000  Cu
  Cu7      1.0000 0.24280  0.78740  0.50290  Biso   1.000  Cu
  Cu8      1.0000 0.74280  0.28740  0.00290  Biso   1.000  Cu
  O1       1.0000 0.22170  0.96280  0.89900  Biso   1.000  O
  O2       1.0000 0.72170  0.46280  0.39900  Biso   1.000  O
  O3       1.0000 0.77830  0.96280  0.60100  Biso   1.000  O
  O4       1.0000 0.27830  0.46280  0.10100  Biso   1.000  O
  O5       1.0000 0.77830  0.03720  0.10100  Biso   1.000  O
  O6       1.0000 0.27830  0.53720  0.60100  Biso   1.000  O
  O7       1.0000 0.22170  0.03720  0.39900  Biso   1.000  O
  O8       1.0000 0.72170  0.53720  0.89900  Biso   1.000  O
  N1       1.0000 0.20090  0.04250  0.07810  Biso   1.000  N
  N2       1.0000 0.70090  0.54250  0.57810  Biso   1.000  N
  N3       1.0000 0.79910  0.04250  0.42190  Biso   1.000  N
  N4       1.0000 0.29910  0.54250  0.92190  Biso   1.000  N
  N5       1.0000 0.79910  0.95750  0.92190  Biso   1.000  N
  N6       1.0000 0.29910  0.45750  0.42190  Biso   1.000  N
  N7       1.0000 0.20090  0.95750  0.57810  Biso   1.000  N
  N8       1.0000 0.70090  0.45750  0.07810  Biso   1.000  N
  N9       1.0000 0.21270  0.85680  0.07980  Biso   1.000  N
  N10      1.0000 0.71270  0.35680  0.57980  Biso   1.000  N
  N11      1.0000 0.78730  0.85680  0.42020  Biso   1.000  N
  N12      1.0000 0.28730  0.35680  0.92020  Biso   1.000  N
  N13      1.0000 0.78730  0.14320  0.92020  Biso   1.000  N
  N14      1.0000 0.28730  0.64320  0.42020  Biso   1.000  N
  N15      1.0000 0.21270  0.14320  0.57980  Biso   1.000  N
  N16      1.0000 0.71270  0.64320  0.07980  Biso   1.000  N
  N17      1.0000 0.18710  0.76280  0.13750  Biso   1.000  N
  N18      1.0000 0.68710  0.26280  0.63750  Biso   1.000  N
  N19      1.0000 0.81290  0.76280  0.36250  Biso   1.000  N
  N20      1.0000 0.31290  0.26280  0.86250  Biso   1.000  N
  N21      1.0000 0.81290  0.23720  0.86250  Biso   1.000  N
  N22      1.0000 0.31290  0.73720  0.36250  Biso   1.000  N
  N23      1.0000 0.18710  0.23720  0.63750  Biso   1.000  N
  N24      1.0000 0.68710  0.73720  0.13750  Biso   1.000  N
  C1       1.0000 0.15740  0.91070  0.17480  Biso   1.000  C
  C2       1.0000 0.65740  0.41070  0.67480  Biso   1.000  C
  C3       1.0000 0.84260  0.91070  0.32520  Biso   1.000  C
  C4       1.0000 0.34260  0.41070  0.82520  Biso   1.000  C
  C5       1.0000 0.84260  0.08930  0.82520  Biso   1.000  C
  C6       1.0000 0.34260  0.58930  0.32520  Biso   1.000  C
  C7       1.0000 0.15740  0.08930  0.67480  Biso   1.000  C
  C8       1.0000 0.65740  0.58930  0.17480  Biso   1.000  C
  C9       1.0000 0.16610  0.09160  0.13940  Biso   1.000  C
  C10      1.0000 0.66610  0.59160  0.63940  Biso   1.000  C
  C11      1.0000 0.83390  0.09160  0.36060  Biso   1.000  C
  C12      1.0000 0.33390  0.59160  0.86060  Biso   1.000  C
  C13      1.0000 0.83390  0.90840  0.86060  Biso   1.000  C
  C14      1.0000 0.33390  0.40840  0.36060  Biso   1.000  C
  C15      1.0000 0.16610  0.90840  0.63940  Biso   1.000  C
  C16      1.0000 0.66610  0.40840  0.13940  Biso   1.000  C
  C17      1.0000 0.13950  0.26190  0.16480  Biso   1.000  C
  C18      1.0000 0.63950  0.76190  0.66480  Biso   1.000  C
  C19      1.0000 0.86050  0.26190  0.33520  Biso   1.000  C
  C20      1.0000 0.36050  0.76190  0.83520  Biso   1.000  C
  C21      1.0000 0.86050  0.73810  0.83520  Biso   1.000  C
  C22      1.0000 0.36050  0.23810  0.33520  Biso   1.000  C
  C23      1.0000 0.13950  0.73810  0.66480  Biso   1.000  C
  C24      1.0000 0.63950  0.23810  0.16480  Biso   1.000  C
  C25      1.0000 0.10490  0.23880  0.23110  Biso   1.000  C
  C26      1.0000 0.60490  0.73880  0.73110  Biso   1.000  C
  C27      1.0000 0.89510  0.23880  0.26890  Biso   1.000  C
  C28      1.0000 0.39510  0.73880  0.76890  Biso   1.000  C
  C29      1.0000 0.89510  0.76120  0.76890  Biso   1.000  C
  C30      1.0000 0.39510  0.26120  0.26890  Biso   1.000  C
  C31      1.0000 0.10490  0.76120  0.73110  Biso   1.000  C
  C32      1.0000 0.60490  0.26120  0.23110  Biso   1.000  C
  C33      1.0000 0.09530  0.06050  0.26410  Biso   1.000  C
  C34      1.0000 0.59530  0.56050  0.76410  Biso   1.000  C
  C35      1.0000 0.90470  0.06050  0.23590  Biso   1.000  C
  C36      1.0000 0.40470  0.56050  0.73590  Biso   1.000  C
  C37      1.0000 0.90470  0.93950  0.73590  Biso   1.000  C
  C38      1.0000 0.40470  0.43950  0.23590  Biso   1.000  C
  C39      1.0000 0.09530  0.93950  0.76410  Biso   1.000  C
  C40      1.0000 0.59530  0.43950  0.26410  Biso   1.000  C
  C41      1.0000 0.12130  0.89550  0.24270  Biso   1.000  C
  C42      1.0000 0.62130  0.39550  0.74270  Biso   1.000  C
  C43      1.0000 0.87870  0.89550  0.25730  Biso   1.000  C
  C44      1.0000 0.37870  0.39550  0.75730  Biso   1.000  C
  C45      1.0000 0.87870  0.10450  0.75730  Biso   1.000  C
  C46      1.0000 0.37870  0.60450  0.25730  Biso   1.000  C
  C47      1.0000 0.12130  0.10450  0.74270  Biso   1.000  C
  C48      1.0000 0.62130  0.60450  0.24270  Biso   1.000  C
  H1       1.0000 0.14800  0.40100  0.13400  Biso   1.000  H
  H2       1.0000 0.64800  0.90100  0.63400  Biso   1.000  H
  H3       1.0000 0.85200  0.40100  0.36600  Biso   1.000  H
  H4       1.0000 0.35200  0.90100  0.86600  Biso   1.000  H
  H5       1.0000 0.85200  0.59900  0.86600  Biso   1.000  H
  H6       1.0000 0.35200  0.09900  0.36600  Biso   1.000  H
  H7       1.0000 0.14800  0.59900  0.63400  Biso   1.000  H
  H8       1.0000 0.64800  0.09900  0.13400  Biso   1.000  H
  H9       1.0000 0.08600  0.35400  0.23900  Biso   1.000  H
  H10      1.0000 0.58600  0.85400  0.73900  Biso   1.000  H
  H11      1.0000 0.91400  0.35400  0.26100  Biso   1.000  H
  H12      1.0000 0.41400  0.85400  0.76100  Biso   1.000  H
  H13      1.0000 0.91400  0.64600  0.76100  Biso   1.000  H
  H14      1.0000 0.41400  0.14600  0.26100  Biso   1.000  H
  H15      1.0000 0.08600  0.64600  0.73900  Biso   1.000  H
  H16      1.0000 0.58600  0.14600  0.23900  Biso   1.000  H
  H17      1.0000 0.07800  0.03400  0.29700  Biso   1.000  H
  H18      1.0000 0.57800  0.53400  0.79700  Biso   1.000  H
  H19      1.0000 0.92200  0.03400  0.20300  Biso   1.000  H
  H20      1.0000 0.42200  0.53400  0.70300  Biso   1.000  H
  H21      1.0000 0.92200  0.96600  0.70300  Biso   1.000  H
  H22      1.0000 0.42200  0.46600  0.20300  Biso   1.000  H
  H23      1.0000 0.07800  0.96600  0.79700  Biso   1.000  H
  H24      1.0000 0.57800  0.46600  0.29700  Biso   1.000  H
  H25      1.0000 0.12700  0.76700  0.25700  Biso   1.000  H
  H26      1.0000 0.62700  0.26700  0.75700  Biso   1.000  H
  H27      1.0000 0.87300  0.76700  0.24300  Biso   1.000  H
  H28      1.0000 0.37300  0.26700  0.74300  Biso   1.000  H
  H29      1.0000 0.87300  0.23300  0.74300  Biso   1.000  H
  H30      1.0000 0.37300  0.73300  0.24300  Biso   1.000  H
  H31      1.0000 0.12700  0.23300  0.75700  Biso   1.000  H
  H32      1.0000 0.62700  0.73300  0.25700  Biso   1.000  H
  N25      1.0000 0.33220  0.88270  0.02340  Biso   1.000  N
  N26      1.0000 0.83220  0.38270  0.52340  Biso   1.000  N
  N27      1.0000 0.66780  0.88270  0.47660  Biso   1.000  N
  N28      1.0000 0.16780  0.38270  0.97660  Biso   1.000  N
  N29      1.0000 0.66780  0.11730  0.97660  Biso   1.000  N
  N30      1.0000 0.16780  0.61730  0.47660  Biso   1.000  N
  N31      1.0000 0.33220  0.11730  0.52340  Biso   1.000  N
  N32      1.0000 0.83220  0.61730  0.02340  Biso   1.000  N
  N33      1.0000 0.32300  0.07030  0.03290  Biso   1.000  N
  N34      1.0000 0.82300  0.57030  0.53290  Biso   1.000  N
  N35      1.0000 0.67700  0.07030  0.46710  Biso   1.000  N
  N36      1.0000 0.17700  0.57030  0.96710  Biso   1.000  N
  N37      1.0000 0.67700  0.92970  0.96710  Biso   1.000  N
  N38      1.0000 0.17700  0.42970  0.46710  Biso   1.000  N
  N39      1.0000 0.32300  0.92970  0.53290  Biso   1.000  N
  N40      1.0000 0.82300  0.42970  0.03290  Biso   1.000  N
  N41      1.0000 0.37290  0.16510  0.06030  Biso   1.000  N
  N42      1.0000 0.87290  0.66510  0.56030  Biso   1.000  N
  N43      1.0000 0.62710  0.16510  0.43970  Biso   1.000  N
  N44      1.0000 0.12710  0.66510  0.93970  Biso   1.000  N
  N45      1.0000 0.62710  0.83490  0.93970  Biso   1.000  N
  N46      1.0000 0.12710  0.33490  0.43970  Biso   1.000  N
  N47      1.0000 0.37290  0.83490  0.56030  Biso   1.000  N
  N48      1.0000 0.87290  0.33490  0.06030  Biso   1.000  N
  C49      1.0000 0.41730  0.02500  0.06970  Biso   1.000  C
  C50      1.0000 0.91730  0.52500  0.56970  Biso   1.000  C
  C51      1.0000 0.58270  0.02500  0.43030  Biso   1.000  C
  C52      1.0000 0.08270  0.52500  0.93030  Biso   1.000  C
  C53      1.0000 0.58270  0.97500  0.93030  Biso   1.000  C
  C54      1.0000 0.08270  0.47500  0.43030  Biso   1.000  C
  C55      1.0000 0.41730  0.97500  0.56970  Biso   1.000  C
  C56      1.0000 0.91730  0.47500  0.06970  Biso   1.000  C
  C57      1.0000 0.39420  0.84710  0.04820  Biso   1.000  C
  C58      1.0000 0.89420  0.34710  0.54820  Biso   1.000  C
  C59      1.0000 0.60580  0.84710  0.45180  Biso   1.000  C
  C60      1.0000 0.10580  0.34710  0.95180  Biso   1.000  C
  C61      1.0000 0.60580  0.15290  0.95180  Biso   1.000  C
  C62      1.0000 0.10580  0.65290  0.45180  Biso   1.000  C
  C63      1.0000 0.39420  0.15290  0.54820  Biso   1.000  C
  C64      1.0000 0.89420  0.65290  0.04820  Biso   1.000  C
  C65      1.0000 0.42820  0.67890  0.05000  Biso   1.000  C
  C66      1.0000 0.92820  0.17890  0.55000  Biso   1.000  C
  C67      1.0000 0.57180  0.67890  0.45000  Biso   1.000  C
  C68      1.0000 0.07180  0.17890  0.95000  Biso   1.000  C
  C69      1.0000 0.57180  0.32110  0.95000  Biso   1.000  C
  C70      1.0000 0.07180  0.82110  0.45000  Biso   1.000  C
  C71      1.0000 0.42820  0.32110  0.55000  Biso   1.000  C
  C72      1.0000 0.92820  0.82110  0.05000  Biso   1.000  C
  C73      1.0000 0.48820  0.69360  0.07890  Biso   1.000  C
  C74      1.0000 0.98820  0.19360  0.57890  Biso   1.000  C
  C75      1.0000 0.51180  0.69360  0.42110  Biso   1.000  C
  C76      1.0000 0.01180  0.19360  0.92110  Biso   1.000  C
  C77      1.0000 0.51180  0.30640  0.92110  Biso   1.000  C
  C78      1.0000 0.01180  0.80640  0.42110  Biso   1.000  C
  C79      1.0000 0.48820  0.30640  0.57890  Biso   1.000  C
  C80      1.0000 0.98820  0.80640  0.07890  Biso   1.000  C
  C81      1.0000 0.51330  0.87180  0.10190  Biso   1.000  C
  C82      1.0000 0.01330  0.37180  0.60190  Biso   1.000  C
  C83      1.0000 0.48670  0.87180  0.39810  Biso   1.000  C
  C84      1.0000 0.98670  0.37180  0.89810  Biso   1.000  C
  C85      1.0000 0.48670  0.12820  0.89810  Biso   1.000  C
  C86      1.0000 0.98670  0.62820  0.39810  Biso   1.000  C
  C87      1.0000 0.51330  0.12820  0.60190  Biso   1.000  C
  C88      1.0000 0.01330  0.62820  0.10190  Biso   1.000  C
  C89      1.0000 0.47970  0.03450  0.10050  Biso   1.000  C
  C90      1.0000 0.97970  0.53450  0.60050  Biso   1.000  C
  C91      1.0000 0.52030  0.03450  0.39950  Biso   1.000  C
  C92      1.0000 0.02030  0.53450  0.89950  Biso   1.000  C
  C93      1.0000 0.52030  0.96550  0.89950  Biso   1.000  C
  C94      1.0000 0.02030  0.46550  0.39950  Biso   1.000  C
  C95      1.0000 0.47970  0.96550  0.60050  Biso   1.000  C
  C96      1.0000 0.97970  0.46550  0.10050  Biso   1.000  C
  H33      1.0000 0.40600  0.60100  0.03800  Biso   1.000  H
  H34      1.0000 0.90600  0.10100  0.53800  Biso   1.000  H
  H35      1.0000 0.59400  0.60100  0.46200  Biso   1.000  H
  H36      1.0000 0.09400  0.10100  0.96200  Biso   1.000  H
  H37      1.0000 0.59400  0.39900  0.96200  Biso   1.000  H
  H38      1.0000 0.09400  0.89900  0.46200  Biso   1.000  H
  H39      1.0000 0.40600  0.39900  0.53800  Biso   1.000  H
  H40      1.0000 0.90600  0.89900  0.03800  Biso   1.000  H
  H41      1.0000 0.50500  0.60400  0.10200  Biso   1.000  H
  H42      1.0000 0.00500  0.10400  0.60200  Biso   1.000  H
  H43      1.0000 0.49500  0.60400  0.39800  Biso   1.000  H
  H44      1.0000 0.99500  0.10400  0.89800  Biso   1.000  H
  H45      1.0000 0.49500  0.39600  0.89800  Biso   1.000  H
  H46      1.0000 0.99500  0.89600  0.39800  Biso   1.000  H
  H47      1.0000 0.50500  0.39600  0.60200  Biso   1.000  H
  H48      1.0000 0.00500  0.89600  0.10200  Biso   1.000  H
  H49      1.0000 0.55300  0.87100  0.10800  Biso   1.000  H
  H50      1.0000 0.05300  0.37100  0.60800  Biso   1.000  H
  H51      1.0000 0.44700  0.87100  0.39200  Biso   1.000  H
  H52      1.0000 0.94700  0.37100  0.89200  Biso   1.000  H
  H53      1.0000 0.44700  0.12900  0.89200  Biso   1.000  H
  H54      1.0000 0.94700  0.62900  0.39200  Biso   1.000  H
  H55      1.0000 0.55300  0.12900  0.60800  Biso   1.000  H
  H56      1.0000 0.05300  0.62900  0.10800  Biso   1.000  H
  H57      1.0000 0.48900  0.12300  0.11800  Biso   1.000  H
  H58      1.0000 0.98900  0.62300  0.61800  Biso   1.000  H
  H59      1.0000 0.51100  0.12300  0.38200  Biso   1.000  H
  H60      1.0000 0.01100  0.62300  0.88200  Biso   1.000  H
  H61      1.0000 0.51100  0.87700  0.88200  Biso   1.000  H
  H62      1.0000 0.01100  0.37700  0.38200  Biso   1.000  H
  H63      1.0000 0.48900  0.87700  0.61800  Biso   1.000  H
  H64      1.0000 0.98900  0.37700  0.11800  Biso   1.000  H
