data_image0
_cell_length_a       6.977
_cell_length_b       12.234
_cell_length_c       12.008
_cell_angle_alpha    90
_cell_angle_beta     120.44
_cell_angle_gamma    90

_symmetry_space_group_name_H-M    "P 1"
_symmetry_int_tables_number       1

loop_
  _symmetry_equiv_pos_as_xyz
  'x, y, z'

loop_
  _atom_site_label
  _atom_site_occupancy
  _atom_site_fract_x
  _atom_site_fract_y
  _atom_site_fract_z
  _atom_site_thermal_displace_type
  _atom_site_B_iso_or_equiv
  _atom_site_type_symbol
  Cu1      1.0000 0.00000  0.00000  0.50000  Biso   1.000  Cu
  Cu2      1.0000 0.50000  0.50000  0.50000  Biso   1.000  Cu
  Cu3      1.0000 0.00000  0.00000  0.00000  Biso   1.000  Cu
  Cu4      1.0000 0.50000  0.50000  0.00000  Biso   1.000  Cu
  N1       1.0000 0.99860  0.94010  0.34660  Biso   1.000  N
  N2       1.0000 0.49860  0.44010  0.34660  Biso   1.000  N
  N3       1.0000 0.00140  0.94010  0.15340  Biso   1.000  N
  N4       1.0000 0.50140  0.44010  0.15340  Biso   1.000  N
  N5       1.0000 0.00140  0.05990  0.65340  Biso   1.000  N
  N6       1.0000 0.50140  0.55990  0.65340  Biso   1.000  N
  N7       1.0000 0.99860  0.05990  0.84660  Biso   1.000  N
  N8       1.0000 0.49860  0.55990  0.84660  Biso   1.000  N
  C1       1.0000 0.99900  0.83050  0.34740  Biso   1.000  C
  C2       1.0000 0.49900  0.33050  0.34740  Biso   1.000  C
  C3       1.0000 0.00100  0.83050  0.15260  Biso   1.000  C
  C4       1.0000 0.50100  0.33050  0.15260  Biso   1.000  C
  C5       1.0000 0.00100  0.16950  0.65260  Biso   1.000  C
  C6       1.0000 0.50100  0.66950  0.65260  Biso   1.000  C
  C7       1.0000 0.99900  0.16950  0.84740  Biso   1.000  C
  C8       1.0000 0.49900  0.66950  0.84740  Biso   1.000  C
  C9       1.0000 0.00000  0.77190  0.25000  Biso   1.000  C
  C10      1.0000 0.50000  0.27190  0.25000  Biso   1.000  C
  C11      1.0000 0.00000  0.22810  0.75000  Biso   1.000  C
  C12      1.0000 0.50000  0.72810  0.75000  Biso   1.000  C
  H1       1.0000 0.00000  0.69590  0.25000  Biso   1.000  H
  H2       1.0000 0.50000  0.19590  0.25000  Biso   1.000  H
  H3       1.0000 0.00000  0.30410  0.75000  Biso   1.000  H
  H4       1.0000 0.50000  0.80410  0.75000  Biso   1.000  H
  C13      1.0000 0.00000  0.99180  0.25000  Biso   1.000  C
  C14      1.0000 0.50000  0.49180  0.25000  Biso   1.000  C
  C15      1.0000 0.00000  0.00820  0.75000  Biso   1.000  C
  C16      1.0000 0.50000  0.50820  0.75000  Biso   1.000  C
  H5       1.0000 0.00000  0.06780  0.25000  Biso   1.000  H
  H6       1.0000 0.50000  0.56780  0.25000  Biso   1.000  H
  H7       1.0000 0.00000  0.93220  0.75000  Biso   1.000  H
  H8       1.0000 0.50000  0.43220  0.75000  Biso   1.000  H
  C17      1.0000 0.00170  0.77900  0.46390  Biso   1.000  C
  C18      1.0000 0.50170  0.27900  0.46390  Biso   1.000  C
  C19      1.0000 0.99830  0.77900  0.03610  Biso   1.000  C
  C20      1.0000 0.49830  0.27900  0.03610  Biso   1.000  C
  C21      1.0000 0.99830  0.22100  0.53610  Biso   1.000  C
  C22      1.0000 0.49830  0.72100  0.53610  Biso   1.000  C
  C23      1.0000 0.00170  0.22100  0.96390  Biso   1.000  C
  C24      1.0000 0.50170  0.72100  0.96390  Biso   1.000  C
  O1       1.0000 0.01960  0.84674  0.54810  Biso   1.000  O
  O2       1.0000 0.51960  0.34674  0.54810  Biso   1.000  O
  O3       1.0000 0.98040  0.84674  0.95190  Biso   1.000  O
  O4       1.0000 0.48040  0.34674  0.95190  Biso   1.000  O
  O5       1.0000 0.98040  0.15326  0.45190  Biso   1.000  O
  O6       1.0000 0.48040  0.65326  0.45190  Biso   1.000  O
  O7       1.0000 0.01960  0.15326  0.04810  Biso   1.000  O
  O8       1.0000 0.51960  0.65326  0.04810  Biso   1.000  O
  O9       1.0000 0.99610  0.67916  0.46960  Biso   1.000  O
  O10      1.0000 0.49610  0.17916  0.46960  Biso   1.000  O
  O11      1.0000 0.00390  0.67916  0.03040  Biso   1.000  O
  O12      1.0000 0.50390  0.17916  0.03040  Biso   1.000  O
  O13      1.0000 0.00390  0.32084  0.53040  Biso   1.000  O
  O14      1.0000 0.50390  0.82084  0.53040  Biso   1.000  O
  O15      1.0000 0.99610  0.32084  0.96960  Biso   1.000  O
  O16      1.0000 0.49610  0.82084  0.96960  Biso   1.000  O
  O17      1.0000 0.59440  0.97170  0.38470  Biso   1.000  O
  O18      1.0000 0.09440  0.47170  0.38470  Biso   1.000  O
  O19      1.0000 0.40560  0.97170  0.11530  Biso   1.000  O
  O20      1.0000 0.90560  0.47170  0.11530  Biso   1.000  O
  O21      1.0000 0.40560  0.02830  0.61530  Biso   1.000  O
  O22      1.0000 0.90560  0.52830  0.61530  Biso   1.000  O
  O23      1.0000 0.59440  0.02830  0.88470  Biso   1.000  O
  O24      1.0000 0.09440  0.52830  0.88470  Biso   1.000  O
  H9       1.0000 0.56760  0.03300  0.39670  Biso   1.000  H
  H10      1.0000 0.06760  0.53300  0.39670  Biso   1.000  H
  H11      1.0000 0.43240  0.03300  0.10330  Biso   1.000  H
  H12      1.0000 0.93240  0.53300  0.10330  Biso   1.000  H
  H13      1.0000 0.43240  0.96700  0.60330  Biso   1.000  H
  H14      1.0000 0.93240  0.46700  0.60330  Biso   1.000  H
  H15      1.0000 0.56760  0.96700  0.89670  Biso   1.000  H
  H16      1.0000 0.06760  0.46700  0.89670  Biso   1.000  H
  H17      1.0000 0.55870  0.92230  0.41740  Biso   1.000  H
  H18      1.0000 0.05870  0.42230  0.41740  Biso   1.000  H
  H19      1.0000 0.44130  0.92230  0.08260  Biso   1.000  H
  H20      1.0000 0.94130  0.42230  0.08260  Biso   1.000  H
  H21      1.0000 0.44130  0.07770  0.58260  Biso   1.000  H
  H22      1.0000 0.94130  0.57770  0.58260  Biso   1.000  H
  H23      1.0000 0.55870  0.07770  0.91740  Biso   1.000  H
  H24      1.0000 0.05870  0.57770  0.91740  Biso   1.000  H
  O25      1.0000 0.00000  0.27650  0.25000  Biso   1.000  O
  O26      1.0000 0.50000  0.77650  0.25000  Biso   1.000  O
  O27      1.0000 0.00000  0.72350  0.75000  Biso   1.000  O
  O28      1.0000 0.50000  0.22350  0.75000  Biso   1.000  O
