data_image0
_cell_length_a       9.928
_cell_length_b       16.232
_cell_length_c       13.412
_cell_angle_alpha    90
_cell_angle_beta     115.14
_cell_angle_gamma    90

_symmetry_space_group_name_H-M    "P 1"
_symmetry_int_tables_number       1

loop_
  _symmetry_equiv_pos_as_xyz
  'x, y, z'

loop_
  _atom_site_label
  _atom_site_occupancy
  _atom_site_fract_x
  _atom_site_fract_y
  _atom_site_fract_z
  _atom_site_thermal_displace_type
  _atom_site_B_iso_or_equiv
  _atom_site_type_symbol
  Cu1      1.0000 0.60836  0.76672  0.92800  Biso   1.000  Cu
  Cu2      1.0000 0.39164  0.26673  0.57200  Biso   1.000  Cu
  Cu3      1.0000 0.39164  0.23328  0.07200  Biso   1.000  Cu
  Cu4      1.0000 0.60836  0.73328  0.42800  Biso   1.000  Cu
  N1       1.0000 0.57580  0.79983  0.08364  Biso   1.000  N
  N2       1.0000 0.42420  0.29983  0.41636  Biso   1.000  N
  N3       1.0000 0.42420  0.20017  0.91636  Biso   1.000  N
  N4       1.0000 0.57580  0.70017  0.58364  Biso   1.000  N
  C1       1.0000 0.61460  0.76371  0.18060  Biso   1.000  C
  C2       1.0000 0.38540  0.26371  0.31940  Biso   1.000  C
  C3       1.0000 0.38540  0.23629  0.81940  Biso   1.000  C
  C4       1.0000 0.61460  0.73629  0.68060  Biso   1.000  C
  H1       1.0000 0.69670  0.72880  0.20450  Biso   1.000  H
  H2       1.0000 0.30330  0.22880  0.29550  Biso   1.000  H
  H3       1.0000 0.30330  0.27120  0.79550  Biso   1.000  H
  H4       1.0000 0.69670  0.77120  0.70450  Biso   1.000  H
  N5       1.0000 0.54650  0.77289  0.24711  Biso   1.000  N
  N6       1.0000 0.45350  0.27289  0.25289  Biso   1.000  N
  N7       1.0000 0.45350  0.22711  0.75289  Biso   1.000  N
  N8       1.0000 0.54650  0.72711  0.74711  Biso   1.000  N
  C5       1.0000 0.42940  0.82325  0.21170  Biso   1.000  C
  C6       1.0000 0.57060  0.32325  0.28830  Biso   1.000  C
  C7       1.0000 0.57060  0.17675  0.78830  Biso   1.000  C
  C8       1.0000 0.42940  0.67675  0.71170  Biso   1.000  C
  C9       1.0000 0.38430  0.86568  0.11430  Biso   1.000  C
  C10      1.0000 0.61570  0.36568  0.38570  Biso   1.000  C
  C11      1.0000 0.61570  0.13432  0.88570  Biso   1.000  C
  C12      1.0000 0.38430  0.63432  0.61430  Biso   1.000  C
  H5       1.0000 0.30450  0.90210  0.09180  Biso   1.000  H
  H6       1.0000 0.69550  0.40210  0.40820  Biso   1.000  H
  H7       1.0000 0.69550  0.09790  0.90820  Biso   1.000  H
  H8       1.0000 0.30450  0.59790  0.59180  Biso   1.000  H
  C13      1.0000 0.46130  0.85245  0.05102  Biso   1.000  C
  C14      1.0000 0.53870  0.35245  0.44898  Biso   1.000  C
  C15      1.0000 0.53870  0.14755  0.94898  Biso   1.000  C
  C16      1.0000 0.46130  0.64755  0.55102  Biso   1.000  C
  C17      1.0000 0.42130  0.89516  0.94190  Biso   1.000  C
  C18      1.0000 0.57870  0.39516  0.55810  Biso   1.000  C
  C19      1.0000 0.57870  0.10484  0.05810  Biso   1.000  C
  C20      1.0000 0.42130  0.60484  0.44190  Biso   1.000  C
  O1       1.0000 0.48353  0.86720  0.88275  Biso   1.000  O
  O2       1.0000 0.51647  0.36720  0.61725  Biso   1.000  O
  O3       1.0000 0.51647  0.13280  0.11725  Biso   1.000  O
  O4       1.0000 0.48353  0.63280  0.38275  Biso   1.000  O
  O5       1.0000 0.33410  0.95280  0.91811  Biso   1.000  O
  O6       1.0000 0.66590  0.45280  0.58189  Biso   1.000  O
  O7       1.0000 0.66590  0.04720  0.08189  Biso   1.000  O
  O8       1.0000 0.33410  0.54720  0.41811  Biso   1.000  O
  C21      1.0000 0.34690  0.82922  0.28520  Biso   1.000  C
  C22      1.0000 0.65310  0.32922  0.21480  Biso   1.000  C
  C23      1.0000 0.65310  0.17078  0.71480  Biso   1.000  C
  C24      1.0000 0.34690  0.67078  0.78520  Biso   1.000  C
  O9       1.0000 0.40950  0.79788  0.37933  Biso   1.000  O
  O10      1.0000 0.59050  0.29788  0.12067  Biso   1.000  O
  O11      1.0000 0.59050  0.20212  0.62067  Biso   1.000  O
  O12      1.0000 0.40950  0.70212  0.87933  Biso   1.000  O
  O13      1.0000 0.22550  0.86428  0.24614  Biso   1.000  O
  O14      1.0000 0.77450  0.36428  0.25386  Biso   1.000  O
  O15      1.0000 0.77450  0.13572  0.75386  Biso   1.000  O
  O16      1.0000 0.22550  0.63572  0.74614  Biso   1.000  O
  N9       1.0000 0.79270  0.82812  0.93709  Biso   1.000  N
  N10      1.0000 0.20730  0.32812  0.56291  Biso   1.000  N
  N11      1.0000 0.20730  0.17188  0.06291  Biso   1.000  N
  N12      1.0000 0.79270  0.67188  0.43709  Biso   1.000  N
  C25      1.0000 0.77850  0.90917  0.91010  Biso   1.000  C
  C26      1.0000 0.22150  0.40917  0.58990  Biso   1.000  C
  C27      1.0000 0.22150  0.09083  0.08990  Biso   1.000  C
  C28      1.0000 0.77850  0.59083  0.41010  Biso   1.000  C
  H9       1.0000 0.69770  0.93760  0.91100  Biso   1.000  H
  H10      1.0000 0.30230  0.43760  0.58900  Biso   1.000  H
  H11      1.0000 0.30230  0.06240  0.08900  Biso   1.000  H
  H12      1.0000 0.69770  0.56240  0.41100  Biso   1.000  H
  C29      1.0000 0.87560  0.95140  0.88170  Biso   1.000  C
  C30      1.0000 0.12440  0.45140  0.61830  Biso   1.000  C
  C31      1.0000 0.12440  0.04860  0.11830  Biso   1.000  C
  C32      1.0000 0.87560  0.54860  0.38170  Biso   1.000  C
  H13      1.0000 0.86200  0.00720  0.86470  Biso   1.000  H
  H14      1.0000 0.13800  0.50720  0.63530  Biso   1.000  H
  H15      1.0000 0.13800  0.99280  0.13530  Biso   1.000  H
  H16      1.0000 0.86200  0.49280  0.36470  Biso   1.000  H
  C33      1.0000 0.99430  0.90936  0.87890  Biso   1.000  C
  C34      1.0000 0.00570  0.40936  0.62110  Biso   1.000  C
  C35      1.0000 0.00570  0.09064  0.12110  Biso   1.000  C
  C36      1.0000 0.99430  0.59064  0.37890  Biso   1.000  C
  H17      1.0000 0.06040  0.93590  0.85710  Biso   1.000  H
  H18      1.0000 0.93960  0.43590  0.64290  Biso   1.000  H
  H19      1.0000 0.93960  0.06410  0.14290  Biso   1.000  H
  H20      1.0000 0.06040  0.56410  0.35710  Biso   1.000  H
  C37      1.0000 0.01380  0.82896  0.90820  Biso   1.000  C
  C38      1.0000 0.98620  0.32896  0.59180  Biso   1.000  C
  C39      1.0000 0.98620  0.17104  0.09180  Biso   1.000  C
  C40      1.0000 0.01380  0.67104  0.40820  Biso   1.000  C
  H21      1.0000 0.09500  0.80040  0.90820  Biso   1.000  H
  H22      1.0000 0.90500  0.30040  0.59180  Biso   1.000  H
  H23      1.0000 0.90500  0.19960  0.09180  Biso   1.000  H
  H24      1.0000 0.09500  0.69960  0.40820  Biso   1.000  H
  C41      1.0000 0.91190  0.78864  0.93840  Biso   1.000  C
  C42      1.0000 0.08810  0.28864  0.56160  Biso   1.000  C
  C43      1.0000 0.08810  0.21136  0.06160  Biso   1.000  C
  C44      1.0000 0.91190  0.71136  0.43840  Biso   1.000  C
  N13      1.0000 0.93950  0.70822  0.97060  Biso   1.000  N
  N14      1.0000 0.06050  0.20822  0.52940  Biso   1.000  N
  N15      1.0000 0.06050  0.29178  0.02940  Biso   1.000  N
  N16      1.0000 0.93950  0.79178  0.47060  Biso   1.000  N
  H25      1.0000 0.02250  0.68730  0.97660  Biso   1.000  H
  H26      1.0000 0.97750  0.18730  0.52340  Biso   1.000  H
  H27      1.0000 0.97750  0.31270  0.02340  Biso   1.000  H
  H28      1.0000 0.02250  0.81270  0.47660  Biso   1.000  H
  C45      1.0000 0.86880  0.65398  0.01130  Biso   1.000  C
  C46      1.0000 0.13120  0.15398  0.48870  Biso   1.000  C
  C47      1.0000 0.13120  0.34602  0.98870  Biso   1.000  C
  C48      1.0000 0.86880  0.84602  0.51130  Biso   1.000  C
  N17      1.0000 0.72860  0.66774  0.99722  Biso   1.000  N
  N18      1.0000 0.27140  0.16774  0.50278  Biso   1.000  N
  N19      1.0000 0.27140  0.33226  0.00278  Biso   1.000  N
  N20      1.0000 0.72860  0.83226  0.49722  Biso   1.000  N
  C49      1.0000 0.66580  0.60964  0.03800  Biso   1.000  C
  C50      1.0000 0.33420  0.10964  0.46200  Biso   1.000  C
  C51      1.0000 0.33420  0.39036  0.96200  Biso   1.000  C
  C52      1.0000 0.66580  0.89036  0.53800  Biso   1.000  C
  H29      1.0000 0.56920  0.61870  0.02990  Biso   1.000  H
  H30      1.0000 0.43080  0.11870  0.47010  Biso   1.000  H
  H31      1.0000 0.43080  0.38130  0.97010  Biso   1.000  H
  H32      1.0000 0.56920  0.88130  0.52990  Biso   1.000  H
  C53      1.0000 0.73470  0.54017  0.08900  Biso   1.000  C
  C54      1.0000 0.26530  0.04017  0.41100  Biso   1.000  C
  C55      1.0000 0.26530  0.45983  0.91100  Biso   1.000  C
  C56      1.0000 0.73470  0.95983  0.58900  Biso   1.000  C
  H33      1.0000 0.68630  0.50200  0.11400  Biso   1.000  H
  H34      1.0000 0.31370  0.00200  0.38600  Biso   1.000  H
  H35      1.0000 0.31370  0.49800  0.88600  Biso   1.000  H
  H36      1.0000 0.68630  0.99800  0.61400  Biso   1.000  H
  C57      1.0000 0.87990  0.52693  0.10350  Biso   1.000  C
  C58      1.0000 0.12010  0.02693  0.39650  Biso   1.000  C
  C59      1.0000 0.12010  0.47307  0.89650  Biso   1.000  C
  C60      1.0000 0.87990  0.97307  0.60350  Biso   1.000  C
  H37      1.0000 0.93110  0.47990  0.13930  Biso   1.000  H
  H38      1.0000 0.06890  0.97990  0.36070  Biso   1.000  H
  H39      1.0000 0.06890  0.52010  0.86070  Biso   1.000  H
  H40      1.0000 0.93110  0.02010  0.63930  Biso   1.000  H
  C61      1.0000 0.94620  0.58356  0.06470  Biso   1.000  C
  C62      1.0000 0.05380  0.08356  0.43530  Biso   1.000  C
  C63      1.0000 0.05380  0.41644  0.93530  Biso   1.000  C
  C64      1.0000 0.94620  0.91644  0.56470  Biso   1.000  C
  H41      1.0000 0.04350  0.57540  0.07390  Biso   1.000  H
  H42      1.0000 0.95650  0.07540  0.42610  Biso   1.000  H
  H43      1.0000 0.95650  0.42460  0.92610  Biso   1.000  H
  H44      1.0000 0.04350  0.92460  0.57390  Biso   1.000  H
  O17      1.0000 0.93690  0.83769  0.21880  Biso   1.000  O
  O18      1.0000 0.06310  0.33769  0.28120  Biso   1.000  O
  O19      1.0000 0.06310  0.16231  0.78120  Biso   1.000  O
  O20      1.0000 0.93690  0.66231  0.71880  Biso   1.000  O
  H45      1.0000 0.90530  0.81550  0.15420  Biso   1.000  H
  H46      1.0000 0.09470  0.31550  0.34580  Biso   1.000  H
  H47      1.0000 0.09470  0.18450  0.84580  Biso   1.000  H
  H48      1.0000 0.90530  0.68450  0.65420  Biso   1.000  H
  H49      1.0000 0.03230  0.84020  0.24250  Biso   1.000  H
  H50      1.0000 0.96770  0.34020  0.25750  Biso   1.000  H
  H51      1.0000 0.96770  0.15980  0.75750  Biso   1.000  H
  H52      1.0000 0.03230  0.65980  0.74250  Biso   1.000  H
  O21      1.0000 0.75240  0.94988  0.27168  Biso   1.000  O
  O22      1.0000 0.24760  0.44988  0.22832  Biso   1.000  O
  O23      1.0000 0.24760  0.05012  0.72832  Biso   1.000  O
  O24      1.0000 0.75240  0.55012  0.77168  Biso   1.000  O
  H53      1.0000 0.81020  0.91050  0.25830  Biso   1.000  H
  H54      1.0000 0.18980  0.41050  0.24170  Biso   1.000  H
  H55      1.0000 0.18980  0.08950  0.74170  Biso   1.000  H
  H56      1.0000 0.81020  0.58950  0.75830  Biso   1.000  H
  H57      1.0000 0.72980  0.98850  0.22320  Biso   1.000  H
  H58      1.0000 0.27020  0.48850  0.27680  Biso   1.000  H
  H59      1.0000 0.27020  0.01150  0.77680  Biso   1.000  H
  H60      1.0000 0.72980  0.51150  0.72320  Biso   1.000  H
  O25      1.0000 0.41600  0.56411  0.16810  Biso   1.000  O
  O26      1.0000 0.58400  0.06411  0.33190  Biso   1.000  O
  O27      1.0000 0.58400  0.43589  0.83190  Biso   1.000  O
  O28      1.0000 0.41600  0.93589  0.66810  Biso   1.000  O
  H61      1.0000 0.36840  0.52340  0.17060  Biso   1.000  H
  H62      1.0000 0.63160  0.02340  0.32940  Biso   1.000  H
  H63      1.0000 0.63160  0.47660  0.82940  Biso   1.000  H
  H64      1.0000 0.36840  0.97660  0.67060  Biso   1.000  H
  H65      1.0000 0.43830  0.57800  0.24600  Biso   1.000  H
  H66      1.0000 0.56170  0.07800  0.25400  Biso   1.000  H
  H67      1.0000 0.56170  0.42200  0.75400  Biso   1.000  H
  H68      1.0000 0.43830  0.92200  0.74600  Biso   1.000  H
  O29      1.0000 0.23470  0.66757  0.00293  Biso   1.000  O
  O30      1.0000 0.76530  0.16757  0.49707  Biso   1.000  O
  O31      1.0000 0.76530  0.33243  0.99707  Biso   1.000  O
  O32      1.0000 0.23470  0.83243  0.50293  Biso   1.000  O
  H69      1.0000 0.29460  0.63020  0.04910  Biso   1.000  H
  H70      1.0000 0.70540  0.13020  0.45090  Biso   1.000  H
  H71      1.0000 0.70540  0.36980  0.95090  Biso   1.000  H
  H72      1.0000 0.29460  0.86980  0.54910  Biso   1.000  H
  H73      1.0000 0.27720  0.67580  0.96070  Biso   1.000  H
  H74      1.0000 0.72280  0.17580  0.53930  Biso   1.000  H
  H75      1.0000 0.72280  0.32420  0.03930  Biso   1.000  H
  H76      1.0000 0.27720  0.82420  0.46070  Biso   1.000  H
