data_image0
_cell_length_a       8.832
_cell_length_b       14.517
_cell_length_c       14.79
_cell_angle_alpha    90
_cell_angle_beta     90
_cell_angle_gamma    90

_symmetry_space_group_name_H-M    "P 1"
_symmetry_int_tables_number       1

loop_
  _symmetry_equiv_pos_as_xyz
  'x, y, z'

loop_
  _atom_site_label
  _atom_site_occupancy
  _atom_site_fract_x
  _atom_site_fract_y
  _atom_site_fract_z
  _atom_site_thermal_displace_type
  _atom_site_B_iso_or_equiv
  _atom_site_type_symbol
  Cu1      1.0000 0.01449  0.30729  0.25936  Biso   1.000  Cu
  Cu2      1.0000 0.48551  0.69271  0.75936  Biso   1.000  Cu
  Cu3      1.0000 0.98551  0.80729  0.24064  Biso   1.000  Cu
  Cu4      1.0000 0.51449  0.19271  0.74064  Biso   1.000  Cu
  N1       1.0000 0.83170  0.24456  0.31991  Biso   1.000  N
  N2       1.0000 0.66830  0.75544  0.81991  Biso   1.000  N
  N3       1.0000 0.16830  0.74456  0.18009  Biso   1.000  N
  N4       1.0000 0.33170  0.25544  0.68009  Biso   1.000  N
  N5       1.0000 0.95580  0.20547  0.16326  Biso   1.000  N
  N6       1.0000 0.54420  0.79453  0.66326  Biso   1.000  N
  N7       1.0000 0.04420  0.70547  0.33674  Biso   1.000  N
  N8       1.0000 0.45580  0.29453  0.83674  Biso   1.000  N
  N9       1.0000 0.98550  0.19401  0.07270  Biso   1.000  N
  N10      1.0000 0.51450  0.80599  0.57270  Biso   1.000  N
  N11      1.0000 0.01450  0.69401  0.42730  Biso   1.000  N
  N12      1.0000 0.48550  0.30599  0.92730  Biso   1.000  N
  N13      1.0000 0.75890  0.13767  0.10220  Biso   1.000  N
  N14      1.0000 0.74110  0.86233  0.60220  Biso   1.000  N
  N15      1.0000 0.24110  0.63767  0.39780  Biso   1.000  N
  N16      1.0000 0.25890  0.36233  0.89780  Biso   1.000  N
  N17      1.0000 0.49560  0.14257  0.11514  Biso   1.000  N
  N18      1.0000 0.00440  0.85743  0.61514  Biso   1.000  N
  N19      1.0000 0.50440  0.64257  0.38486  Biso   1.000  N
  N20      1.0000 0.99560  0.35743  0.88486  Biso   1.000  N
  N21      1.0000 0.70700  0.15485  0.80413  Biso   1.000  N
  N22      1.0000 0.79300  0.84515  0.30413  Biso   1.000  N
  N23      1.0000 0.29300  0.65485  0.69587  Biso   1.000  N
  N24      1.0000 0.20700  0.34515  0.19587  Biso   1.000  N
  N25      1.0000 0.16320  0.19910  0.34250  Biso   1.000  N
  N26      1.0000 0.33680  0.80090  0.84250  Biso   1.000  N
  N27      1.0000 0.83680  0.69910  0.15750  Biso   1.000  N
  N28      1.0000 0.66320  0.30090  0.65750  Biso   1.000  N
  N29      1.0000 0.26870  0.04300  0.33830  Biso   1.000  N
  N30      1.0000 0.23130  0.95700  0.83830  Biso   1.000  N
  N31      1.0000 0.73130  0.54300  0.16170  Biso   1.000  N
  N32      1.0000 0.76870  0.45700  0.66170  Biso   1.000  N
  N33      1.0000 0.12870  0.89970  0.33940  Biso   1.000  N
  N34      1.0000 0.37130  0.10030  0.83940  Biso   1.000  N
  N35      1.0000 0.87130  0.39970  0.16060  Biso   1.000  N
  N36      1.0000 0.62870  0.60030  0.66060  Biso   1.000  N
  Cl1      1.0000 0.03343  0.42560  0.36397  Biso   1.000  Cl
  Cl2      1.0000 0.46657  0.57440  0.86397  Biso   1.000  Cl
  Cl3      1.0000 0.96657  0.92560  0.13603  Biso   1.000  Cl
  Cl4      1.0000 0.53343  0.07440  0.63603  Biso   1.000  Cl
  C1       1.0000 0.79270  0.25550  0.40687  Biso   1.000  C
  C2       1.0000 0.70730  0.74450  0.90687  Biso   1.000  C
  C3       1.0000 0.20730  0.75550  0.09313  Biso   1.000  C
  C4       1.0000 0.29270  0.24450  0.59313  Biso   1.000  C
  H1       1.0000 0.84210  0.30020  0.44080  Biso   1.000  H
  H2       1.0000 0.65790  0.69980  0.94080  Biso   1.000  H
  H3       1.0000 0.15790  0.80020  0.05920  Biso   1.000  H
  H4       1.0000 0.34210  0.19980  0.55920  Biso   1.000  H
  C5       1.0000 0.68250  0.20320  0.44784  Biso   1.000  C
  C6       1.0000 0.81750  0.79680  0.94784  Biso   1.000  C
  C7       1.0000 0.31750  0.70320  0.05216  Biso   1.000  C
  C8       1.0000 0.18250  0.29680  0.55216  Biso   1.000  C
  H5       1.0000 0.65880  0.21250  0.50840  Biso   1.000  H
  H6       1.0000 0.84120  0.78750  0.00840  Biso   1.000  H
  H7       1.0000 0.34120  0.71250  0.99160  Biso   1.000  H
  H8       1.0000 0.15880  0.28750  0.49160  Biso   1.000  H
  C9       1.0000 0.60760  0.13690  0.39860  Biso   1.000  C
  C10      1.0000 0.89240  0.86310  0.89860  Biso   1.000  C
  C11      1.0000 0.39240  0.63690  0.10140  Biso   1.000  C
  C12      1.0000 0.10760  0.36310  0.60140  Biso   1.000  C
  H9       1.0000 0.53260  0.10110  0.42530  Biso   1.000  H
  H10      1.0000 0.96740  0.89890  0.92530  Biso   1.000  H
  H11      1.0000 0.46740  0.60110  0.07470  Biso   1.000  H
  H12      1.0000 0.03260  0.39890  0.57470  Biso   1.000  H
  C13      1.0000 0.64590  0.12420  0.30810  Biso   1.000  C
  C14      1.0000 0.85410  0.87580  0.80810  Biso   1.000  C
  C15      1.0000 0.35410  0.62420  0.19190  Biso   1.000  C
  C16      1.0000 0.14590  0.37580  0.69190  Biso   1.000  C
  H13      1.0000 0.59710  0.08010  0.27290  Biso   1.000  H
  H14      1.0000 0.90290  0.91990  0.77290  Biso   1.000  H
  H15      1.0000 0.40290  0.58010  0.22710  Biso   1.000  H
  H16      1.0000 0.09710  0.41990  0.72710  Biso   1.000  H
  C17      1.0000 0.75870  0.17905  0.27206  Biso   1.000  C
  C18      1.0000 0.74130  0.82095  0.77206  Biso   1.000  C
  C19      1.0000 0.24130  0.67905  0.22794  Biso   1.000  C
  C20      1.0000 0.25870  0.32095  0.72794  Biso   1.000  C
  C21      1.0000 0.82000  0.17229  0.17984  Biso   1.000  C
  C22      1.0000 0.68000  0.82771  0.67984  Biso   1.000  C
  C23      1.0000 0.18000  0.67229  0.32016  Biso   1.000  C
  C24      1.0000 0.32000  0.32771  0.82016  Biso   1.000  C
  C25      1.0000 0.86720  0.15371  0.03682  Biso   1.000  C
  C26      1.0000 0.63280  0.84629  0.53682  Biso   1.000  C
  C27      1.0000 0.13280  0.65371  0.46318  Biso   1.000  C
  C28      1.0000 0.36720  0.34629  0.96318  Biso   1.000  C
  C29      1.0000 0.61410  0.09263  0.09121  Biso   1.000  C
  C30      1.0000 0.88590  0.90737  0.59121  Biso   1.000  C
  C31      1.0000 0.38590  0.59263  0.40879  Biso   1.000  C
  C32      1.0000 0.11410  0.40737  0.90879  Biso   1.000  C
  C33      1.0000 0.60950  0.00480  0.05740  Biso   1.000  C
  C34      1.0000 0.89050  0.99520  0.55740  Biso   1.000  C
  C35      1.0000 0.39050  0.50480  0.44260  Biso   1.000  C
  C36      1.0000 0.10950  0.49520  0.94260  Biso   1.000  C
  H17      1.0000 0.69730  0.97330  0.04160  Biso   1.000  H
  H18      1.0000 0.80270  0.02670  0.54160  Biso   1.000  H
  H19      1.0000 0.30270  0.47330  0.45840  Biso   1.000  H
  H20      1.0000 0.19730  0.52670  0.95840  Biso   1.000  H
  C37      1.0000 0.46700  0.96490  0.04800  Biso   1.000  C
  C38      1.0000 0.03300  0.03510  0.54800  Biso   1.000  C
  C39      1.0000 0.53300  0.46490  0.45200  Biso   1.000  C
  C40      1.0000 0.96700  0.53510  0.95200  Biso   1.000  C
  H21      1.0000 0.45680  0.90580  0.02450  Biso   1.000  H
  H22      1.0000 0.04320  0.09420  0.52450  Biso   1.000  H
  H23      1.0000 0.54320  0.40580  0.47550  Biso   1.000  H
  H24      1.0000 0.95680  0.59420  0.97550  Biso   1.000  H
  C41      1.0000 0.34180  0.01440  0.07380  Biso   1.000  C
  C42      1.0000 0.15820  0.98560  0.57380  Biso   1.000  C
  C43      1.0000 0.65820  0.51440  0.42620  Biso   1.000  C
  C44      1.0000 0.84180  0.48560  0.92620  Biso   1.000  C
  H25      1.0000 0.24540  0.98900  0.06900  Biso   1.000  H
  H26      1.0000 0.25460  0.01100  0.56900  Biso   1.000  H
  H27      1.0000 0.75460  0.48900  0.43100  Biso   1.000  H
  H28      1.0000 0.74540  0.51100  0.93100  Biso   1.000  H
  C45      1.0000 0.36150  0.10170  0.10690  Biso   1.000  C
  C46      1.0000 0.13850  0.89830  0.60690  Biso   1.000  C
  C47      1.0000 0.63850  0.60170  0.39310  Biso   1.000  C
  C48      1.0000 0.86150  0.39830  0.89310  Biso   1.000  C
  H29      1.0000 0.27600  0.13430  0.12460  Biso   1.000  H
  H30      1.0000 0.22400  0.86570  0.62460  Biso   1.000  H
  H31      1.0000 0.72400  0.63430  0.37540  Biso   1.000  H
  H32      1.0000 0.77600  0.36570  0.87540  Biso   1.000  H
  C49      1.0000 0.85350  0.13950  0.93950  Biso   1.000  C
  C50      1.0000 0.64650  0.86050  0.43950  Biso   1.000  C
  C51      1.0000 0.14650  0.63950  0.56050  Biso   1.000  C
  C52      1.0000 0.35350  0.36050  0.06050  Biso   1.000  C
  C53      1.0000 0.98380  0.12560  0.88827  Biso   1.000  C
  C54      1.0000 0.51620  0.87440  0.38827  Biso   1.000  C
  C55      1.0000 0.01620  0.62560  0.61173  Biso   1.000  C
  C56      1.0000 0.48380  0.37440  0.11173  Biso   1.000  C
  H33      1.0000 0.07670  0.11640  0.91640  Biso   1.000  H
  H34      1.0000 0.42330  0.88360  0.41640  Biso   1.000  H
  H35      1.0000 0.92330  0.61640  0.58360  Biso   1.000  H
  H36      1.0000 0.57670  0.38360  0.08360  Biso   1.000  H
  C57      1.0000 0.97300  0.12580  0.79450  Biso   1.000  C
  C58      1.0000 0.52700  0.87420  0.29450  Biso   1.000  C
  C59      1.0000 0.02700  0.62580  0.70550  Biso   1.000  C
  C60      1.0000 0.47300  0.37420  0.20550  Biso   1.000  C
  H37      1.0000 0.05820  0.11580  0.75890  Biso   1.000  H
  H38      1.0000 0.44180  0.88420  0.25890  Biso   1.000  H
  H39      1.0000 0.94180  0.61580  0.74110  Biso   1.000  H
  H40      1.0000 0.55820  0.38420  0.24110  Biso   1.000  H
  C61      1.0000 0.83410  0.14090  0.75540  Biso   1.000  C
  C62      1.0000 0.66590  0.85910  0.25540  Biso   1.000  C
  C63      1.0000 0.16590  0.64090  0.74460  Biso   1.000  C
  C64      1.0000 0.33410  0.35910  0.24460  Biso   1.000  C
  H41      1.0000 0.82740  0.14150  0.69260  Biso   1.000  H
  H42      1.0000 0.67260  0.85850  0.19260  Biso   1.000  H
  H43      1.0000 0.17260  0.64150  0.80740  Biso   1.000  H
  H44      1.0000 0.32740  0.35850  0.30740  Biso   1.000  H
  C65      1.0000 0.71640  0.15292  0.89429  Biso   1.000  C
  C66      1.0000 0.78360  0.84708  0.39429  Biso   1.000  C
  C67      1.0000 0.28360  0.65292  0.60571  Biso   1.000  C
  C68      1.0000 0.21640  0.34708  0.10571  Biso   1.000  C
  H45      1.0000 0.62860  0.16080  0.92810  Biso   1.000  H
  H46      1.0000 0.87140  0.83920  0.42810  Biso   1.000  H
  H47      1.0000 0.37140  0.66080  0.57190  Biso   1.000  H
  H48      1.0000 0.12860  0.33920  0.07190  Biso   1.000  H
  C69      1.0000 0.20470  0.12470  0.34030  Biso   1.000  C
  C70      1.0000 0.29530  0.87530  0.84030  Biso   1.000  C
  C71      1.0000 0.79530  0.62470  0.15970  Biso   1.000  C
  C72      1.0000 0.70470  0.37530  0.65970  Biso   1.000  C
  C73      1.0000 0.18830  0.96920  0.33870  Biso   1.000  C
  C74      1.0000 0.31170  0.03080  0.83870  Biso   1.000  C
  C75      1.0000 0.81170  0.46920  0.16130  Biso   1.000  C
  C76      1.0000 0.68830  0.53080  0.66130  Biso   1.000  C
