data_image0
_cell_length_a       12.8809
_cell_length_b       13.6935
_cell_length_c       14.0768
_cell_angle_alpha    75.851
_cell_angle_beta     79.256
_cell_angle_gamma    80.426

_symmetry_space_group_name_H-M    "P 1"
_symmetry_int_tables_number       1

loop_
  _symmetry_equiv_pos_as_xyz
  'x, y, z'

loop_
  _atom_site_label
  _atom_site_occupancy
  _atom_site_fract_x
  _atom_site_fract_y
  _atom_site_fract_z
  _atom_site_thermal_displace_type
  _atom_site_B_iso_or_equiv
  _atom_site_type_symbol
  Cu1      1.0000 0.32224  0.55844  0.76794  Biso   1.000  Cu
  Cu2      1.0000 0.67776  0.44156  0.23206  Biso   1.000  Cu
  Cu3      1.0000 0.75874  0.93693  0.73629  Biso   1.000  Cu
  Cu4      1.0000 0.24126  0.06307  0.26371  Biso   1.000  Cu
  Cu5      1.0000 0.00000  0.50000  0.50000  Biso   1.000  Cu
  N1       1.0000 0.31480  0.40620  0.82540  Biso   1.000  N
  N2       1.0000 0.68520  0.59380  0.17460  Biso   1.000  N
  N3       1.0000 0.16500  0.55640  0.79960  Biso   1.000  N
  N4       1.0000 0.83500  0.44360  0.20040  Biso   1.000  N
  N5       1.0000 0.07700  0.62760  0.79060  Biso   1.000  N
  N6       1.0000 0.92300  0.37240  0.20940  Biso   1.000  N
  N7       1.0000 0.02740  0.47520  0.85690  Biso   1.000  N
  N8       1.0000 0.97260  0.52480  0.14310  Biso   1.000  N
  N9       1.0000 0.77290  0.78790  0.80280  Biso   1.000  N
  N10      1.0000 0.22710  0.21210  0.19720  Biso   1.000  N
  N11      1.0000 0.95170  0.35830  0.99080  Biso   1.000  N
  N12      1.0000 0.04830  0.64170  0.00920  Biso   1.000  N
  N13      1.0000 0.31010  0.70600  0.69650  Biso   1.000  N
  N14      1.0000 0.68990  0.29400  0.30350  Biso   1.000  N
  N15      1.0000 0.55110  0.86610  0.70670  Biso   1.000  N
  N16      1.0000 0.44890  0.13390  0.29330  Biso   1.000  N
  N17      1.0000 0.61440  0.93850  0.70480  Biso   1.000  N
  N18      1.0000 0.38560  0.06150  0.29520  Biso   1.000  N
  N19      1.0000 0.46830  0.01900  0.65150  Biso   1.000  N
  N20      1.0000 0.53170  0.98100  0.34850  Biso   1.000  N
  N21      1.0000 0.71860  0.09010  0.68350  Biso   1.000  N
  N22      1.0000 0.28140  0.90990  0.31650  Biso   1.000  N
  N23      1.0000 0.41040  0.14140  0.51900  Biso   1.000  N
  N24      1.0000 0.58960  0.85860  0.48100  Biso   1.000  N
  N25      1.0000 0.33770  0.58830  0.91970  Biso   1.000  N
  N26      1.0000 0.66230  0.41170  0.08030  Biso   1.000  N
  N27      1.0000 0.42600  0.67250  0.00810  Biso   1.000  N
  N28      1.0000 0.57400  0.32750  0.99190  Biso   1.000  N
  N29      1.0000 0.47780  0.53970  0.73290  Biso   1.000  N
  N30      1.0000 0.52220  0.46030  0.26710  Biso   1.000  N
  N31      1.0000 0.66400  0.51950  0.74010  Biso   1.000  N
  N32      1.0000 0.33600  0.48050  0.25990  Biso   1.000  N
  N33      1.0000 0.83030  0.51260  0.63270  Biso   1.000  N
  N34      1.0000 0.16970  0.48740  0.36730  Biso   1.000  N
  N35      1.0000 0.88720  0.95710  0.77980  Biso   1.000  N
  N36      1.0000 0.11280  0.04290  0.22020  Biso   1.000  N
  N37      1.0000 0.84670  0.91590  0.58120  Biso   1.000  N
  N38      1.0000 0.15330  0.08410  0.41880  Biso   1.000  N
  N39      1.0000 0.99760  0.81830  0.50160  Biso   1.000  N
  N40      1.0000 0.00240  0.18170  0.49840  Biso   1.000  N
  N41      1.0000 0.00420  0.64860  0.47450  Biso   1.000  N
  N42      1.0000 0.99580  0.35140  0.52550  Biso   1.000  N
  N43      1.0000 0.89590  0.52220  0.39400  Biso   1.000  N
  N44      1.0000 0.10410  0.47780  0.60600  Biso   1.000  N
  N45      1.0000 0.71750  0.48740  0.39870  Biso   1.000  N
  N46      1.0000 0.28250  0.51260  0.60130  Biso   1.000  N
  N47      1.0000 0.55520  0.57000  0.47380  Biso   1.000  N
  N48      1.0000 0.44480  0.43000  0.52620  Biso   1.000  N
  C1       1.0000 0.39730  0.33330  0.83400  Biso   1.000  C
  C2       1.0000 0.60270  0.66670  0.16600  Biso   1.000  C
  H1       1.0000 0.46570  0.35100  0.81180  Biso   1.000  H
  H2       1.0000 0.53430  0.64900  0.18820  Biso   1.000  H
  C3       1.0000 0.38570  0.23390  0.87410  Biso   1.000  C
  C4       1.0000 0.61430  0.76610  0.12590  Biso   1.000  C
  H3       1.0000 0.44540  0.18550  0.87980  Biso   1.000  H
  H4       1.0000 0.55460  0.81450  0.12020  Biso   1.000  H
  C5       1.0000 0.28540  0.20520  0.90590  Biso   1.000  C
  C6       1.0000 0.71460  0.79480  0.09410  Biso   1.000  C
  H5       1.0000 0.27630  0.13770  0.93390  Biso   1.000  H
  H6       1.0000 0.72370  0.86230  0.06610  Biso   1.000  H
  C7       1.0000 0.19870  0.27870  0.89550  Biso   1.000  C
  C8       1.0000 0.80130  0.72130  0.10450  Biso   1.000  C
  H7       1.0000 0.12990  0.26160  0.91610  Biso   1.000  H
  H8       1.0000 0.87010  0.73840  0.08390  Biso   1.000  H
  C9       1.0000 0.21550  0.37770  0.85420  Biso   1.000  C
  C10      1.0000 0.78450  0.62230  0.14580  Biso   1.000  C
  C11      1.0000 0.13610  0.46640  0.83790  Biso   1.000  C
  C12      1.0000 0.86390  0.53360  0.16210  Biso   1.000  C
  C13      1.0000 0.99340  0.57850  0.82760  Biso   1.000  C
  C14      1.0000 0.00660  0.42150  0.17240  Biso   1.000  C
  C15      1.0000 0.88430  0.62960  0.83980  Biso   1.000  C
  C16      1.0000 0.11570  0.37040  0.16020  Biso   1.000  C
  C17      1.0000 0.79930  0.58590  0.89890  Biso   1.000  C
  C18      1.0000 0.20070  0.41410  0.10110  Biso   1.000  C
  H9       1.0000 0.80730  0.51770  0.93070  Biso   1.000  H
  H10      1.0000 0.19270  0.48230  0.06930  Biso   1.000  H
  C19      1.0000 0.70140  0.64500  0.91050  Biso   1.000  C
  C20      1.0000 0.29860  0.35500  0.08950  Biso   1.000  C
  H11      1.0000 0.64310  0.61730  0.95120  Biso   1.000  H
  H12      1.0000 0.35690  0.38270  0.04880  Biso   1.000  H
  C21      1.0000 0.69180  0.74360  0.86180  Biso   1.000  C
  C22      1.0000 0.30820  0.25640  0.13820  Biso   1.000  C
  H13      1.0000 0.62560  0.78250  0.86970  Biso   1.000  H
  H14      1.0000 0.37440  0.21750  0.13030  Biso   1.000  H
  C23      1.0000 0.86730  0.73070  0.79220  Biso   1.000  C
  C24      1.0000 0.13270  0.26930  0.20780  Biso   1.000  C
  H15      1.0000 0.92430  0.76020  0.75090  Biso   1.000  H
  H16      1.0000 0.07570  0.23980  0.24910  Biso   1.000  H
  C25      1.0000 0.96580  0.39200  0.89270  Biso   1.000  C
  C26      1.0000 0.03420  0.60800  0.10730  Biso   1.000  C
  C27      1.0000 0.93340  0.34990  0.82630  Biso   1.000  C
  C28      1.0000 0.06660  0.65010  0.17370  Biso   1.000  C
  H17      1.0000 0.94600  0.37600  0.75830  Biso   1.000  H
  H18      1.0000 0.05400  0.62400  0.24170  Biso   1.000  H
  C29      1.0000 0.88020  0.26490  0.86800  Biso   1.000  C
  C30      1.0000 0.11980  0.73510  0.13200  Biso   1.000  C
  H19      1.0000 0.85410  0.23380  0.82710  Biso   1.000  H
  H20      1.0000 0.14590  0.76620  0.17290  Biso   1.000  H
  C31      1.0000 0.86650  0.22850  0.96440  Biso   1.000  C
  C32      1.0000 0.13350  0.77150  0.03560  Biso   1.000  C
  H21      1.0000 0.83360  0.17020  0.99100  Biso   1.000  H
  H22      1.0000 0.16640  0.82980  0.00900  Biso   1.000  H
  C33      1.0000 0.90060  0.27610  0.02540  Biso   1.000  C
  C34      1.0000 0.09940  0.72390  0.97460  Biso   1.000  C
  H23      1.0000 0.88790  0.25050  0.09350  Biso   1.000  H
  H24      1.0000 0.11210  0.74950  0.90650  Biso   1.000  H
  C35      1.0000 0.37760  0.76510  0.70750  Biso   1.000  C
  C36      1.0000 0.62240  0.23490  0.29250  Biso   1.000  C
  H25      1.0000 0.42680  0.73710  0.75060  Biso   1.000  H
  H26      1.0000 0.57320  0.26290  0.24940  Biso   1.000  H
  C37      1.0000 0.23770  0.74830  0.63610  Biso   1.000  C
  C38      1.0000 0.76230  0.25170  0.36390  Biso   1.000  C
  H27      1.0000 0.18930  0.70870  0.62790  Biso   1.000  H
  H28      1.0000 0.81070  0.29130  0.37210  Biso   1.000  H
  C39      1.0000 0.23260  0.84760  0.58640  Biso   1.000  C
  C40      1.0000 0.76740  0.15240  0.41360  Biso   1.000  C
  H29      1.0000 0.18070  0.87480  0.54590  Biso   1.000  H
  H30      1.0000 0.81930  0.12520  0.45410  Biso   1.000  H
  C41      1.0000 0.30370  0.90710  0.59610  Biso   1.000  C
  C42      1.0000 0.69630  0.09290  0.40390  Biso   1.000  C
  H31      1.0000 0.30220  0.97430  0.56130  Biso   1.000  H
  H32      1.0000 0.69780  0.02570  0.43870  Biso   1.000  H
  C43      1.0000 0.37820  0.86470  0.65910  Biso   1.000  C
  C44      1.0000 0.62180  0.13530  0.34090  Biso   1.000  C
  C45      1.0000 0.46450  0.91580  0.67230  Biso   1.000  C
  C46      1.0000 0.53550  0.08420  0.32770  Biso   1.000  C
  C47      1.0000 0.56480  0.02900  0.67240  Biso   1.000  C
  C48      1.0000 0.43520  0.97100  0.32760  Biso   1.000  C
  C49      1.0000 0.61740  0.11850  0.66120  Biso   1.000  C
  C50      1.0000 0.38260  0.88150  0.33880  Biso   1.000  C
  C51      1.0000 0.77940  0.16300  0.67230  Biso   1.000  C
  C52      1.0000 0.22060  0.83700  0.32770  Biso   1.000  C
  H33      1.0000 0.84880  0.14430  0.68600  Biso   1.000  H
  H34      1.0000 0.15120  0.85570  0.31400  Biso   1.000  H
  C53      1.0000 0.74490  0.26520  0.64150  Biso   1.000  C
  C54      1.0000 0.25510  0.73480  0.35850  Biso   1.000  C
  H35      1.0000 0.78960  0.31380  0.63550  Biso   1.000  H
  H36      1.0000 0.21040  0.68620  0.36450  Biso   1.000  H
  C55      1.0000 0.64140  0.29370  0.61970  Biso   1.000  C
  C56      1.0000 0.35860  0.70630  0.38030  Biso   1.000  C
  H37      1.0000 0.61560  0.36170  0.59830  Biso   1.000  H
  H38      1.0000 0.38440  0.63830  0.40170  Biso   1.000  H
  C57      1.0000 0.57730  0.21680  0.63070  Biso   1.000  C
  C58      1.0000 0.42270  0.78320  0.36930  Biso   1.000  C
  H39      1.0000 0.50770  0.23340  0.61720  Biso   1.000  H
  H40      1.0000 0.49230  0.76660  0.38280  Biso   1.000  H
  C59      1.0000 0.39040  0.10080  0.61470  Biso   1.000  C
  C60      1.0000 0.60960  0.89920  0.38530  Biso   1.000  C
  C61      1.0000 0.34000  0.21980  0.48510  Biso   1.000  C
  C62      1.0000 0.66000  0.78020  0.51490  Biso   1.000  C
  H41      1.0000 0.35140  0.24980  0.41790  Biso   1.000  H
  H42      1.0000 0.64860  0.75020  0.58210  Biso   1.000  H
  C63      1.0000 0.25520  0.25800  0.54010  Biso   1.000  C
  C64      1.0000 0.74480  0.74200  0.45990  Biso   1.000  C
  H43      1.0000 0.21080  0.31450  0.51250  Biso   1.000  H
  H44      1.0000 0.78920  0.68550  0.48750  Biso   1.000  H
  C65      1.0000 0.23510  0.21340  0.63600  Biso   1.000  C
  C66      1.0000 0.76490  0.78660  0.36400  Biso   1.000  C
  H45      1.0000 0.17410  0.23710  0.67490  Biso   1.000  H
  H46      1.0000 0.82590  0.76290  0.32510  Biso   1.000  H
  C67      1.0000 0.30470  0.13130  0.67880  Biso   1.000  C
  C68      1.0000 0.69530  0.86870  0.32120  Biso   1.000  C
  H47      1.0000 0.29330  0.09990  0.74570  Biso   1.000  H
  H48      1.0000 0.70670  0.90010  0.25430  Biso   1.000  H
  C69      1.0000 0.37430  0.62890  0.96090  Biso   1.000  C
  C70      1.0000 0.62570  0.37110  0.03910  Biso   1.000  C
  C71      1.0000 0.38700  0.73990  0.06100  Biso   1.000  C
  C72      1.0000 0.61300  0.26010  0.93900  Biso   1.000  C
  N49      1.0000 0.36390  0.80770  0.09320  Biso   1.000  N
  N50      1.0000 0.63610  0.19230  0.90680  Biso   1.000  N
  C73      1.0000 0.56390  0.53490  0.72140  Biso   1.000  C
  C74      1.0000 0.43610  0.46510  0.27860  Biso   1.000  C
  C75      1.0000 0.75140  0.52460  0.66860  Biso   1.000  C
  C76      1.0000 0.24860  0.47540  0.33140  Biso   1.000  C
  C77      1.0000 0.94400  0.98700  0.81500  Biso   1.000  C
  C78      1.0000 0.05600  0.01300  0.18500  Biso   1.000  C
  N51      1.0000 0.02310  0.03710  0.81500  Biso   1.000  N
  N52      1.0000 0.97690  0.96290  0.18500  Biso   1.000  N
  C79      1.0000 0.11910  0.99400  0.83200  Biso   1.000  C
  C80      1.0000 0.88090  0.00600  0.16800  Biso   1.000  C
  N53      1.0000 0.20150  0.98000  0.85000  Biso   1.000  N
  N54      1.0000 0.79850  0.02000  0.15000  Biso   1.000  N
  C81      1.0000 0.91380  0.86800  0.54410  Biso   1.000  C
  C82      1.0000 0.08620  0.13200  0.45590  Biso   1.000  C
  C83      1.0000 0.99700  0.72640  0.48910  Biso   1.000  C
  C84      1.0000 0.00300  0.27360  0.51090  Biso   1.000  C
  C85      1.0000 0.81130  0.51200  0.40360  Biso   1.000  C
  C86      1.0000 0.18870  0.48800  0.59640  Biso   1.000  C
  C87      1.0000 0.63170  0.53500  0.43630  Biso   1.000  C
  C88      1.0000 0.36830  0.46500  0.56370  Biso   1.000  C
  C89      1.0000 0.41000  0.77150  0.98000  Biso   1.000  C
  C90      1.0000 0.59000  0.22850  0.02000  Biso   1.000  C
  N55      1.0000 0.40500  0.85500  0.96800  Biso   1.000  N
  N56      1.0000 0.59500  0.14500  0.03200  Biso   1.000  N
  O1       1.0000 0.62920  0.98370  0.90100  Biso   1.000  O
  O2       1.0000 0.37080  0.01630  0.09900  Biso   1.000  O
  C91      1.0000 0.96900  0.96960  0.78850  Biso   1.000  C
  C92      1.0000 0.03100  0.03040  0.21150  Biso   1.000  C
  N57      1.0000 0.06580  0.98110  0.79910  Biso   1.000  N
  N58      1.0000 0.93420  0.01890  0.20090  Biso   1.000  N
  C93      1.0000 0.08620  0.01720  0.87120  Biso   1.000  C
  C94      1.0000 0.91380  0.98280  0.12880  Biso   1.000  C
  N59      1.0000 0.12560  0.04660  0.92040  Biso   1.000  N
  N60      1.0000 0.87440  0.95340  0.07960  Biso   1.000  N
  O3       1.0000 0.41300  0.96000  0.89710  Biso   1.000  O
  O4       1.0000 0.58700  0.04000  0.10290  Biso   1.000  O
