data_image0
_cell_length_a       15.753
_cell_length_b       11.262
_cell_length_c       7.587
_cell_angle_alpha    90
_cell_angle_beta     91.72
_cell_angle_gamma    90

_symmetry_space_group_name_H-M    "P 1"
_symmetry_int_tables_number       1

loop_
  _symmetry_equiv_pos_as_xyz
  'x, y, z'

loop_
  _atom_site_label
  _atom_site_occupancy
  _atom_site_fract_x
  _atom_site_fract_y
  _atom_site_fract_z
  _atom_site_thermal_displace_type
  _atom_site_B_iso_or_equiv
  _atom_site_type_symbol
  Cu1      1.0000 0.00000  0.00000  0.00000  Biso   1.000  Cu
  Cu2      1.0000 0.50000  0.50000  0.50000  Biso   1.000  Cu
  O1       1.0000 0.12020  0.02950  0.04270  Biso   1.000  O
  O2       1.0000 0.37980  0.52950  0.45730  Biso   1.000  O
  O3       1.0000 0.87980  0.97050  0.95730  Biso   1.000  O
  O4       1.0000 0.62020  0.47050  0.54270  Biso   1.000  O
  C1       1.0000 0.14860  0.12400  0.10970  Biso   1.000  C
  C2       1.0000 0.35140  0.62400  0.39030  Biso   1.000  C
  C3       1.0000 0.85140  0.87600  0.89030  Biso   1.000  C
  C4       1.0000 0.64860  0.37600  0.60970  Biso   1.000  C
  C5       1.0000 0.24180  0.11820  0.15890  Biso   1.000  C
  C6       1.0000 0.25820  0.61820  0.34110  Biso   1.000  C
  C7       1.0000 0.75820  0.88180  0.84110  Biso   1.000  C
  C8       1.0000 0.74180  0.38180  0.65890  Biso   1.000  C
  F1       1.0000 0.25710  0.03330  0.27800  Biso   1.000  F
  F2       1.0000 0.24290  0.53330  0.22200  Biso   1.000  F
  F3       1.0000 0.74290  0.96670  0.72200  Biso   1.000  F
  F4       1.0000 0.75710  0.46670  0.77800  Biso   1.000  F
  F5       1.0000 0.27380  0.21060  0.23530  Biso   1.000  F
  F6       1.0000 0.22620  0.71060  0.26470  Biso   1.000  F
  F7       1.0000 0.72620  0.78940  0.76470  Biso   1.000  F
  F8       1.0000 0.77380  0.28940  0.73530  Biso   1.000  F
  F9       1.0000 0.28910  0.08880  0.03540  Biso   1.000  F
  F10      1.0000 0.21090  0.58880  0.46460  Biso   1.000  F
  F11      1.0000 0.71090  0.91120  0.96460  Biso   1.000  F
  F12      1.0000 0.78910  0.41120  0.53540  Biso   1.000  F
  C9       1.0000 0.10550  0.22720  0.14580  Biso   1.000  C
  C10      1.0000 0.39450  0.72720  0.35420  Biso   1.000  C
  C11      1.0000 0.89450  0.77280  0.85420  Biso   1.000  C
  C12      1.0000 0.60550  0.27280  0.64580  Biso   1.000  C
  C13      1.0000 0.01830  0.24290  0.10930  Biso   1.000  C
  C14      1.0000 0.48170  0.74290  0.39070  Biso   1.000  C
  C15      1.0000 0.98170  0.75710  0.89070  Biso   1.000  C
  C16      1.0000 0.51830  0.25710  0.60930  Biso   1.000  C
  O5       1.0000 0.97170  0.16410  0.04050  Biso   1.000  O
  O6       1.0000 0.52830  0.66410  0.45950  Biso   1.000  O
  O7       1.0000 0.02830  0.83590  0.95950  Biso   1.000  O
  O8       1.0000 0.47170  0.33590  0.54050  Biso   1.000  O
  C17      1.0000 0.97370  0.35530  0.15560  Biso   1.000  C
  C18      1.0000 0.52630  0.85530  0.34440  Biso   1.000  C
  C19      1.0000 0.02630  0.64470  0.84440  Biso   1.000  C
  C20      1.0000 0.47370  0.14470  0.65560  Biso   1.000  C
  C21      1.0000 0.01530  0.45300  0.23070  Biso   1.000  C
  C22      1.0000 0.48470  0.95300  0.26930  Biso   1.000  C
  C23      1.0000 0.98470  0.54700  0.76930  Biso   1.000  C
  C24      1.0000 0.51530  0.04700  0.73070  Biso   1.000  C
  C25      1.0000 0.97010  0.55260  0.27530  Biso   1.000  C
  C26      1.0000 0.52990  0.05260  0.22470  Biso   1.000  C
  C27      1.0000 0.02990  0.44740  0.72470  Biso   1.000  C
  C28      1.0000 0.47010  0.94740  0.77530  Biso   1.000  C
  C29      1.0000 0.88470  0.55480  0.24200  Biso   1.000  C
  C30      1.0000 0.61530  0.05480  0.25800  Biso   1.000  C
  C31      1.0000 0.11530  0.44520  0.75800  Biso   1.000  C
  C32      1.0000 0.38470  0.94520  0.74200  Biso   1.000  C
  C33      1.0000 0.84190  0.46160  0.16670  Biso   1.000  C
  C34      1.0000 0.65810  0.96160  0.33330  Biso   1.000  C
  C35      1.0000 0.15810  0.53840  0.83330  Biso   1.000  C
  C36      1.0000 0.34190  0.03840  0.66670  Biso   1.000  C
  C37      1.0000 0.88750  0.36140  0.12580  Biso   1.000  C
  C38      1.0000 0.61250  0.86140  0.37420  Biso   1.000  C
  C39      1.0000 0.11250  0.63860  0.87420  Biso   1.000  C
  C40      1.0000 0.38750  0.13860  0.62580  Biso   1.000  C
  O9       1.0000 0.01100  0.02740  0.68010  Biso   1.000  O
  O10      1.0000 0.48900  0.52740  0.81990  Biso   1.000  O
  O11      1.0000 0.98900  0.97260  0.31990  Biso   1.000  O
  O12      1.0000 0.51100  0.47260  0.18010  Biso   1.000  O
  C41      1.0000 0.07880  0.98010  0.57960  Biso   1.000  C
  C42      1.0000 0.42120  0.48010  0.92040  Biso   1.000  C
  C43      1.0000 0.92120  0.01990  0.42040  Biso   1.000  C
  C44      1.0000 0.57880  0.51990  0.07960  Biso   1.000  C
  C45      1.0000 0.95410  0.09360  0.56670  Biso   1.000  C
  C46      1.0000 0.54590  0.59360  0.93330  Biso   1.000  C
  C47      1.0000 0.04590  0.90640  0.43330  Biso   1.000  C
  C48      1.0000 0.45410  0.40640  0.06670  Biso   1.000  C
  H1       1.0000 0.13700  0.29200  0.20100  Biso   1.000  H
  H2       1.0000 0.36300  0.79200  0.29900  Biso   1.000  H
  H3       1.0000 0.86300  0.70800  0.79900  Biso   1.000  H
  H4       1.0000 0.63700  0.20800  0.70100  Biso   1.000  H
  H5       1.0000 0.07600  0.45200  0.25100  Biso   1.000  H
  H6       1.0000 0.42400  0.95200  0.24900  Biso   1.000  H
  H7       1.0000 0.92400  0.54800  0.74900  Biso   1.000  H
  H8       1.0000 0.57600  0.04800  0.75100  Biso   1.000  H
  H9       1.0000 0.99900  0.62000  0.33000  Biso   1.000  H
  H10      1.0000 0.50100  0.12000  0.17000  Biso   1.000  H
  H11      1.0000 0.00100  0.38000  0.67000  Biso   1.000  H
  H12      1.0000 0.49900  0.88000  0.83000  Biso   1.000  H
  H13      1.0000 0.78100  0.46600  0.14400  Biso   1.000  H
  H14      1.0000 0.71900  0.96600  0.35600  Biso   1.000  H
  H15      1.0000 0.21900  0.53400  0.85600  Biso   1.000  H
  H16      1.0000 0.28100  0.03400  0.64400  Biso   1.000  H
  H17      1.0000 0.85800  0.29400  0.07300  Biso   1.000  H
  H18      1.0000 0.64200  0.79400  0.42700  Biso   1.000  H
  H19      1.0000 0.14200  0.70600  0.92700  Biso   1.000  H
  H20      1.0000 0.35800  0.20600  0.57300  Biso   1.000  H
  H21      1.0000 0.11200  0.04500  0.53500  Biso   1.000  H
  H22      1.0000 0.38800  0.54500  0.96500  Biso   1.000  H
  H23      1.0000 0.88800  0.95500  0.46500  Biso   1.000  H
  H24      1.0000 0.61200  0.45500  0.03500  Biso   1.000  H
  H25      1.0000 0.11600  0.93400  0.65700  Biso   1.000  H
  H26      1.0000 0.38400  0.43400  0.84300  Biso   1.000  H
  H27      1.0000 0.88400  0.06600  0.34300  Biso   1.000  H
  H28      1.0000 0.61600  0.56600  0.15700  Biso   1.000  H
  H29      1.0000 0.90700  0.12100  0.63400  Biso   1.000  H
  H30      1.0000 0.59300  0.62100  0.86600  Biso   1.000  H
  H31      1.0000 0.09300  0.87900  0.36600  Biso   1.000  H
  H32      1.0000 0.40700  0.37900  0.13400  Biso   1.000  H
  H33      1.0000 0.98200  0.16100  0.52100  Biso   1.000  H
  H34      1.0000 0.51800  0.66100  0.97900  Biso   1.000  H
  H35      1.0000 0.01800  0.83900  0.47900  Biso   1.000  H
  H36      1.0000 0.48200  0.33900  0.02100  Biso   1.000  H
