data_image0
_cell_length_a       19.904
_cell_length_b       5.7803
_cell_length_c       22.936
_cell_angle_alpha    90
_cell_angle_beta     92.132
_cell_angle_gamma    90

_symmetry_space_group_name_H-M    "P 1"
_symmetry_int_tables_number       1

loop_
  _symmetry_equiv_pos_as_xyz
  'x, y, z'

loop_
  _atom_site_label
  _atom_site_occupancy
  _atom_site_fract_x
  _atom_site_fract_y
  _atom_site_fract_z
  _atom_site_thermal_displace_type
  _atom_site_B_iso_or_equiv
  _atom_site_type_symbol
  Cu1      1.0000 0.96017  0.21366  0.33987  Biso   1.000  Cu
  Cu2      1.0000 0.03983  0.71366  0.16013  Biso   1.000  Cu
  Cu3      1.0000 0.03983  0.78634  0.66013  Biso   1.000  Cu
  Cu4      1.0000 0.96017  0.28634  0.83987  Biso   1.000  Cu
  O1       1.0000 0.92034  0.48710  0.38287  Biso   1.000  O
  O2       1.0000 0.07966  0.98710  0.11713  Biso   1.000  O
  O3       1.0000 0.07966  0.51290  0.61713  Biso   1.000  O
  O4       1.0000 0.92034  0.01290  0.88287  Biso   1.000  O
  O5       1.0000 0.97016  0.95730  0.28024  Biso   1.000  O
  O6       1.0000 0.02984  0.45730  0.21976  Biso   1.000  O
  O7       1.0000 0.02984  0.04270  0.71976  Biso   1.000  O
  O8       1.0000 0.97016  0.54270  0.78024  Biso   1.000  O
  O9       1.0000 0.84943  0.78350  0.36796  Biso   1.000  O
  O10      1.0000 0.15057  0.28350  0.13204  Biso   1.000  O
  O11      1.0000 0.15057  0.21650  0.63204  Biso   1.000  O
  O12      1.0000 0.84943  0.71650  0.86796  Biso   1.000  O
  O13      1.0000 0.24325  0.00730  0.45983  Biso   1.000  O
  O14      1.0000 0.75675  0.50730  0.04017  Biso   1.000  O
  O15      1.0000 0.75675  0.99270  0.54017  Biso   1.000  O
  O16      1.0000 0.24325  0.49270  0.95983  Biso   1.000  O
  O17      1.0000 0.35930  0.59180  0.45594  Biso   1.000  O
  O18      1.0000 0.64070  0.09180  0.04406  Biso   1.000  O
  O19      1.0000 0.64070  0.40820  0.54406  Biso   1.000  O
  O20      1.0000 0.35930  0.90820  0.95594  Biso   1.000  O
  O21      1.0000 0.44630  0.82910  0.46910  Biso   1.000  O
  O22      1.0000 0.55370  0.32910  0.03090  Biso   1.000  O
  O23      1.0000 0.55370  0.17090  0.53090  Biso   1.000  O
  O24      1.0000 0.44630  0.67090  0.96910  Biso   1.000  O
  O25      1.0000 0.32571  0.13280  0.71316  Biso   1.000  O
  O26      1.0000 0.67429  0.63280  0.78684  Biso   1.000  O
  O27      1.0000 0.67429  0.86720  0.28684  Biso   1.000  O
  O28      1.0000 0.32571  0.36720  0.21316  Biso   1.000  O
  O29      1.0000 0.39982  0.36000  0.66503  Biso   1.000  O
  O30      1.0000 0.60018  0.86000  0.83497  Biso   1.000  O
  O31      1.0000 0.60018  0.64000  0.33497  Biso   1.000  O
  O32      1.0000 0.39982  0.14000  0.16503  Biso   1.000  O
  O33      1.0000 0.94737  0.90140  0.18433  Biso   1.000  O
  O34      1.0000 0.05263  0.40140  0.31567  Biso   1.000  O
  O35      1.0000 0.05263  0.09860  0.81567  Biso   1.000  O
  O36      1.0000 0.94737  0.59860  0.68433  Biso   1.000  O
  N1       1.0000 0.89646  0.31860  0.28223  Biso   1.000  N
  N2       1.0000 0.10354  0.81860  0.21777  Biso   1.000  N
  N3       1.0000 0.10354  0.68140  0.71777  Biso   1.000  N
  N4       1.0000 0.89646  0.18140  0.78223  Biso   1.000  N
  N5       1.0000 0.01284  0.08180  0.40474  Biso   1.000  N
  N6       1.0000 0.98716  0.58180  0.09526  Biso   1.000  N
  N7       1.0000 0.98716  0.91820  0.59526  Biso   1.000  N
  N8       1.0000 0.01284  0.41820  0.90474  Biso   1.000  N
  N9       1.0000 0.28820  0.84140  0.54052  Biso   1.000  N
  N10      1.0000 0.71180  0.34140  0.95948  Biso   1.000  N
  N11      1.0000 0.71180  0.15860  0.45948  Biso   1.000  N
  N12      1.0000 0.28820  0.65860  0.04052  Biso   1.000  N
  N13      1.0000 0.29270  0.30320  0.63200  Biso   1.000  N
  N14      1.0000 0.70730  0.80320  0.86800  Biso   1.000  N
  N15      1.0000 0.70730  0.69680  0.36800  Biso   1.000  N
  N16      1.0000 0.29270  0.19680  0.13200  Biso   1.000  N
  H1       1.0000 0.25430  0.23350  0.63830  Biso   1.000  H
  H2       1.0000 0.74570  0.73350  0.86170  Biso   1.000  H
  H3       1.0000 0.74570  0.76650  0.36170  Biso   1.000  H
  H4       1.0000 0.25430  0.26650  0.13830  Biso   1.000  H
  C1       1.0000 0.93980  0.00270  0.23172  Biso   1.000  C
  C2       1.0000 0.06020  0.50270  0.26828  Biso   1.000  C
  C3       1.0000 0.06020  0.99730  0.76828  Biso   1.000  C
  C4       1.0000 0.93980  0.49730  0.73172  Biso   1.000  C
  C5       1.0000 0.89010  0.19830  0.23263  Biso   1.000  C
  C6       1.0000 0.10990  0.69830  0.26737  Biso   1.000  C
  C7       1.0000 0.10990  0.80170  0.76737  Biso   1.000  C
  C8       1.0000 0.89010  0.30170  0.73263  Biso   1.000  C
  C9       1.0000 0.84450  0.26700  0.18917  Biso   1.000  C
  C10      1.0000 0.15550  0.76700  0.31083  Biso   1.000  C
  C11      1.0000 0.15550  0.73300  0.81083  Biso   1.000  C
  C12      1.0000 0.84450  0.23300  0.68917  Biso   1.000  C
  H5       1.0000 0.83770  0.17820  0.15460  Biso   1.000  H
  H6       1.0000 0.16230  0.67820  0.34540  Biso   1.000  H
  H7       1.0000 0.16230  0.82180  0.84540  Biso   1.000  H
  H8       1.0000 0.83770  0.32180  0.65460  Biso   1.000  H
  C13      1.0000 0.80880  0.47190  0.19770  Biso   1.000  C
  C14      1.0000 0.19120  0.97190  0.30230  Biso   1.000  C
  C15      1.0000 0.19120  0.52810  0.80230  Biso   1.000  C
  C16      1.0000 0.80880  0.02810  0.69770  Biso   1.000  C
  H9       1.0000 0.77820  0.52670  0.16810  Biso   1.000  H
  H10      1.0000 0.22180  0.02670  0.33190  Biso   1.000  H
  H11      1.0000 0.22180  0.47330  0.83190  Biso   1.000  H
  H12      1.0000 0.77820  0.97330  0.66810  Biso   1.000  H
  C17      1.0000 0.81780  0.59610  0.24960  Biso   1.000  C
  C18      1.0000 0.18220  0.09610  0.25040  Biso   1.000  C
  C19      1.0000 0.18220  0.40390  0.75040  Biso   1.000  C
  C20      1.0000 0.81780  0.90390  0.74960  Biso   1.000  C
  H13      1.0000 0.79400  0.73610  0.25550  Biso   1.000  H
  H14      1.0000 0.20600  0.23610  0.24450  Biso   1.000  H
  H15      1.0000 0.20600  0.26390  0.74450  Biso   1.000  H
  H16      1.0000 0.79400  0.76390  0.75550  Biso   1.000  H
  C21      1.0000 0.86180  0.51190  0.29207  Biso   1.000  C
  C22      1.0000 0.13820  0.01190  0.20793  Biso   1.000  C
  C23      1.0000 0.13820  0.48810  0.70793  Biso   1.000  C
  C24      1.0000 0.86180  0.98810  0.79207  Biso   1.000  C
  C25      1.0000 0.87800  0.60790  0.35230  Biso   1.000  C
  C26      1.0000 0.12200  0.10790  0.14770  Biso   1.000  C
  C27      1.0000 0.12200  0.39210  0.64770  Biso   1.000  C
  C28      1.0000 0.87800  0.89210  0.85230  Biso   1.000  C
  C29      1.0000 0.03920  0.86950  0.40074  Biso   1.000  C
  C30      1.0000 0.96080  0.36950  0.09926  Biso   1.000  C
  C31      1.0000 0.96080  0.13050  0.59926  Biso   1.000  C
  C32      1.0000 0.03920  0.63050  0.90074  Biso   1.000  C
  H17      1.0000 0.02390  0.77130  0.36980  Biso   1.000  H
  H18      1.0000 0.97610  0.27130  0.13020  Biso   1.000  H
  H19      1.0000 0.97610  0.22870  0.63020  Biso   1.000  H
  H20      1.0000 0.02390  0.72870  0.86980  Biso   1.000  H
  C33      1.0000 0.08770  0.78920  0.44006  Biso   1.000  C
  C34      1.0000 0.91230  0.28920  0.05994  Biso   1.000  C
  C35      1.0000 0.91230  0.21080  0.55994  Biso   1.000  C
  C36      1.0000 0.08770  0.71080  0.94006  Biso   1.000  C
  H21      1.0000 0.10490  0.63700  0.43600  Biso   1.000  H
  H22      1.0000 0.89510  0.13700  0.06400  Biso   1.000  H
  H23      1.0000 0.89510  0.36300  0.56400  Biso   1.000  H
  H24      1.0000 0.10490  0.86300  0.93600  Biso   1.000  H
  C37      1.0000 0.11130  0.92710  0.48499  Biso   1.000  C
  C38      1.0000 0.88870  0.42710  0.01501  Biso   1.000  C
  C39      1.0000 0.88870  0.07290  0.51501  Biso   1.000  C
  C40      1.0000 0.11130  0.57290  0.98499  Biso   1.000  C
  C41      1.0000 0.08230  0.14590  0.49039  Biso   1.000  C
  C42      1.0000 0.91770  0.64590  0.00961  Biso   1.000  C
  C43      1.0000 0.91770  0.85410  0.50961  Biso   1.000  C
  C44      1.0000 0.08230  0.35410  0.99039  Biso   1.000  C
  H25      1.0000 0.09570  0.24460  0.52180  Biso   1.000  H
  H26      1.0000 0.90430  0.74460  0.97820  Biso   1.000  H
  H27      1.0000 0.90430  0.75540  0.47820  Biso   1.000  H
  H28      1.0000 0.09570  0.25540  0.02180  Biso   1.000  H
  C45      1.0000 0.03380  0.21700  0.44954  Biso   1.000  C
  C46      1.0000 0.96620  0.71700  0.05046  Biso   1.000  C
  C47      1.0000 0.96620  0.78300  0.55046  Biso   1.000  C
  C48      1.0000 0.03380  0.28300  0.94954  Biso   1.000  C
  H29      1.0000 0.01470  0.36660  0.45320  Biso   1.000  H
  H30      1.0000 0.98530  0.86660  0.04680  Biso   1.000  H
  H31      1.0000 0.98530  0.63340  0.54680  Biso   1.000  H
  H32      1.0000 0.01470  0.13340  0.95320  Biso   1.000  H
  C49      1.0000 0.16540  0.84540  0.52693  Biso   1.000  C
  C50      1.0000 0.83460  0.34540  0.97307  Biso   1.000  C
  C51      1.0000 0.83460  0.15460  0.47307  Biso   1.000  C
  C52      1.0000 0.16540  0.65460  0.02693  Biso   1.000  C
  H33      1.0000 0.16170  0.67580  0.53180  Biso   1.000  H
  H34      1.0000 0.83830  0.17580  0.96820  Biso   1.000  H
  H35      1.0000 0.83830  0.32420  0.46820  Biso   1.000  H
  H36      1.0000 0.16170  0.82420  0.03180  Biso   1.000  H
  H37      1.0000 0.15940  0.91840  0.56540  Biso   1.000  H
  H38      1.0000 0.84060  0.41840  0.93460  Biso   1.000  H
  H39      1.0000 0.84060  0.08160  0.43460  Biso   1.000  H
  H40      1.0000 0.15940  0.58160  0.06540  Biso   1.000  H
  C53      1.0000 0.23480  0.90420  0.50570  Biso   1.000  C
  C54      1.0000 0.76520  0.40420  0.99430  Biso   1.000  C
  C55      1.0000 0.76520  0.09580  0.49430  Biso   1.000  C
  C56      1.0000 0.23480  0.59580  0.00570  Biso   1.000  C
  C57      1.0000 0.35440  0.91130  0.52310  Biso   1.000  C
  C58      1.0000 0.64560  0.41130  0.97690  Biso   1.000  C
  C59      1.0000 0.64560  0.08870  0.47690  Biso   1.000  C
  C60      1.0000 0.35440  0.58870  0.02310  Biso   1.000  C
  H41      1.0000 0.38470  0.91830  0.55830  Biso   1.000  H
  H42      1.0000 0.61530  0.41830  0.94170  Biso   1.000  H
  H43      1.0000 0.61530  0.08170  0.44170  Biso   1.000  H
  H44      1.0000 0.38470  0.58170  0.05830  Biso   1.000  H
  H45      1.0000 0.35130  0.06940  0.50650  Biso   1.000  H
  H46      1.0000 0.64870  0.56940  0.99350  Biso   1.000  H
  H47      1.0000 0.64870  0.93060  0.49350  Biso   1.000  H
  H48      1.0000 0.35130  0.43060  0.00650  Biso   1.000  H
  C61      1.0000 0.38530  0.75530  0.47920  Biso   1.000  C
  C62      1.0000 0.61470  0.25530  0.02080  Biso   1.000  C
  C63      1.0000 0.61470  0.24470  0.52080  Biso   1.000  C
  C64      1.0000 0.38530  0.74470  0.97920  Biso   1.000  C
  C65      1.0000 0.48310  0.69500  0.42690  Biso   1.000  C
  C66      1.0000 0.51690  0.19500  0.07310  Biso   1.000  C
  C67      1.0000 0.51690  0.30500  0.57310  Biso   1.000  C
  C68      1.0000 0.48310  0.80500  0.92690  Biso   1.000  C
  H49      1.0000 0.47900  0.53010  0.43570  Biso   1.000  H
  H50      1.0000 0.52100  0.03010  0.06430  Biso   1.000  H
  H51      1.0000 0.52100  0.46990  0.56430  Biso   1.000  H
  H52      1.0000 0.47900  0.96990  0.93570  Biso   1.000  H
  H53      1.0000 0.53060  0.74000  0.42920  Biso   1.000  H
  H54      1.0000 0.46940  0.24000  0.07080  Biso   1.000  H
  H55      1.0000 0.46940  0.26000  0.57080  Biso   1.000  H
  H56      1.0000 0.53060  0.76000  0.92920  Biso   1.000  H
  H57      1.0000 0.46440  0.72600  0.38760  Biso   1.000  H
  H58      1.0000 0.53560  0.22600  0.11240  Biso   1.000  H
  H59      1.0000 0.53560  0.27400  0.61240  Biso   1.000  H
  H60      1.0000 0.46440  0.77400  0.88760  Biso   1.000  H
  C69      1.0000 0.28380  0.69740  0.59350  Biso   1.000  C
  C70      1.0000 0.71620  0.19740  0.90650  Biso   1.000  C
  C71      1.0000 0.71620  0.30260  0.40650  Biso   1.000  C
  C72      1.0000 0.28380  0.80260  0.09350  Biso   1.000  C
  H61      1.0000 0.23830  0.71190  0.60900  Biso   1.000  H
  H62      1.0000 0.76170  0.21190  0.89100  Biso   1.000  H
  H63      1.0000 0.76170  0.28810  0.39100  Biso   1.000  H
  H64      1.0000 0.23830  0.78810  0.10900  Biso   1.000  H
  H65      1.0000 0.31670  0.75410  0.62370  Biso   1.000  H
  H66      1.0000 0.68330  0.25410  0.87630  Biso   1.000  H
  H67      1.0000 0.68330  0.24590  0.37630  Biso   1.000  H
  H68      1.0000 0.31670  0.74590  0.12370  Biso   1.000  H
  C73      1.0000 0.29790  0.44750  0.58070  Biso   1.000  C
  C74      1.0000 0.70210  0.94750  0.91930  Biso   1.000  C
  C75      1.0000 0.70210  0.55250  0.41930  Biso   1.000  C
  C76      1.0000 0.29790  0.05250  0.08070  Biso   1.000  C
  H69      1.0000 0.26570  0.39210  0.54990  Biso   1.000  H
  H70      1.0000 0.73430  0.89210  0.95010  Biso   1.000  H
  H71      1.0000 0.73430  0.60790  0.45010  Biso   1.000  H
  H72      1.0000 0.26570  0.10790  0.04990  Biso   1.000  H
  H73      1.0000 0.34380  0.43320  0.56570  Biso   1.000  H
  H74      1.0000 0.65620  0.93320  0.93430  Biso   1.000  H
  H75      1.0000 0.65620  0.56680  0.43430  Biso   1.000  H
  H76      1.0000 0.34380  0.06680  0.06570  Biso   1.000  H
  C77      1.0000 0.34420  0.27290  0.67000  Biso   1.000  C
  C78      1.0000 0.65580  0.77290  0.83000  Biso   1.000  C
  C79      1.0000 0.65580  0.72710  0.33000  Biso   1.000  C
  C80      1.0000 0.34420  0.22710  0.17000  Biso   1.000  C
  C81      1.0000 0.37190  0.06770  0.76130  Biso   1.000  C
  C82      1.0000 0.62810  0.56770  0.73870  Biso   1.000  C
  C83      1.0000 0.62810  0.93230  0.23870  Biso   1.000  C
  C84      1.0000 0.37190  0.43230  0.26130  Biso   1.000  C
  C85      1.0000 0.39150  0.28010  0.79690  Biso   1.000  C
  C86      1.0000 0.60850  0.78010  0.70310  Biso   1.000  C
  C87      1.0000 0.60850  0.71990  0.20310  Biso   1.000  C
  C88      1.0000 0.39150  0.21990  0.29690  Biso   1.000  C
  H77      1.0000 0.41130  0.39580  0.77150  Biso   1.000  H
  H78      1.0000 0.58870  0.89580  0.72850  Biso   1.000  H
  H79      1.0000 0.58870  0.60420  0.22850  Biso   1.000  H
  H80      1.0000 0.41130  0.10420  0.27150  Biso   1.000  H
  H81      1.0000 0.42440  0.23660  0.82790  Biso   1.000  H
  H82      1.0000 0.57560  0.73660  0.67210  Biso   1.000  H
  H83      1.0000 0.57560  0.76340  0.17210  Biso   1.000  H
  H84      1.0000 0.42440  0.26340  0.32790  Biso   1.000  H
  H85      1.0000 0.35150  0.34510  0.81440  Biso   1.000  H
  H86      1.0000 0.64850  0.84510  0.68560  Biso   1.000  H
  H87      1.0000 0.64850  0.65490  0.18560  Biso   1.000  H
  H88      1.0000 0.35150  0.15490  0.31440  Biso   1.000  H
  C89      1.0000 0.32940  0.90500  0.79670  Biso   1.000  C
  C90      1.0000 0.67060  0.40500  0.70330  Biso   1.000  C
  C91      1.0000 0.67060  0.09500  0.20330  Biso   1.000  C
  C92      1.0000 0.32940  0.59500  0.29670  Biso   1.000  C
  H89      1.0000 0.28850  0.98510  0.80800  Biso   1.000  H
  H90      1.0000 0.71150  0.48510  0.69200  Biso   1.000  H
  H91      1.0000 0.71150  0.01490  0.19200  Biso   1.000  H
  H92      1.0000 0.28850  0.51490  0.30800  Biso   1.000  H
  H93      1.0000 0.35520  0.85610  0.83180  Biso   1.000  H
  H94      1.0000 0.64480  0.35610  0.66820  Biso   1.000  H
  H95      1.0000 0.64480  0.14390  0.16820  Biso   1.000  H
  H96      1.0000 0.35520  0.64390  0.33180  Biso   1.000  H
  H97      1.0000 0.31720  0.76900  0.77320  Biso   1.000  H
  H98      1.0000 0.68280  0.26900  0.72680  Biso   1.000  H
  H99      1.0000 0.68280  0.23100  0.22680  Biso   1.000  H
  H100     1.0000 0.31720  0.73100  0.27320  Biso   1.000  H
  C93      1.0000 0.43290  0.94300  0.73870  Biso   1.000  C
  C94      1.0000 0.56710  0.44300  0.76130  Biso   1.000  C
  C95      1.0000 0.56710  0.05700  0.26130  Biso   1.000  C
  C96      1.0000 0.43290  0.55700  0.23870  Biso   1.000  C
  H101     1.0000 0.41810  0.80750  0.71590  Biso   1.000  H
  H102     1.0000 0.58190  0.30750  0.78410  Biso   1.000  H
  H103     1.0000 0.58190  0.19250  0.28410  Biso   1.000  H
  H104     1.0000 0.41810  0.69250  0.21590  Biso   1.000  H
  H105     1.0000 0.46200  0.89300  0.77170  Biso   1.000  H
  H106     1.0000 0.53800  0.39300  0.72830  Biso   1.000  H
  H107     1.0000 0.53800  0.10700  0.22830  Biso   1.000  H
  H108     1.0000 0.46200  0.60700  0.27170  Biso   1.000  H
  H109     1.0000 0.45780  0.04790  0.71380  Biso   1.000  H
  H110     1.0000 0.54220  0.54790  0.78620  Biso   1.000  H
  H111     1.0000 0.54220  0.95210  0.28620  Biso   1.000  H
  H112     1.0000 0.45780  0.45210  0.21380  Biso   1.000  H
  O37      1.0000 0.21910  0.45930  0.42290  Biso   1.000  O
  O38      1.0000 0.78090  0.95930  0.07710  Biso   1.000  O
  O39      1.0000 0.78090  0.54070  0.57710  Biso   1.000  O
  O40      1.0000 0.21910  0.04070  0.92290  Biso   1.000  O
  H113     1.0000 0.22200  0.31200  0.43800  Biso   1.000  H
  H114     1.0000 0.77800  0.81200  0.06200  Biso   1.000  H
  H115     1.0000 0.77800  0.68800  0.56200  Biso   1.000  H
  H116     1.0000 0.22200  0.18800  0.93800  Biso   1.000  H
  H117     1.0000 0.26190  0.51600  0.43200  Biso   1.000  H
  H118     1.0000 0.73810  0.01600  0.06800  Biso   1.000  H
  H119     1.0000 0.73810  0.48400  0.56800  Biso   1.000  H
  H120     1.0000 0.26190  0.98400  0.93200  Biso   1.000  H
