data_image0
_cell_length_a       11.3871
_cell_length_b       8.0571
_cell_length_c       14.2736
_cell_angle_alpha    90
_cell_angle_beta     94.709
_cell_angle_gamma    90

_symmetry_space_group_name_H-M    "P 1"
_symmetry_int_tables_number       1

loop_
  _symmetry_equiv_pos_as_xyz
  'x, y, z'

loop_
  _atom_site_label
  _atom_site_occupancy
  _atom_site_fract_x
  _atom_site_fract_y
  _atom_site_fract_z
  _atom_site_thermal_displace_type
  _atom_site_B_iso_or_equiv
  _atom_site_type_symbol
  Cu1      1.0000 0.79962  0.08070  0.85041  Biso   1.000  Cu
  Cu2      1.0000 0.70038  0.58070  0.64959  Biso   1.000  Cu
  Cu3      1.0000 0.20038  0.91930  0.14959  Biso   1.000  Cu
  Cu4      1.0000 0.29962  0.41930  0.35041  Biso   1.000  Cu
  N1       1.0000 0.79220  0.68450  0.33800  Biso   1.000  N
  N2       1.0000 0.70780  0.18450  0.16200  Biso   1.000  N
  N3       1.0000 0.20780  0.31550  0.66200  Biso   1.000  N
  N4       1.0000 0.29220  0.81550  0.83800  Biso   1.000  N
  N5       1.0000 0.91260  0.25020  0.40420  Biso   1.000  N
  N6       1.0000 0.58740  0.75020  0.09580  Biso   1.000  N
  N7       1.0000 0.08740  0.74980  0.59580  Biso   1.000  N
  N8       1.0000 0.41260  0.24980  0.90420  Biso   1.000  N
  N9       1.0000 0.88650  0.88240  0.90740  Biso   1.000  N
  N10      1.0000 0.61350  0.38240  0.59260  Biso   1.000  N
  N11      1.0000 0.11350  0.11760  0.09260  Biso   1.000  N
  N12      1.0000 0.38650  0.61760  0.40740  Biso   1.000  N
  O1       1.0000 0.83450  0.03250  0.71905  Biso   1.000  O
  O2       1.0000 0.66550  0.53250  0.78095  Biso   1.000  O
  O3       1.0000 0.16550  0.96750  0.28095  Biso   1.000  O
  O4       1.0000 0.33450  0.46750  0.21905  Biso   1.000  O
  O5       1.0000 0.73240  0.80070  0.69870  Biso   1.000  O
  O6       1.0000 0.76760  0.30070  0.80130  Biso   1.000  O
  O7       1.0000 0.26760  0.19930  0.30130  Biso   1.000  O
  O8       1.0000 0.23240  0.69930  0.19870  Biso   1.000  O
  O9       1.0000 0.73370  0.65590  0.52673  Biso   1.000  O
  O10      1.0000 0.76630  0.15590  0.97327  Biso   1.000  O
  O11      1.0000 0.26630  0.34410  0.47327  Biso   1.000  O
  O12      1.0000 0.23370  0.84410  0.02673  Biso   1.000  O
  O13      1.0000 0.71460  0.58260  0.34460  Biso   1.000  O
  O14      1.0000 0.78540  0.08260  0.15540  Biso   1.000  O
  O15      1.0000 0.28540  0.41740  0.65540  Biso   1.000  O
  O16      1.0000 0.21460  0.91740  0.84460  Biso   1.000  O
  O17      1.0000 0.86030  0.68150  0.27470  Biso   1.000  O
  O18      1.0000 0.63970  0.18150  0.22530  Biso   1.000  O
  O19      1.0000 0.13970  0.31850  0.72530  Biso   1.000  O
  O20      1.0000 0.36030  0.81850  0.77470  Biso   1.000  O
  O21      1.0000 0.91850  0.26770  0.32000  Biso   1.000  O
  O22      1.0000 0.58150  0.76770  0.18000  Biso   1.000  O
  O23      1.0000 0.08150  0.73230  0.68000  Biso   1.000  O
  O24      1.0000 0.41850  0.23230  0.82000  Biso   1.000  O
  O25      1.0000 0.94130  0.35960  0.46080  Biso   1.000  O
  O26      1.0000 0.55870  0.85960  0.03920  Biso   1.000  O
  O27      1.0000 0.05870  0.64040  0.53920  Biso   1.000  O
  O28      1.0000 0.44130  0.14040  0.96080  Biso   1.000  O
  C1       1.0000 0.81060  0.92760  0.56560  Biso   1.000  C
  C2       1.0000 0.68940  0.42760  0.93440  Biso   1.000  C
  C3       1.0000 0.18940  0.07240  0.43440  Biso   1.000  C
  C4       1.0000 0.31060  0.57240  0.06560  Biso   1.000  C
  C5       1.0000 0.77910  0.79290  0.50310  Biso   1.000  C
  C6       1.0000 0.72090  0.29290  0.99690  Biso   1.000  C
  C7       1.0000 0.22090  0.20710  0.49690  Biso   1.000  C
  C8       1.0000 0.27910  0.70710  0.00310  Biso   1.000  C
  C9       1.0000 0.80810  0.81790  0.40840  Biso   1.000  C
  C10      1.0000 0.69190  0.31790  0.09160  Biso   1.000  C
  C11      1.0000 0.19190  0.18210  0.59160  Biso   1.000  C
  C12      1.0000 0.30810  0.68210  0.90840  Biso   1.000  C
  C13      1.0000 0.85250  0.96370  0.37550  Biso   1.000  C
  C14      1.0000 0.64750  0.46370  0.12450  Biso   1.000  C
  C15      1.0000 0.14750  0.03630  0.62450  Biso   1.000  C
  C16      1.0000 0.35250  0.53630  0.87550  Biso   1.000  C
  H1       1.0000 0.86900  0.97480  0.31310  Biso   1.000  H
  H2       1.0000 0.63100  0.47480  0.18690  Biso   1.000  H
  H3       1.0000 0.13100  0.02520  0.68690  Biso   1.000  H
  H4       1.0000 0.36900  0.52520  0.81310  Biso   1.000  H
  C17      1.0000 0.87160  0.09290  0.43850  Biso   1.000  C
  C18      1.0000 0.62840  0.59290  0.06150  Biso   1.000  C
  C19      1.0000 0.12840  0.90710  0.56150  Biso   1.000  C
  C20      1.0000 0.37160  0.40710  0.93850  Biso   1.000  C
  C21      1.0000 0.85410  0.07330  0.53270  Biso   1.000  C
  C22      1.0000 0.64590  0.57330  0.96730  Biso   1.000  C
  C23      1.0000 0.14590  0.92670  0.46730  Biso   1.000  C
  C24      1.0000 0.35410  0.42670  0.03270  Biso   1.000  C
  H5       1.0000 0.87200  0.16030  0.57430  Biso   1.000  H
  H6       1.0000 0.62800  0.66030  0.92570  Biso   1.000  H
  H7       1.0000 0.12800  0.83970  0.42570  Biso   1.000  H
  H8       1.0000 0.37200  0.33970  0.07430  Biso   1.000  H
  C25      1.0000 0.79060  0.91840  0.66780  Biso   1.000  C
  C26      1.0000 0.70940  0.41840  0.83220  Biso   1.000  C
  C27      1.0000 0.20940  0.08160  0.33220  Biso   1.000  C
  C28      1.0000 0.29060  0.58160  0.16780  Biso   1.000  C
  C29      1.0000 0.94370  0.77580  0.85610  Biso   1.000  C
  C30      1.0000 0.55630  0.27580  0.64390  Biso   1.000  C
  C31      1.0000 0.05630  0.22420  0.14390  Biso   1.000  C
  C32      1.0000 0.44370  0.72420  0.35610  Biso   1.000  C
  H9       1.0000 0.95280  0.80350  0.79390  Biso   1.000  H
  H10      1.0000 0.54720  0.30350  0.70610  Biso   1.000  H
  H11      1.0000 0.04720  0.19650  0.20610  Biso   1.000  H
  H12      1.0000 0.45280  0.69650  0.29390  Biso   1.000  H
  C33      1.0000 0.99000  0.62790  0.88910  Biso   1.000  C
  C34      1.0000 0.51000  0.12790  0.61090  Biso   1.000  C
  C35      1.0000 0.01000  0.37210  0.11090  Biso   1.000  C
  C36      1.0000 0.49000  0.87210  0.38910  Biso   1.000  C
  H13      1.0000 0.02900  0.55870  0.84970  Biso   1.000  H
  H14      1.0000 0.47100  0.05870  0.65030  Biso   1.000  H
  H15      1.0000 0.97100  0.44130  0.15030  Biso   1.000  H
  H16      1.0000 0.52900  0.94130  0.34970  Biso   1.000  H
  C37      1.0000 0.97840  0.58210  0.98120  Biso   1.000  C
  C38      1.0000 0.52160  0.08210  0.51880  Biso   1.000  C
  C39      1.0000 0.02160  0.41790  0.01880  Biso   1.000  C
  C40      1.0000 0.47840  0.91790  0.48120  Biso   1.000  C
  C41      1.0000 0.92350  0.69570  0.03640  Biso   1.000  C
  C42      1.0000 0.57650  0.19570  0.46360  Biso   1.000  C
  C43      1.0000 0.07650  0.30430  0.96360  Biso   1.000  C
  C44      1.0000 0.42350  0.80430  0.53640  Biso   1.000  C
  H17      1.0000 0.91690  0.67390  0.09970  Biso   1.000  H
  H18      1.0000 0.58310  0.17390  0.40030  Biso   1.000  H
  H19      1.0000 0.08310  0.32610  0.90030  Biso   1.000  H
  H20      1.0000 0.41690  0.82610  0.59970  Biso   1.000  H
  C45      1.0000 0.87900  0.84000  0.99720  Biso   1.000  C
  C46      1.0000 0.62100  0.34000  0.50280  Biso   1.000  C
  C47      1.0000 0.12100  0.16000  0.00280  Biso   1.000  C
  C48      1.0000 0.37900  0.66000  0.49720  Biso   1.000  C
  H21      1.0000 0.84130  0.91300  0.03540  Biso   1.000  H
  H22      1.0000 0.65870  0.41300  0.46460  Biso   1.000  H
  H23      1.0000 0.15870  0.08700  0.96460  Biso   1.000  H
  H24      1.0000 0.34130  0.58700  0.53540  Biso   1.000  H
  O29      1.0000 0.62050  0.96450  0.83520  Biso   1.000  O
  O30      1.0000 0.87950  0.46450  0.66480  Biso   1.000  O
  O31      1.0000 0.37950  0.03550  0.16480  Biso   1.000  O
  O32      1.0000 0.12050  0.53550  0.33520  Biso   1.000  O
  H25      1.0000 0.60180  0.93570  0.88710  Biso   1.000  H
  H26      1.0000 0.89820  0.43570  0.61290  Biso   1.000  H
  H27      1.0000 0.39820  0.06430  0.11290  Biso   1.000  H
  H28      1.0000 0.10180  0.56430  0.38710  Biso   1.000  H
  H29      1.0000 0.57980  0.89150  0.79260  Biso   1.000  H
  H30      1.0000 0.92020  0.39150  0.70740  Biso   1.000  H
  H31      1.0000 0.42020  0.10850  0.20740  Biso   1.000  H
  H32      1.0000 0.07980  0.60850  0.29260  Biso   1.000  H
