data_image0
_cell_length_a       7.874
_cell_length_b       8.702
_cell_length_c       13.278
_cell_angle_alpha    97.32
_cell_angle_beta     104.06
_cell_angle_gamma    97.83

_symmetry_space_group_name_H-M    "P 1"
_symmetry_int_tables_number       1

loop_
  _symmetry_equiv_pos_as_xyz
  'x, y, z'

loop_
  _atom_site_label
  _atom_site_occupancy
  _atom_site_fract_x
  _atom_site_fract_y
  _atom_site_fract_z
  _atom_site_thermal_displace_type
  _atom_site_B_iso_or_equiv
  _atom_site_type_symbol
  Cu1      1.0000 0.41550  0.15990  0.37050  Biso   1.000  Cu
  Cu2      1.0000 0.58450  0.84010  0.62950  Biso   1.000  Cu
  Cu3      1.0000 0.00000  0.00000  0.00000  Biso   1.000  Cu
  O1       1.0000 0.25470  0.10020  0.22820  Biso   1.000  O
  O2       1.0000 0.74530  0.89980  0.77180  Biso   1.000  O
  O3       1.0000 0.18300  0.18120  0.07300  Biso   1.000  O
  O4       1.0000 0.81700  0.81880  0.92700  Biso   1.000  O
  O5       1.0000 0.57450  0.22570  0.50810  Biso   1.000  O
  O6       1.0000 0.42550  0.77430  0.49190  Biso   1.000  O
  O7       1.0000 0.26270  0.01490  0.42820  Biso   1.000  O
  O8       1.0000 0.73730  0.98510  0.57180  Biso   1.000  O
  O9       1.0000 0.57930  0.94100  0.34060  Biso   1.000  O
  O10      1.0000 0.42070  0.05900  0.65940  Biso   1.000  O
  O11      1.0000 0.86080  0.03350  0.10080  Biso   1.000  O
  O12      1.0000 0.13920  0.96650  0.89920  Biso   1.000  O
  O13      1.0000 0.77170  0.20590  0.00240  Biso   1.000  O
  O14      1.0000 0.22830  0.79410  0.99760  Biso   1.000  O
  O15      1.0000 0.46880  0.71540  0.16290  Biso   1.000  O
  O16      1.0000 0.53120  0.28460  0.83710  Biso   1.000  O
  O17      1.0000 0.79580  0.67350  0.11750  Biso   1.000  O
  O18      1.0000 0.20420  0.32650  0.88250  Biso   1.000  O
  O19      1.0000 0.93180  0.92640  0.30790  Biso   1.000  O
  O20      1.0000 0.06820  0.07360  0.69210  Biso   1.000  O
  N1       1.0000 0.51160  0.33660  0.31520  Biso   1.000  N
  N2       1.0000 0.48840  0.66340  0.68480  Biso   1.000  N
  C1       1.0000 0.27650  0.19470  0.16620  Biso   1.000  C
  C2       1.0000 0.72350  0.80530  0.83380  Biso   1.000  C
  C3       1.0000 0.43010  0.33360  0.20270  Biso   1.000  C
  C4       1.0000 0.56990  0.66640  0.79730  Biso   1.000  C
  C5       1.0000 0.56410  0.31320  0.13650  Biso   1.000  C
  C6       1.0000 0.43590  0.68680  0.86350  Biso   1.000  C
  C7       1.0000 0.63250  0.16040  0.14090  Biso   1.000  C
  C8       1.0000 0.36750  0.83960  0.85910  Biso   1.000  C
  C9       1.0000 0.76430  0.13480  0.07630  Biso   1.000  C
  C10      1.0000 0.23570  0.86520  0.92370  Biso   1.000  C
  C11      1.0000 0.62310  0.45890  0.36920  Biso   1.000  C
  C12      1.0000 0.37690  0.54110  0.63080  Biso   1.000  C
  C13      1.0000 0.71260  0.47730  0.47940  Biso   1.000  C
  C14      1.0000 0.28740  0.52270  0.52060  Biso   1.000  C
  C15      1.0000 0.83430  0.61820  0.52390  Biso   1.000  C
  C16      1.0000 0.16570  0.38180  0.47610  Biso   1.000  C
  C17      1.0000 0.92960  0.64590  0.62880  Biso   1.000  C
  C18      1.0000 0.07040  0.35410  0.37120  Biso   1.000  C
  C19      1.0000 0.90680  0.53220  0.69000  Biso   1.000  C
  C20      1.0000 0.09320  0.46780  0.31000  Biso   1.000  C
  C21      1.0000 0.78800  0.39270  0.64960  Biso   1.000  C
  C22      1.0000 0.21200  0.60730  0.35040  Biso   1.000  C
  C23      1.0000 0.68780  0.36210  0.54320  Biso   1.000  C
  C24      1.0000 0.31220  0.63790  0.45680  Biso   1.000  C
  H1       1.0000 0.38300  0.43100  0.19400  Biso   1.000  H
  H2       1.0000 0.61700  0.56900  0.80600  Biso   1.000  H
  H3       1.0000 0.66100  0.40200  0.16100  Biso   1.000  H
  H4       1.0000 0.33900  0.59800  0.83900  Biso   1.000  H
  H5       1.0000 0.50500  0.33000  0.06900  Biso   1.000  H
  H6       1.0000 0.49500  0.67000  0.93100  Biso   1.000  H
  H7       1.0000 0.53600  0.08000  0.11100  Biso   1.000  H
  H8       1.0000 0.46400  0.92000  0.88900  Biso   1.000  H
  H9       1.0000 0.68900  0.15300  0.21600  Biso   1.000  H
  H10      1.0000 0.31100  0.84700  0.78400  Biso   1.000  H
  H11      1.0000 0.64900  0.55200  0.33600  Biso   1.000  H
  H12      1.0000 0.35100  0.44800  0.66400  Biso   1.000  H
  H13      1.0000 0.84300  0.69100  0.47500  Biso   1.000  H
  H14      1.0000 0.15700  0.30900  0.52500  Biso   1.000  H
  H15      1.0000 0.01100  0.75100  0.65200  Biso   1.000  H
  H16      1.0000 0.98900  0.24900  0.34800  Biso   1.000  H
  H17      1.0000 0.96800  0.55000  0.75500  Biso   1.000  H
  H18      1.0000 0.03200  0.45000  0.24500  Biso   1.000  H
  H19      1.0000 0.77100  0.31600  0.68900  Biso   1.000  H
  H20      1.0000 0.22900  0.68400  0.31100  Biso   1.000  H
  H21      1.0000 0.16400  0.98100  0.39100  Biso   1.000  H
  H22      1.0000 0.83600  0.01900  0.60900  Biso   1.000  H
  H23      1.0000 0.30000  0.94500  0.44000  Biso   1.000  H
  H24      1.0000 0.70000  0.05500  0.56000  Biso   1.000  H
  H25      1.0000 0.59200  0.90600  0.38800  Biso   1.000  H
  H26      1.0000 0.40800  0.09400  0.61200  Biso   1.000  H
  H27      1.0000 0.56800  0.88100  0.29800  Biso   1.000  H
  H28      1.0000 0.43200  0.11900  0.70200  Biso   1.000  H
  H29      1.0000 0.46700  0.75000  0.20100  Biso   1.000  H
  H30      1.0000 0.53300  0.25000  0.79900  Biso   1.000  H
  H31      1.0000 0.55200  0.71300  0.13900  Biso   1.000  H
  H32      1.0000 0.44800  0.28700  0.86100  Biso   1.000  H
  H33      1.0000 0.82000  0.78000  0.14800  Biso   1.000  H
  H34      1.0000 0.18000  0.22000  0.85200  Biso   1.000  H
  H35      1.0000 0.76800  0.62400  0.19600  Biso   1.000  H
  H36      1.0000 0.23200  0.37600  0.80400  Biso   1.000  H
  H37      1.0000 0.92600  0.89600  0.37300  Biso   1.000  H
  H38      1.0000 0.07400  0.10400  0.62700  Biso   1.000  H
  H39      1.0000 0.84100  0.90600  0.27800  Biso   1.000  H
  H40      1.0000 0.15900  0.09400  0.72200  Biso   1.000  H
