data_image0
_cell_length_a       8.6606
_cell_length_b       19.381
_cell_length_c       16.032
_cell_angle_alpha    90
_cell_angle_beta     96.955
_cell_angle_gamma    90

_symmetry_space_group_name_H-M    "P 1"
_symmetry_int_tables_number       1

loop_
  _symmetry_equiv_pos_as_xyz
  'x, y, z'

loop_
  _atom_site_label
  _atom_site_occupancy
  _atom_site_fract_x
  _atom_site_fract_y
  _atom_site_fract_z
  _atom_site_thermal_displace_type
  _atom_site_B_iso_or_equiv
  _atom_site_type_symbol
  Cu1      1.0000 0.91970  0.19572  0.73222  Biso   1.000  Cu
  Cu2      1.0000 0.08030  0.69572  0.76778  Biso   1.000  Cu
  Cu3      1.0000 0.08030  0.80428  0.26778  Biso   1.000  Cu
  Cu4      1.0000 0.91970  0.30428  0.23222  Biso   1.000  Cu
  O1       1.0000 0.84050  0.28667  0.74760  Biso   1.000  O
  O2       1.0000 0.15950  0.78667  0.75240  Biso   1.000  O
  O3       1.0000 0.15950  0.71333  0.25240  Biso   1.000  O
  O4       1.0000 0.84050  0.21333  0.24760  Biso   1.000  O
  O5       1.0000 0.68410  0.15093  0.77290  Biso   1.000  O
  O6       1.0000 0.31590  0.65093  0.72710  Biso   1.000  O
  O7       1.0000 0.31590  0.84907  0.22710  Biso   1.000  O
  O8       1.0000 0.68410  0.34907  0.27290  Biso   1.000  O
  H1       1.0000 0.69630  0.10820  0.76040  Biso   1.000  H
  H2       1.0000 0.30370  0.60820  0.73960  Biso   1.000  H
  H3       1.0000 0.30370  0.89180  0.23960  Biso   1.000  H
  H4       1.0000 0.69630  0.39180  0.26040  Biso   1.000  H
  H5       1.0000 0.64380  0.17070  0.74780  Biso   1.000  H
  H6       1.0000 0.35620  0.67070  0.75220  Biso   1.000  H
  H7       1.0000 0.35620  0.82930  0.25220  Biso   1.000  H
  H8       1.0000 0.64380  0.32930  0.24780  Biso   1.000  H
  N1       1.0000 0.01960  0.19550  0.85500  Biso   1.000  N
  N2       1.0000 0.98040  0.69550  0.64500  Biso   1.000  N
  N3       1.0000 0.98040  0.80450  0.14500  Biso   1.000  N
  N4       1.0000 0.01960  0.30450  0.35500  Biso   1.000  N
  C1       1.0000 0.90970  0.34370  0.73460  Biso   1.000  C
  C2       1.0000 0.09030  0.84370  0.76540  Biso   1.000  C
  C3       1.0000 0.09030  0.65630  0.26540  Biso   1.000  C
  C4       1.0000 0.90970  0.15630  0.23460  Biso   1.000  C
  O9       1.0000 0.04240  0.34821  0.71480  Biso   1.000  O
  O10      1.0000 0.95760  0.84821  0.78520  Biso   1.000  O
  O11      1.0000 0.95760  0.65179  0.28520  Biso   1.000  O
  O12      1.0000 0.04240  0.15179  0.21480  Biso   1.000  O
  N5       1.0000 0.26530  0.30660  0.00200  Biso   1.000  N
  N6       1.0000 0.73470  0.80660  0.49800  Biso   1.000  N
  N7       1.0000 0.73470  0.69340  0.99800  Biso   1.000  N
  N8       1.0000 0.26530  0.19340  0.50200  Biso   1.000  N
  H9       1.0000 0.32020  0.29830  0.04920  Biso   1.000  H
  H10      1.0000 0.67980  0.79830  0.45080  Biso   1.000  H
  H11      1.0000 0.67980  0.70170  0.95080  Biso   1.000  H
  H12      1.0000 0.32020  0.20170  0.54920  Biso   1.000  H
  C5       1.0000 0.81350  0.40660  0.74480  Biso   1.000  C
  C6       1.0000 0.18650  0.90660  0.75520  Biso   1.000  C
  C7       1.0000 0.18650  0.59340  0.25520  Biso   1.000  C
  C8       1.0000 0.81350  0.09340  0.24480  Biso   1.000  C
  O13      1.0000 0.00880  0.60193  0.77600  Biso   1.000  O
  O14      1.0000 0.99120  0.10193  0.72400  Biso   1.000  O
  O15      1.0000 0.99120  0.39807  0.22400  Biso   1.000  O
  O16      1.0000 0.00880  0.89807  0.27600  Biso   1.000  O
  N9       1.0000 0.83550  0.19670  0.60540  Biso   1.000  N
  N10      1.0000 0.16450  0.69670  0.89460  Biso   1.000  N
  N11      1.0000 0.16450  0.80330  0.39460  Biso   1.000  N
  N12      1.0000 0.83550  0.30330  0.10540  Biso   1.000  N
  C9       1.0000 0.88150  0.47120  0.75620  Biso   1.000  C
  C10      1.0000 0.11850  0.97120  0.74380  Biso   1.000  C
  C11      1.0000 0.11850  0.52880  0.24380  Biso   1.000  C
  C12      1.0000 0.88150  0.02880  0.25620  Biso   1.000  C
  H13      1.0000 0.98850  0.47590  0.75700  Biso   1.000  H
  H14      1.0000 0.01150  0.97590  0.74300  Biso   1.000  H
  H15      1.0000 0.01150  0.52410  0.24300  Biso   1.000  H
  H16      1.0000 0.98850  0.02410  0.25700  Biso   1.000  H
  O17      1.0000 0.78380  0.64958  0.79160  Biso   1.000  O
  O18      1.0000 0.21620  0.14958  0.70840  Biso   1.000  O
  O19      1.0000 0.21620  0.35042  0.20840  Biso   1.000  O
  O20      1.0000 0.78380  0.85042  0.29160  Biso   1.000  O
  N13      1.0000 0.61800  0.31400  0.45220  Biso   1.000  N
  N14      1.0000 0.38200  0.81400  0.04780  Biso   1.000  N
  N15      1.0000 0.38200  0.68600  0.54780  Biso   1.000  N
  N16      1.0000 0.61800  0.18600  0.95220  Biso   1.000  N
  H17      1.0000 0.62730  0.32300  0.40050  Biso   1.000  H
  H18      1.0000 0.37270  0.82300  0.09950  Biso   1.000  H
  H19      1.0000 0.37270  0.67700  0.59950  Biso   1.000  H
  H20      1.0000 0.62730  0.17700  0.90050  Biso   1.000  H
  C13      1.0000 0.79060  0.52890  0.76660  Biso   1.000  C
  C14      1.0000 0.20940  0.02890  0.73340  Biso   1.000  C
  C15      1.0000 0.20940  0.47110  0.23340  Biso   1.000  C
  C16      1.0000 0.79060  0.97110  0.26660  Biso   1.000  C
  O21      1.0000 0.33360  0.38923  0.73290  Biso   1.000  O
  O22      1.0000 0.66640  0.88923  0.76710  Biso   1.000  O
  O23      1.0000 0.66640  0.61077  0.26710  Biso   1.000  O
  O24      1.0000 0.33360  0.11077  0.23290  Biso   1.000  O
  C17      1.0000 0.86210  0.59950  0.77860  Biso   1.000  C
  C18      1.0000 0.13790  0.09950  0.72140  Biso   1.000  C
  C19      1.0000 0.13790  0.40050  0.22140  Biso   1.000  C
  C20      1.0000 0.86210  0.90050  0.27860  Biso   1.000  C
  O25      1.0000 0.30140  0.50277  0.73790  Biso   1.000  O
  O26      1.0000 0.69860  0.00277  0.76210  Biso   1.000  O
  O27      1.0000 0.69860  0.49723  0.26210  Biso   1.000  O
  O28      1.0000 0.30140  0.99723  0.23790  Biso   1.000  O
  C21      1.0000 0.63030  0.52190  0.76190  Biso   1.000  C
  C22      1.0000 0.36970  0.02190  0.73810  Biso   1.000  C
  C23      1.0000 0.36970  0.47810  0.23810  Biso   1.000  C
  C24      1.0000 0.63030  0.97810  0.26190  Biso   1.000  C
  H21      1.0000 0.56950  0.56070  0.76770  Biso   1.000  H
  H22      1.0000 0.43050  0.06070  0.73230  Biso   1.000  H
  H23      1.0000 0.43050  0.43930  0.23230  Biso   1.000  H
  H24      1.0000 0.56950  0.93930  0.26770  Biso   1.000  H
  C25      1.0000 0.55910  0.45810  0.74870  Biso   1.000  C
  C26      1.0000 0.44090  0.95810  0.75130  Biso   1.000  C
  C27      1.0000 0.44090  0.54190  0.25130  Biso   1.000  C
  C28      1.0000 0.55910  0.04190  0.24870  Biso   1.000  C
  O29      1.0000 0.18740  0.38930  0.91050  Biso   1.000  O
  O30      1.0000 0.81260  0.88930  0.58950  Biso   1.000  O
  O31      1.0000 0.81260  0.61070  0.08950  Biso   1.000  O
  O32      1.0000 0.18740  0.11070  0.41050  Biso   1.000  O
  C29      1.0000 0.38630  0.45320  0.73980  Biso   1.000  C
  C30      1.0000 0.61370  0.95320  0.76020  Biso   1.000  C
  C31      1.0000 0.61370  0.54680  0.26020  Biso   1.000  C
  C32      1.0000 0.38630  0.04680  0.23980  Biso   1.000  C
  O33      1.0000 0.50640  0.35030  0.56360  Biso   1.000  O
  O34      1.0000 0.49360  0.85030  0.93640  Biso   1.000  O
  O35      1.0000 0.49360  0.64970  0.43640  Biso   1.000  O
  O36      1.0000 0.50640  0.14970  0.06360  Biso   1.000  O
  C33      1.0000 0.65240  0.40020  0.74120  Biso   1.000  C
  C34      1.0000 0.34760  0.90020  0.75880  Biso   1.000  C
  C35      1.0000 0.34760  0.59980  0.25880  Biso   1.000  C
  C36      1.0000 0.65240  0.09980  0.24120  Biso   1.000  C
  H25      1.0000 0.60660  0.35690  0.73370  Biso   1.000  H
  H26      1.0000 0.39340  0.85690  0.76630  Biso   1.000  H
  H27      1.0000 0.39340  0.64310  0.26630  Biso   1.000  H
  H28      1.0000 0.60660  0.14310  0.23370  Biso   1.000  H
  C37      1.0000 0.10990  0.24820  0.88600  Biso   1.000  C
  C38      1.0000 0.89010  0.74820  0.61400  Biso   1.000  C
  C39      1.0000 0.89010  0.75180  0.11400  Biso   1.000  C
  C40      1.0000 0.10990  0.25180  0.38600  Biso   1.000  C
  H29      1.0000 0.13190  0.28350  0.84990  Biso   1.000  H
  H30      1.0000 0.86810  0.78350  0.65010  Biso   1.000  H
  H31      1.0000 0.86810  0.71650  0.15010  Biso   1.000  H
  H32      1.0000 0.13190  0.21650  0.34990  Biso   1.000  H
  C41      1.0000 0.17070  0.25180  0.96890  Biso   1.000  C
  C42      1.0000 0.82930  0.75180  0.53110  Biso   1.000  C
  C43      1.0000 0.82930  0.74820  0.03110  Biso   1.000  C
  C44      1.0000 0.17070  0.24820  0.46890  Biso   1.000  C
  C45      1.0000 0.28220  0.36820  0.97170  Biso   1.000  C
  C46      1.0000 0.71780  0.86820  0.52830  Biso   1.000  C
  C47      1.0000 0.71780  0.63180  0.02830  Biso   1.000  C
  C48      1.0000 0.28220  0.13180  0.47170  Biso   1.000  C
  C49      1.0000 0.39200  0.41600  0.02250  Biso   1.000  C
  C50      1.0000 0.60800  0.91600  0.47750  Biso   1.000  C
  C51      1.0000 0.60800  0.58400  0.97750  Biso   1.000  C
  C52      1.0000 0.39200  0.08400  0.52250  Biso   1.000  C
  H33      1.0000 0.42340  0.40960  0.07950  Biso   1.000  H
  H34      1.0000 0.57660  0.90960  0.42050  Biso   1.000  H
  H35      1.0000 0.57660  0.59040  0.92050  Biso   1.000  H
  H36      1.0000 0.42340  0.09040  0.57950  Biso   1.000  H
  H37      1.0000 0.35070  0.43670  0.05840  Biso   1.000  H
  H38      1.0000 0.64930  0.93670  0.44160  Biso   1.000  H
  H39      1.0000 0.64930  0.56330  0.94160  Biso   1.000  H
  H40      1.0000 0.35070  0.06330  0.55840  Biso   1.000  H
  C53      1.0000 0.44710  0.47520  0.97330  Biso   1.000  C
  C54      1.0000 0.55290  0.97520  0.52670  Biso   1.000  C
  C55      1.0000 0.55290  0.52480  0.02670  Biso   1.000  C
  C56      1.0000 0.44710  0.02480  0.47330  Biso   1.000  C
  H41      1.0000 0.35740  0.50040  0.94690  Biso   1.000  H
  H42      1.0000 0.64260  0.00040  0.55310  Biso   1.000  H
  H43      1.0000 0.64260  0.49960  0.05310  Biso   1.000  H
  H44      1.0000 0.35740  0.99960  0.44690  Biso   1.000  H
  H45      1.0000 0.50260  0.45710  0.92900  Biso   1.000  H
  H46      1.0000 0.49740  0.95710  0.57100  Biso   1.000  H
  H47      1.0000 0.49740  0.54290  0.07100  Biso   1.000  H
  H48      1.0000 0.50260  0.04290  0.42900  Biso   1.000  H
  C57      1.0000 0.13680  0.19880  0.02350  Biso   1.000  C
  C58      1.0000 0.86320  0.69880  0.47650  Biso   1.000  C
  C59      1.0000 0.86320  0.80120  0.97650  Biso   1.000  C
  C60      1.0000 0.13680  0.30120  0.52350  Biso   1.000  C
  H49      1.0000 0.17410  0.20040  0.08040  Biso   1.000  H
  H50      1.0000 0.82590  0.70040  0.41960  Biso   1.000  H
  H51      1.0000 0.82590  0.79960  0.91960  Biso   1.000  H
  H52      1.0000 0.17410  0.29960  0.58040  Biso   1.000  H
  C61      1.0000 0.04730  0.14450  0.99080  Biso   1.000  C
  C62      1.0000 0.95270  0.64450  0.50920  Biso   1.000  C
  C63      1.0000 0.95270  0.85550  0.00920  Biso   1.000  C
  C64      1.0000 0.04730  0.35550  0.49080  Biso   1.000  C
  H53      1.0000 0.02480  0.10820  0.02530  Biso   1.000  H
  H54      1.0000 0.97520  0.60820  0.47470  Biso   1.000  H
  H55      1.0000 0.97520  0.89180  0.97470  Biso   1.000  H
  H56      1.0000 0.02480  0.39180  0.52530  Biso   1.000  H
  C65      1.0000 0.99110  0.14420  0.90730  Biso   1.000  C
  C66      1.0000 0.00890  0.64420  0.59270  Biso   1.000  C
  C67      1.0000 0.00890  0.85580  0.09270  Biso   1.000  C
  C68      1.0000 0.99110  0.35580  0.40730  Biso   1.000  C
  H57      1.0000 0.93100  0.10700  0.88590  Biso   1.000  H
  H58      1.0000 0.06900  0.60700  0.61410  Biso   1.000  H
  H59      1.0000 0.06900  0.89300  0.11410  Biso   1.000  H
  H60      1.0000 0.93100  0.39300  0.38590  Biso   1.000  H
  C69      1.0000 0.75420  0.25060  0.57110  Biso   1.000  C
  C70      1.0000 0.24580  0.75060  0.92890  Biso   1.000  C
  C71      1.0000 0.24580  0.74940  0.42890  Biso   1.000  C
  C72      1.0000 0.75420  0.24940  0.07110  Biso   1.000  C
  H61      1.0000 0.73420  0.28710  0.60580  Biso   1.000  H
  H62      1.0000 0.26580  0.78710  0.89420  Biso   1.000  H
  H63      1.0000 0.26580  0.71290  0.39420  Biso   1.000  H
  H64      1.0000 0.73420  0.21290  0.10580  Biso   1.000  H
  C73      1.0000 0.69860  0.25480  0.48690  Biso   1.000  C
  C74      1.0000 0.30140  0.75480  0.01310  Biso   1.000  C
  C75      1.0000 0.30140  0.74520  0.51310  Biso   1.000  C
  C76      1.0000 0.69860  0.24520  0.98690  Biso   1.000  C
  C77      1.0000 0.52970  0.35730  0.49050  Biso   1.000  C
  C78      1.0000 0.47030  0.85730  0.00950  Biso   1.000  C
  C79      1.0000 0.47030  0.64270  0.50950  Biso   1.000  C
  C80      1.0000 0.52970  0.14270  0.99050  Biso   1.000  C
  C81      1.0000 0.45510  0.41510  0.43620  Biso   1.000  C
  C82      1.0000 0.54490  0.91510  0.06380  Biso   1.000  C
  C83      1.0000 0.54490  0.58490  0.56380  Biso   1.000  C
  C84      1.0000 0.45510  0.08490  0.93620  Biso   1.000  C
  H65      1.0000 0.35610  0.39900  0.40820  Biso   1.000  H
  H66      1.0000 0.64390  0.89900  0.09180  Biso   1.000  H
  H67      1.0000 0.64390  0.60100  0.59180  Biso   1.000  H
  H68      1.0000 0.35610  0.10100  0.90820  Biso   1.000  H
  H69      1.0000 0.52100  0.42580  0.39310  Biso   1.000  H
  H70      1.0000 0.47900  0.92580  0.10690  Biso   1.000  H
  H71      1.0000 0.47900  0.57420  0.60690  Biso   1.000  H
  H72      1.0000 0.52100  0.07420  0.89310  Biso   1.000  H
  C85      1.0000 0.42800  0.48120  0.48450  Biso   1.000  C
  C86      1.0000 0.57200  0.98120  0.01550  Biso   1.000  C
  C87      1.0000 0.57200  0.51880  0.51550  Biso   1.000  C
  C88      1.0000 0.42800  0.01880  0.98450  Biso   1.000  C
  H73      1.0000 0.36100  0.51150  0.44810  Biso   1.000  H
  H74      1.0000 0.63900  0.01150  0.05190  Biso   1.000  H
  H75      1.0000 0.63900  0.48850  0.55190  Biso   1.000  H
  H76      1.0000 0.36100  0.98850  0.94810  Biso   1.000  H
  H77      1.0000 0.37370  0.46940  0.53210  Biso   1.000  H
  H78      1.0000 0.62630  0.96940  0.96790  Biso   1.000  H
  H79      1.0000 0.62630  0.53060  0.46790  Biso   1.000  H
  H80      1.0000 0.37370  0.03060  0.03210  Biso   1.000  H
  C89      1.0000 0.72990  0.20120  0.43540  Biso   1.000  C
  C90      1.0000 0.27010  0.70120  0.06460  Biso   1.000  C
  C91      1.0000 0.27010  0.79880  0.56460  Biso   1.000  C
  C92      1.0000 0.72990  0.29880  0.93540  Biso   1.000  C
  H81      1.0000 0.69550  0.20230  0.37810  Biso   1.000  H
  H82      1.0000 0.30450  0.70230  0.12190  Biso   1.000  H
  H83      1.0000 0.30450  0.79770  0.62190  Biso   1.000  H
  H84      1.0000 0.69550  0.29770  0.87810  Biso   1.000  H
  C93      1.0000 0.81310  0.14630  0.47040  Biso   1.000  C
  C94      1.0000 0.18690  0.64630  0.02960  Biso   1.000  C
  C95      1.0000 0.18690  0.85370  0.52960  Biso   1.000  C
  C96      1.0000 0.81310  0.35370  0.97040  Biso   1.000  C
  H85      1.0000 0.83560  0.10940  0.43680  Biso   1.000  H
  H86      1.0000 0.16440  0.60940  0.06320  Biso   1.000  H
  H87      1.0000 0.16440  0.89060  0.56320  Biso   1.000  H
  H88      1.0000 0.83560  0.39060  0.93680  Biso   1.000  H
  C97      1.0000 0.86370  0.14500  0.55480  Biso   1.000  C
  C98      1.0000 0.13630  0.64500  0.94520  Biso   1.000  C
  C99      1.0000 0.13630  0.85500  0.44520  Biso   1.000  C
  C100     1.0000 0.86370  0.35500  0.05480  Biso   1.000  C
  H89      1.0000 0.91930  0.10700  0.57740  Biso   1.000  H
  H90      1.0000 0.08070  0.60700  0.92260  Biso   1.000  H
  H91      1.0000 0.08070  0.89300  0.42260  Biso   1.000  H
  H92      1.0000 0.91930  0.39300  0.07740  Biso   1.000  H
  O37      1.0000 0.45480  0.22860  0.67350  Biso   1.000  O
  O38      1.0000 0.54520  0.72860  0.82650  Biso   1.000  O
  O39      1.0000 0.54520  0.77140  0.32650  Biso   1.000  O
  O40      1.0000 0.45480  0.27140  0.17350  Biso   1.000  O
  H93      1.0000 0.36370  0.20760  0.71190  Biso   1.000  H
  H94      1.0000 0.63630  0.70760  0.78810  Biso   1.000  H
  H95      1.0000 0.63630  0.79240  0.28810  Biso   1.000  H
  H96      1.0000 0.36370  0.29240  0.21190  Biso   1.000  H
  H97      1.0000 0.37510  0.18780  0.70200  Biso   1.000  H
  H98      1.0000 0.62490  0.68780  0.79800  Biso   1.000  H
  H99      1.0000 0.62490  0.81220  0.29800  Biso   1.000  H
  H100     1.0000 0.37510  0.31220  0.20200  Biso   1.000  H
