data_image0
_cell_length_a       7.1939
_cell_length_b       13.559
_cell_length_c       20.6036
_cell_angle_alpha    90
_cell_angle_beta     90
_cell_angle_gamma    90

_symmetry_space_group_name_H-M    "P 1"
_symmetry_int_tables_number       1

loop_
  _symmetry_equiv_pos_as_xyz
  'x, y, z'

loop_
  _atom_site_label
  _atom_site_occupancy
  _atom_site_fract_x
  _atom_site_fract_y
  _atom_site_fract_z
  _atom_site_thermal_displace_type
  _atom_site_B_iso_or_equiv
  _atom_site_type_symbol
  Cu1      1.0000 0.27292  0.95512  0.26089  Biso   1.000  Cu
  Cu2      1.0000 0.22708  0.04488  0.76089  Biso   1.000  Cu
  Cu3      1.0000 0.77292  0.54488  0.73911  Biso   1.000  Cu
  Cu4      1.0000 0.72708  0.45512  0.23911  Biso   1.000  Cu
  O1       1.0000 0.30990  0.89121  0.17782  Biso   1.000  O
  O2       1.0000 0.19010  0.10879  0.67782  Biso   1.000  O
  O3       1.0000 0.80990  0.60879  0.82218  Biso   1.000  O
  O4       1.0000 0.69010  0.39121  0.32218  Biso   1.000  O
  O5       1.0000 0.19150  0.03319  0.14390  Biso   1.000  O
  O6       1.0000 0.30850  0.96681  0.64390  Biso   1.000  O
  O7       1.0000 0.69150  0.46681  0.85610  Biso   1.000  O
  O8       1.0000 0.80850  0.53319  0.35610  Biso   1.000  O
  O9       1.0000 0.27860  0.97046  0.83800  Biso   1.000  O
  O10      1.0000 0.22140  0.02954  0.33800  Biso   1.000  O
  O11      1.0000 0.77860  0.52954  0.16200  Biso   1.000  O
  O12      1.0000 0.72140  0.47046  0.66200  Biso   1.000  O
  O13      1.0000 0.16180  0.08857  0.90171  Biso   1.000  O
  O14      1.0000 0.33820  0.91143  0.40171  Biso   1.000  O
  O15      1.0000 0.66180  0.41143  0.09829  Biso   1.000  O
  O16      1.0000 0.83820  0.58857  0.59829  Biso   1.000  O
  O17      1.0000 0.23920  0.61118  0.03431  Biso   1.000  O
  O18      1.0000 0.26080  0.38882  0.53431  Biso   1.000  O
  O19      1.0000 0.73920  0.88882  0.96569  Biso   1.000  O
  O20      1.0000 0.76080  0.11118  0.46569  Biso   1.000  O
  H1       1.0000 0.21890  0.55640  0.02870  Biso   1.000  H
  H2       1.0000 0.28110  0.44360  0.52870  Biso   1.000  H
  H3       1.0000 0.71890  0.94360  0.97130  Biso   1.000  H
  H4       1.0000 0.78110  0.05640  0.47130  Biso   1.000  H
  O21      1.0000 0.25960  0.62450  0.92690  Biso   1.000  O
  O22      1.0000 0.24040  0.37550  0.42690  Biso   1.000  O
  O23      1.0000 0.75960  0.87550  0.07310  Biso   1.000  O
  O24      1.0000 0.74040  0.12450  0.57310  Biso   1.000  O
  O25      1.0000 0.92940  0.83673  0.57871  Biso   1.000  O
  O26      1.0000 0.57060  0.16327  0.07871  Biso   1.000  O
  O27      1.0000 0.42940  0.66327  0.42129  Biso   1.000  O
  O28      1.0000 0.07060  0.33673  0.92129  Biso   1.000  O
  O29      1.0000 0.84130  0.92466  0.44980  Biso   1.000  O
  O30      1.0000 0.65870  0.07534  0.94980  Biso   1.000  O
  O31      1.0000 0.34130  0.57534  0.55020  Biso   1.000  O
  O32      1.0000 0.15870  0.42466  0.05020  Biso   1.000  O
  N1       1.0000 0.02940  0.87379  0.27102  Biso   1.000  N
  N2       1.0000 0.47060  0.12621  0.77102  Biso   1.000  N
  N3       1.0000 0.52940  0.62621  0.72898  Biso   1.000  N
  N4       1.0000 0.97060  0.37379  0.22898  Biso   1.000  N
  N5       1.0000 0.97230  0.97384  0.75370  Biso   1.000  N
  N6       1.0000 0.52770  0.02616  0.25370  Biso   1.000  N
  N7       1.0000 0.47230  0.52616  0.24630  Biso   1.000  N
  N8       1.0000 0.02770  0.47384  0.74630  Biso   1.000  N
  N9       1.0000 0.65940  0.88080  0.62640  Biso   1.000  N
  N10      1.0000 0.84060  0.11920  0.12640  Biso   1.000  N
  N11      1.0000 0.15940  0.61920  0.37360  Biso   1.000  N
  N12      1.0000 0.34060  0.38080  0.87360  Biso   1.000  N
  H5       1.0000 0.54340  0.89240  0.62130  Biso   1.000  H
  H6       1.0000 0.95660  0.10760  0.12130  Biso   1.000  H
  H7       1.0000 0.04340  0.60760  0.37870  Biso   1.000  H
  H8       1.0000 0.45660  0.39240  0.87870  Biso   1.000  H
  N13      1.0000 0.74390  0.78112  0.40595  Biso   1.000  N
  N14      1.0000 0.75610  0.21888  0.90595  Biso   1.000  N
  N15      1.0000 0.24390  0.71888  0.59405  Biso   1.000  N
  N16      1.0000 0.25610  0.28112  0.09405  Biso   1.000  N
  H9       1.0000 0.66110  0.73340  0.41170  Biso   1.000  H
  H10      1.0000 0.83890  0.26660  0.91170  Biso   1.000  H
  H11      1.0000 0.16110  0.76660  0.58830  Biso   1.000  H
  H12      1.0000 0.33890  0.23340  0.08830  Biso   1.000  H
  C1       1.0000 0.91450  0.85622  0.22114  Biso   1.000  C
  C2       1.0000 0.58550  0.14378  0.72114  Biso   1.000  C
  C3       1.0000 0.41450  0.64378  0.77886  Biso   1.000  C
  C4       1.0000 0.08550  0.35622  0.27886  Biso   1.000  C
  H13      1.0000 0.95180  0.87520  0.17980  Biso   1.000  H
  H14      1.0000 0.54820  0.12480  0.67980  Biso   1.000  H
  H15      1.0000 0.45180  0.62480  0.82020  Biso   1.000  H
  H16      1.0000 0.04820  0.37520  0.32020  Biso   1.000  H
  C5       1.0000 0.74410  0.81146  0.22822  Biso   1.000  C
  C6       1.0000 0.75590  0.18854  0.72822  Biso   1.000  C
  C7       1.0000 0.24410  0.68854  0.77178  Biso   1.000  C
  C8       1.0000 0.25590  0.31146  0.27178  Biso   1.000  C
  H17      1.0000 0.66940  0.79950  0.19220  Biso   1.000  H
  H18      1.0000 0.83060  0.20050  0.69220  Biso   1.000  H
  H19      1.0000 0.16940  0.70050  0.80780  Biso   1.000  H
  H20      1.0000 0.33060  0.29950  0.30780  Biso   1.000  H
  C9       1.0000 0.68570  0.78453  0.28975  Biso   1.000  C
  C10      1.0000 0.81430  0.21547  0.78975  Biso   1.000  C
  C11      1.0000 0.18570  0.71547  0.71025  Biso   1.000  C
  C12      1.0000 0.31430  0.28453  0.21025  Biso   1.000  C
  H21      1.0000 0.57130  0.75400  0.29590  Biso   1.000  H
  H22      1.0000 0.92870  0.24600  0.79590  Biso   1.000  H
  H23      1.0000 0.07130  0.74600  0.70410  Biso   1.000  H
  H24      1.0000 0.42870  0.25400  0.20410  Biso   1.000  H
  C13      1.0000 0.80090  0.80390  0.34174  Biso   1.000  C
  C14      1.0000 0.69910  0.19610  0.84174  Biso   1.000  C
  C15      1.0000 0.30090  0.69610  0.65826  Biso   1.000  C
  C16      1.0000 0.19910  0.30390  0.15826  Biso   1.000  C
  C17      1.0000 0.97230  0.84652  0.33047  Biso   1.000  C
  C18      1.0000 0.52770  0.15348  0.83047  Biso   1.000  C
  C19      1.0000 0.47230  0.65348  0.66953  Biso   1.000  C
  C20      1.0000 0.02770  0.34652  0.16953  Biso   1.000  C
  H25      1.0000 0.05160  0.85680  0.36550  Biso   1.000  H
  H26      1.0000 0.44840  0.14320  0.86550  Biso   1.000  H
  H27      1.0000 0.55160  0.64320  0.63450  Biso   1.000  H
  H28      1.0000 0.94840  0.35680  0.13450  Biso   1.000  H
  C21      1.0000 0.75380  0.84782  0.45492  Biso   1.000  C
  C22      1.0000 0.74620  0.15218  0.95492  Biso   1.000  C
  C23      1.0000 0.25380  0.65218  0.54508  Biso   1.000  C
  C24      1.0000 0.24620  0.34782  0.04508  Biso   1.000  C
  C25      1.0000 0.65260  0.82072  0.51609  Biso   1.000  C
  C26      1.0000 0.84740  0.17928  0.01609  Biso   1.000  C
  C27      1.0000 0.15260  0.67928  0.48391  Biso   1.000  C
  C28      1.0000 0.34740  0.32072  0.98391  Biso   1.000  C
  H29      1.0000 0.62900  0.75030  0.51630  Biso   1.000  H
  H30      1.0000 0.87100  0.24970  0.01630  Biso   1.000  H
  H31      1.0000 0.12900  0.74970  0.48370  Biso   1.000  H
  H32      1.0000 0.37100  0.25030  0.98370  Biso   1.000  H
  H33      1.0000 0.53350  0.85420  0.51690  Biso   1.000  H
  H34      1.0000 0.96650  0.14580  0.01690  Biso   1.000  H
  H35      1.0000 0.03350  0.64580  0.48310  Biso   1.000  H
  H36      1.0000 0.46650  0.35420  0.98310  Biso   1.000  H
  C29      1.0000 0.76130  0.84796  0.57612  Biso   1.000  C
  C30      1.0000 0.73870  0.15204  0.07612  Biso   1.000  C
  C31      1.0000 0.26130  0.65204  0.42388  Biso   1.000  C
  C32      1.0000 0.23870  0.34796  0.92388  Biso   1.000  C
  C33      1.0000 0.73080  0.90331  0.68876  Biso   1.000  C
  C34      1.0000 0.76920  0.09669  0.18876  Biso   1.000  C
  C35      1.0000 0.23080  0.59669  0.31124  Biso   1.000  C
  C36      1.0000 0.26920  0.40331  0.81124  Biso   1.000  C
  C37      1.0000 0.62700  0.88339  0.74342  Biso   1.000  C
  C38      1.0000 0.87300  0.11661  0.24342  Biso   1.000  C
  C39      1.0000 0.12700  0.61661  0.25658  Biso   1.000  C
  C40      1.0000 0.37300  0.38339  0.75658  Biso   1.000  C
  H37      1.0000 0.51140  0.85310  0.74010  Biso   1.000  H
  H38      1.0000 0.98860  0.14690  0.24010  Biso   1.000  H
  H39      1.0000 0.01140  0.64690  0.25990  Biso   1.000  H
  H40      1.0000 0.48860  0.35310  0.75990  Biso   1.000  H
  C41      1.0000 0.69860  0.90955  0.80337  Biso   1.000  C
  C42      1.0000 0.80140  0.09045  0.30337  Biso   1.000  C
  C43      1.0000 0.19860  0.59045  0.19663  Biso   1.000  C
  C44      1.0000 0.30140  0.40955  0.69663  Biso   1.000  C
  H41      1.0000 0.63100  0.89750  0.84100  Biso   1.000  H
  H42      1.0000 0.86900  0.10250  0.34100  Biso   1.000  H
  H43      1.0000 0.13100  0.60250  0.15900  Biso   1.000  H
  H44      1.0000 0.36900  0.39750  0.65900  Biso   1.000  H
  C45      1.0000 0.87020  0.95330  0.80670  Biso   1.000  C
  C46      1.0000 0.62980  0.04670  0.30670  Biso   1.000  C
  C47      1.0000 0.37020  0.54670  0.19330  Biso   1.000  C
  C48      1.0000 0.12980  0.45330  0.69330  Biso   1.000  C
  H45      1.0000 0.91790  0.96950  0.84730  Biso   1.000  H
  H46      1.0000 0.58210  0.03050  0.34730  Biso   1.000  H
  H47      1.0000 0.41790  0.53050  0.15270  Biso   1.000  H
  H48      1.0000 0.08210  0.46950  0.65270  Biso   1.000  H
  C49      1.0000 0.90100  0.94928  0.69564  Biso   1.000  C
  C50      1.0000 0.59900  0.05072  0.19564  Biso   1.000  C
  C51      1.0000 0.40100  0.55072  0.30436  Biso   1.000  C
  C52      1.0000 0.09900  0.44928  0.80436  Biso   1.000  C
  H49      1.0000 0.96910  0.96390  0.65850  Biso   1.000  H
  H50      1.0000 0.53090  0.03610  0.15850  Biso   1.000  H
  H51      1.0000 0.46910  0.53610  0.34150  Biso   1.000  H
  H52      1.0000 0.03090  0.46390  0.84150  Biso   1.000  H
  C53      1.0000 0.22740  0.00597  0.89312  Biso   1.000  C
  C54      1.0000 0.27260  0.99403  0.39312  Biso   1.000  C
  C55      1.0000 0.72740  0.49403  0.10688  Biso   1.000  C
  C56      1.0000 0.77260  0.50597  0.60688  Biso   1.000  C
  C57      1.0000 0.24680  0.93544  0.94965  Biso   1.000  C
  C58      1.0000 0.25320  0.06456  0.44965  Biso   1.000  C
  C59      1.0000 0.74680  0.56456  0.05035  Biso   1.000  C
  C60      1.0000 0.75320  0.43544  0.55035  Biso   1.000  C
  C61      1.0000 0.24520  0.97208  0.01262  Biso   1.000  C
  C62      1.0000 0.25480  0.02792  0.51262  Biso   1.000  C
  C63      1.0000 0.74520  0.52792  0.98738  Biso   1.000  C
  C64      1.0000 0.75480  0.47208  0.48738  Biso   1.000  C
  H53      1.0000 0.23740  0.03970  0.01950  Biso   1.000  H
  H54      1.0000 0.26260  0.96030  0.51950  Biso   1.000  H
  H55      1.0000 0.73740  0.46030  0.98050  Biso   1.000  H
  H56      1.0000 0.76260  0.53970  0.48050  Biso   1.000  H
  C65      1.0000 0.25520  0.90891  0.06510  Biso   1.000  C
  C66      1.0000 0.24480  0.09109  0.56510  Biso   1.000  C
  C67      1.0000 0.75520  0.59109  0.93490  Biso   1.000  C
  C68      1.0000 0.74480  0.40891  0.43490  Biso   1.000  C
  C69      1.0000 0.25090  0.94848  0.13300  Biso   1.000  C
  C70      1.0000 0.24910  0.05152  0.63300  Biso   1.000  C
  C71      1.0000 0.75090  0.55152  0.86700  Biso   1.000  C
  C72      1.0000 0.74910  0.44848  0.36700  Biso   1.000  C
  C73      1.0000 0.26300  0.80754  0.05494  Biso   1.000  C
  C74      1.0000 0.23700  0.19246  0.55494  Biso   1.000  C
  C75      1.0000 0.76300  0.69246  0.94506  Biso   1.000  C
  C76      1.0000 0.73700  0.30754  0.44506  Biso   1.000  C
  H57      1.0000 0.26970  0.76470  0.09010  Biso   1.000  H
  H58      1.0000 0.23030  0.23530  0.59010  Biso   1.000  H
  H59      1.0000 0.76970  0.73530  0.90990  Biso   1.000  H
  H60      1.0000 0.73030  0.26470  0.40990  Biso   1.000  H
  C77      1.0000 0.26070  0.77031  0.99191  Biso   1.000  C
  C78      1.0000 0.23930  0.22969  0.49191  Biso   1.000  C
  C79      1.0000 0.76070  0.72969  0.00809  Biso   1.000  C
  C80      1.0000 0.73930  0.27031  0.50809  Biso   1.000  C
  C81      1.0000 0.25480  0.66160  0.97962  Biso   1.000  C
  C82      1.0000 0.24520  0.33840  0.47962  Biso   1.000  C
  C83      1.0000 0.75480  0.83840  0.02038  Biso   1.000  C
  C84      1.0000 0.74520  0.16160  0.52038  Biso   1.000  C
  C85      1.0000 0.25570  0.83453  0.93963  Biso   1.000  C
  C86      1.0000 0.24430  0.16547  0.43963  Biso   1.000  C
  C87      1.0000 0.75570  0.66547  0.06037  Biso   1.000  C
  C88      1.0000 0.74430  0.33453  0.56037  Biso   1.000  C
  H61      1.0000 0.25830  0.80970  0.89760  Biso   1.000  H
  H62      1.0000 0.24170  0.19030  0.39760  Biso   1.000  H
  H63      1.0000 0.75830  0.69030  0.10240  Biso   1.000  H
  H64      1.0000 0.74170  0.30970  0.60240  Biso   1.000  H
