data_image0
_cell_length_a       8.3409
_cell_length_b       16.193
_cell_length_c       17.102
_cell_angle_alpha    67.13
_cell_angle_beta     83.93
_cell_angle_gamma    86.81

_symmetry_space_group_name_H-M    "P 1"
_symmetry_int_tables_number       1

loop_
  _symmetry_equiv_pos_as_xyz
  'x, y, z'

loop_
  _atom_site_label
  _atom_site_occupancy
  _atom_site_fract_x
  _atom_site_fract_y
  _atom_site_fract_z
  _atom_site_thermal_displace_type
  _atom_site_B_iso_or_equiv
  _atom_site_type_symbol
  C1       1.0000 0.33990  0.05370  0.41890  Biso   1.000  C
  C2       1.0000 0.66010  0.94630  0.58110  Biso   1.000  C
  H1       1.0000 0.33950  0.02060  0.38500  Biso   1.000  H
  H2       1.0000 0.66050  0.97940  0.61500  Biso   1.000  H
  C3       1.0000 0.46120  0.10460  0.41760  Biso   1.000  C
  C4       1.0000 0.53880  0.89540  0.58240  Biso   1.000  C
  H3       1.0000 0.55890  0.11260  0.38400  Biso   1.000  H
  H4       1.0000 0.44110  0.88740  0.61600  Biso   1.000  H
  C5       1.0000 0.26510  0.11090  0.51040  Biso   1.000  C
  C6       1.0000 0.73490  0.88910  0.48960  Biso   1.000  C
  H5       1.0000 0.20620  0.12580  0.55250  Biso   1.000  H
  H6       1.0000 0.79380  0.87420  0.44750  Biso   1.000  H
  C7       1.0000 0.00920  0.94000  0.66690  Biso   1.000  C
  C8       1.0000 0.99080  0.06000  0.33310  Biso   1.000  C
  C9       1.0000 0.97880  0.92560  0.75900  Biso   1.000  C
  C10      1.0000 0.02120  0.07440  0.24100  Biso   1.000  C
  C11      1.0000 0.03460  0.84830  0.82130  Biso   1.000  C
  C12      1.0000 0.96540  0.15170  0.17870  Biso   1.000  C
  H7       1.0000 0.08970  0.80520  0.80490  Biso   1.000  H
  H8       1.0000 0.91030  0.19480  0.19510  Biso   1.000  H
  C13      1.0000 0.01100  0.83300  0.90710  Biso   1.000  C
  C14      1.0000 0.98900  0.16700  0.09290  Biso   1.000  C
  H9       1.0000 0.05110  0.78120  0.94770  Biso   1.000  H
  H10      1.0000 0.94890  0.21880  0.05230  Biso   1.000  H
  C15      1.0000 0.92730  0.89620  0.93070  Biso   1.000  C
  C16      1.0000 0.07270  0.10380  0.06930  Biso   1.000  C
  C17      1.0000 0.86980  0.97390  0.87010  Biso   1.000  C
  C18      1.0000 0.13020  0.02610  0.12990  Biso   1.000  C
  H11      1.0000 0.81430  0.01670  0.88680  Biso   1.000  H
  H12      1.0000 0.18570  0.98330  0.11320  Biso   1.000  H
  C19      1.0000 0.89490  0.98780  0.78540  Biso   1.000  C
  C20      1.0000 0.10510  0.01220  0.21460  Biso   1.000  C
  H13      1.0000 0.85480  0.03990  0.74500  Biso   1.000  H
  H14      1.0000 0.14520  0.96010  0.25500  Biso   1.000  H
  C21      1.0000 0.93930  0.80840  0.08030  Biso   1.000  C
  C22      1.0000 0.06070  0.19160  0.91970  Biso   1.000  C
  C23      1.0000 0.82510  0.74550  0.12150  Biso   1.000  C
  C24      1.0000 0.17490  0.25450  0.87850  Biso   1.000  C
  H15      1.0000 0.72390  0.75250  0.10140  Biso   1.000  H
  H16      1.0000 0.27610  0.24750  0.89860  Biso   1.000  H
  C25      1.0000 0.85890  0.67030  0.19380  Biso   1.000  C
  C26      1.0000 0.14110  0.32970  0.80620  Biso   1.000  C
  H17      1.0000 0.78060  0.62770  0.22290  Biso   1.000  H
  H18      1.0000 0.21940  0.37230  0.77710  Biso   1.000  H
  C27      1.0000 0.01450  0.66070  0.22140  Biso   1.000  C
  C28      1.0000 0.98550  0.33930  0.77860  Biso   1.000  C
  C29      1.0000 0.13070  0.72430  0.17660  Biso   1.000  C
  C30      1.0000 0.86930  0.27570  0.82340  Biso   1.000  C
  H19      1.0000 0.23440  0.71700  0.19390  Biso   1.000  H
  H20      1.0000 0.76560  0.28300  0.80610  Biso   1.000  H
  C31      1.0000 0.09180  0.79880  0.10570  Biso   1.000  C
  C32      1.0000 0.90820  0.20120  0.89430  Biso   1.000  C
  H21      1.0000 0.16890  0.84190  0.07580  Biso   1.000  H
  H22      1.0000 0.83110  0.15810  0.92420  Biso   1.000  H
  C33      1.0000 0.04900  0.58140  0.30160  Biso   1.000  C
  C34      1.0000 0.95100  0.41860  0.69840  Biso   1.000  C
  C35      1.0000 0.36340  0.39040  0.30790  Biso   1.000  C
  C36      1.0000 0.63660  0.60960  0.69210  Biso   1.000  C
  H23      1.0000 0.45310  0.42680  0.29270  Biso   1.000  H
  H24      1.0000 0.54690  0.57320  0.70730  Biso   1.000  H
  C37      1.0000 0.18960  0.29390  0.31300  Biso   1.000  C
  C38      1.0000 0.81040  0.70610  0.68700  Biso   1.000  C
  H25      1.0000 0.13690  0.25080  0.30230  Biso   1.000  H
  H26      1.0000 0.86310  0.74920  0.69770  Biso   1.000  H
  C39      1.0000 0.14120  0.32860  0.37040  Biso   1.000  C
  C40      1.0000 0.85880  0.67140  0.62960  Biso   1.000  C
  H27      1.0000 0.04690  0.31380  0.40680  Biso   1.000  H
  H28      1.0000 0.95310  0.68620  0.59320  Biso   1.000  H
  C41      1.0000 0.21040  0.32040  0.58220  Biso   1.000  C
  C42      1.0000 0.78960  0.67960  0.41780  Biso   1.000  C
  C43      1.0000 0.28310  0.24670  0.65490  Biso   1.000  C
  C44      1.0000 0.71690  0.75330  0.34510  Biso   1.000  C
  C45      1.0000 0.44550  0.24860  0.66750  Biso   1.000  C
  C46      1.0000 0.55450  0.75140  0.33250  Biso   1.000  C
  H29      1.0000 0.50970  0.29540  0.63030  Biso   1.000  H
  H30      1.0000 0.49030  0.70460  0.36970  Biso   1.000  H
  C47      1.0000 0.51140  0.18100  0.73510  Biso   1.000  C
  C48      1.0000 0.48860  0.81900  0.26490  Biso   1.000  C
  H31      1.0000 0.61900  0.18270  0.74390  Biso   1.000  H
  H32      1.0000 0.38100  0.81730  0.25610  Biso   1.000  H
  C49      1.0000 0.41510  0.11060  0.78970  Biso   1.000  C
  C50      1.0000 0.58490  0.88940  0.21030  Biso   1.000  C
  C51      1.0000 0.25260  0.10740  0.77910  Biso   1.000  C
  C52      1.0000 0.74740  0.89260  0.22090  Biso   1.000  C
  H33      1.0000 0.18870  0.06060  0.81660  Biso   1.000  H
  H34      1.0000 0.81130  0.93940  0.18340  Biso   1.000  H
  C53      1.0000 0.18810  0.17580  0.71110  Biso   1.000  C
  C54      1.0000 0.81190  0.82420  0.28890  Biso   1.000  C
  H35      1.0000 0.08010  0.17420  0.70280  Biso   1.000  H
  H36      1.0000 0.91990  0.82580  0.29720  Biso   1.000  H
  C55      1.0000 0.46740  0.95600  0.87390  Biso   1.000  C
  C56      1.0000 0.53260  0.04400  0.12610  Biso   1.000  C
  C57      1.0000 0.45710  0.92820  0.80800  Biso   1.000  C
  C58      1.0000 0.54290  0.07180  0.19200  Biso   1.000  C
  H37      1.0000 0.45420  0.96960  0.75230  Biso   1.000  H
  H38      1.0000 0.54580  0.03040  0.24770  Biso   1.000  H
  C59      1.0000 0.45110  0.83730  0.82680  Biso   1.000  C
  C60      1.0000 0.54890  0.16270  0.17320  Biso   1.000  C
  H39      1.0000 0.44480  0.81770  0.78280  Biso   1.000  H
  H40      1.0000 0.55520  0.18230  0.21720  Biso   1.000  H
  C61      1.0000 0.45420  0.77440  0.90950  Biso   1.000  C
  C62      1.0000 0.54580  0.22560  0.09050  Biso   1.000  C
  C63      1.0000 0.46580  0.80490  0.97400  Biso   1.000  C
  C64      1.0000 0.53420  0.19510  0.02600  Biso   1.000  C
  H41      1.0000 0.46990  0.76360  0.02970  Biso   1.000  H
  H42      1.0000 0.53010  0.23640  0.97030  Biso   1.000  H
  C65      1.0000 0.47160  0.89560  0.95750  Biso   1.000  C
  C66      1.0000 0.52840  0.10440  0.04250  Biso   1.000  C
  H43      1.0000 0.47800  0.91540  0.00130  Biso   1.000  H
  H44      1.0000 0.52200  0.08460  0.99870  Biso   1.000  H
  C67      1.0000 0.44800  0.67590  0.92740  Biso   1.000  C
  C68      1.0000 0.55200  0.32410  0.07260  Biso   1.000  C
  C69      1.0000 0.18390  0.50900  0.09530  Biso   1.000  C
  C70      1.0000 0.81610  0.49100  0.90470  Biso   1.000  C
  H45      1.0000 0.21660  0.55680  0.10690  Biso   1.000  H
  H46      1.0000 0.78340  0.44320  0.89310  Biso   1.000  H
  C71      1.0000 0.03570  0.40360  0.09240  Biso   1.000  C
  C72      1.0000 0.96430  0.59640  0.90760  Biso   1.000  C
  H47      1.0000 0.94960  0.36630  0.10010  Biso   1.000  H
  H48      1.0000 0.05040  0.63370  0.89990  Biso   1.000  H
  C73      1.0000 0.17940  0.40270  0.04900  Biso   1.000  C
  C74      1.0000 0.82060  0.59730  0.95100  Biso   1.000  C
  H49      1.0000 0.21150  0.36290  0.02300  Biso   1.000  H
  H50      1.0000 0.78850  0.63710  0.97700  Biso   1.000  H
  N1       1.0000 0.21520  0.05690  0.47730  Biso   1.000  N
  N2       1.0000 0.78480  0.94310  0.52270  Biso   1.000  N
  N3       1.0000 0.41460  0.14220  0.47450  Biso   1.000  N
  N4       1.0000 0.58540  0.85780  0.52550  Biso   1.000  N
  N5       1.0000 0.33730  0.33530  0.27120  Biso   1.000  N
  N6       1.0000 0.66270  0.66470  0.72880  Biso   1.000  N
  N7       1.0000 0.25100  0.38930  0.36790  Biso   1.000  N
  N8       1.0000 0.74900  0.61070  0.63210  Biso   1.000  N
  N9       1.0000 0.04000  0.46950  0.12310  Biso   1.000  N
  N10      1.0000 0.96000  0.53050  0.87690  Biso   1.000  N
  N11      1.0000 0.27220  0.47130  0.04960  Biso   1.000  N
  N12      1.0000 0.72780  0.52870  0.95040  Biso   1.000  N
  O1       1.0000 0.96480  0.01430  0.61150  Biso   1.000  O
  O2       1.0000 0.03520  0.98570  0.38850  Biso   1.000  O
  O3       1.0000 0.07430  0.87920  0.64520  Biso   1.000  O
  O4       1.0000 0.92570  0.12080  0.35480  Biso   1.000  O
  O5       1.0000 0.89650  0.88840  0.01390  Biso   1.000  O
  O6       1.0000 0.10350  0.11160  0.98610  Biso   1.000  O
  O7       1.0000 0.93910  0.53000  0.34330  Biso   1.000  O
  O8       1.0000 0.06090  0.47000  0.65670  Biso   1.000  O
  O9       1.0000 0.19320  0.57520  0.32260  Biso   1.000  O
  O10      1.0000 0.80680  0.42480  0.67740  Biso   1.000  O
  O11      1.0000 0.51540  0.50940  0.39430  Biso   1.000  O
  O12      1.0000 0.48460  0.49060  0.60570  Biso   1.000  O
  O13      1.0000 0.17270  0.55400  0.49050  Biso   1.000  O
  O14      1.0000 0.82730  0.44600  0.50950  Biso   1.000  O
  O15      1.0000 0.30570  0.38410  0.53440  Biso   1.000  O
  O16      1.0000 0.69430  0.61590  0.46560  Biso   1.000  O
  O17      1.0000 0.06560  0.31700  0.57120  Biso   1.000  O
  O18      1.0000 0.93440  0.68300  0.42880  Biso   1.000  O
  O19      1.0000 0.48300  0.04620  0.86030  Biso   1.000  O
  O20      1.0000 0.51700  0.95380  0.13970  Biso   1.000  O
  O21      1.0000 0.47130  0.62120  0.00310  Biso   1.000  O
  O22      1.0000 0.52870  0.37880  0.99690  Biso   1.000  O
  O23      1.0000 0.42430  0.65180  0.86900  Biso   1.000  O
  O24      1.0000 0.57570  0.34820  0.13100  Biso   1.000  O
  Cu1      1.0000 0.24051  0.47415  0.42711  Biso   1.000  Cu
  Cu2      1.0000 0.75949  0.52585  0.57289  Biso   1.000  Cu
  Cu3      1.0000 0.00000  0.00000  0.50000  Biso   1.000  Cu
  Cu4      1.0000 0.50000  0.50000  0.00000  Biso   1.000  Cu
  O25      1.0000 0.73820  0.27270  0.30900  Biso   1.000  O
  O26      1.0000 0.26180  0.72730  0.69100  Biso   1.000  O
  O27      1.0000 0.77980  0.46100  0.23960  Biso   1.000  O
  O28      1.0000 0.22020  0.53900  0.76040  Biso   1.000  O
  O29      1.0000 0.61600  0.28120  0.46940  Biso   1.000  O
  O30      1.0000 0.38400  0.71880  0.53060  Biso   1.000  O
  O31      1.0000 0.83810  0.19060  0.58430  Biso   1.000  O
  O32      1.0000 0.16190  0.80940  0.41570  Biso   1.000  O
  O33      1.0000 0.49920  0.59730  0.18640  Biso   1.000  O
  O34      1.0000 0.50080  0.40270  0.81360  Biso   1.000  O
