data_image0
_cell_length_a       9.146
_cell_length_b       17.611
_cell_length_c       13.737
_cell_angle_alpha    90
_cell_angle_beta     123
_cell_angle_gamma    90

_symmetry_space_group_name_H-M    "P 1"
_symmetry_int_tables_number       1

loop_
  _symmetry_equiv_pos_as_xyz
  'x, y, z'

loop_
  _atom_site_label
  _atom_site_occupancy
  _atom_site_fract_x
  _atom_site_fract_y
  _atom_site_fract_z
  _atom_site_thermal_displace_type
  _atom_site_B_iso_or_equiv
  _atom_site_type_symbol
  I1       1.0000 0.31635  0.06223  0.49856  Biso   1.000  I
  I2       1.0000 0.68365  0.56223  0.00144  Biso   1.000  I
  I3       1.0000 0.68365  0.93777  0.50144  Biso   1.000  I
  I4       1.0000 0.31635  0.43777  0.99856  Biso   1.000  I
  Cu1      1.0000 0.23542  0.37584  0.67781  Biso   1.000  Cu
  Cu2      1.0000 0.76458  0.87584  0.82219  Biso   1.000  Cu
  Cu3      1.0000 0.76458  0.62416  0.32219  Biso   1.000  Cu
  Cu4      1.0000 0.23542  0.12416  0.17781  Biso   1.000  Cu
  O1       1.0000 0.59400  0.04151  0.23930  Biso   1.000  O
  O2       1.0000 0.40600  0.54151  0.26070  Biso   1.000  O
  O3       1.0000 0.40600  0.95849  0.76070  Biso   1.000  O
  O4       1.0000 0.59400  0.45849  0.73930  Biso   1.000  O
  O5       1.0000 0.29170  0.48380  0.70780  Biso   1.000  O
  O6       1.0000 0.70830  0.98380  0.79220  Biso   1.000  O
  O7       1.0000 0.70830  0.51620  0.29220  Biso   1.000  O
  O8       1.0000 0.29170  0.01620  0.20780  Biso   1.000  O
  H1       1.0000 0.22650  0.51860  0.68410  Biso   1.000  H
  H2       1.0000 0.77350  0.01860  0.81590  Biso   1.000  H
  H3       1.0000 0.77350  0.48140  0.31590  Biso   1.000  H
  H4       1.0000 0.22650  0.98140  0.18410  Biso   1.000  H
  H5       1.0000 0.36190  0.49490  0.69470  Biso   1.000  H
  H6       1.0000 0.63810  0.99490  0.80530  Biso   1.000  H
  H7       1.0000 0.63810  0.50510  0.30530  Biso   1.000  H
  H8       1.0000 0.36190  0.00510  0.19470  Biso   1.000  H
  O9       1.0000 0.47880  0.15268  0.24550  Biso   1.000  O
  O10      1.0000 0.52120  0.65268  0.25450  Biso   1.000  O
  O11      1.0000 0.52120  0.84732  0.75450  Biso   1.000  O
  O12      1.0000 0.47880  0.34732  0.74550  Biso   1.000  O
  O13      1.0000 0.86250  0.38378  0.34980  Biso   1.000  O
  O14      1.0000 0.13750  0.88378  0.15020  Biso   1.000  O
  O15      1.0000 0.13750  0.61622  0.65020  Biso   1.000  O
  O16      1.0000 0.86250  0.11622  0.84980  Biso   1.000  O
  O17      1.0000 0.14680  0.36829  0.48590  Biso   1.000  O
  O18      1.0000 0.85320  0.86829  0.01410  Biso   1.000  O
  O19      1.0000 0.85320  0.63171  0.51410  Biso   1.000  O
  O20      1.0000 0.14680  0.13171  0.98590  Biso   1.000  O
  N1       1.0000 0.98190  0.38926  0.62280  Biso   1.000  N
  N2       1.0000 0.01810  0.88926  0.87720  Biso   1.000  N
  N3       1.0000 0.01810  0.61074  0.37720  Biso   1.000  N
  N4       1.0000 0.98190  0.11074  0.12280  Biso   1.000  N
  N5       1.0000 0.18330  0.26658  0.69660  Biso   1.000  N
  N6       1.0000 0.81670  0.76658  0.80340  Biso   1.000  N
  N7       1.0000 0.81670  0.73342  0.30340  Biso   1.000  N
  N8       1.0000 0.18330  0.23342  0.19660  Biso   1.000  N
  C1       1.0000 0.09470  0.13312  0.42780  Biso   1.000  C
  C2       1.0000 0.90530  0.63312  0.07220  Biso   1.000  C
  C3       1.0000 0.90530  0.86688  0.57220  Biso   1.000  C
  C4       1.0000 0.09470  0.36688  0.92780  Biso   1.000  C
  C5       1.0000 0.92980  0.10030  0.37120  Biso   1.000  C
  C6       1.0000 0.07020  0.60030  0.12880  Biso   1.000  C
  C7       1.0000 0.07020  0.89970  0.62880  Biso   1.000  C
  C8       1.0000 0.92980  0.39970  0.87120  Biso   1.000  C
  H9       1.0000 0.91700  0.04780  0.36300  Biso   1.000  H
  H10      1.0000 0.08300  0.54780  0.13700  Biso   1.000  H
  H11      1.0000 0.08300  0.95220  0.63700  Biso   1.000  H
  H12      1.0000 0.91700  0.45220  0.86300  Biso   1.000  H
  C9       1.0000 0.78360  0.14735  0.32660  Biso   1.000  C
  C10      1.0000 0.21640  0.64735  0.17340  Biso   1.000  C
  C11      1.0000 0.21640  0.85265  0.67340  Biso   1.000  C
  C12      1.0000 0.78360  0.35265  0.82660  Biso   1.000  C
  C13      1.0000 0.80490  0.22592  0.33810  Biso   1.000  C
  C14      1.0000 0.19510  0.72592  0.16190  Biso   1.000  C
  C15      1.0000 0.19510  0.77408  0.66190  Biso   1.000  C
  C16      1.0000 0.80490  0.27408  0.83810  Biso   1.000  C
  H13      1.0000 0.70740  0.25710  0.30690  Biso   1.000  H
  H14      1.0000 0.29260  0.75710  0.19310  Biso   1.000  H
  H15      1.0000 0.29260  0.74290  0.69310  Biso   1.000  H
  H16      1.0000 0.70740  0.24290  0.80690  Biso   1.000  H
  C17      1.0000 0.97050  0.25826  0.39570  Biso   1.000  C
  C18      1.0000 0.02950  0.75826  0.10430  Biso   1.000  C
  C19      1.0000 0.02950  0.74174  0.60430  Biso   1.000  C
  C20      1.0000 0.97050  0.24174  0.89570  Biso   1.000  C
  C21      1.0000 0.11720  0.21127  0.44130  Biso   1.000  C
  C22      1.0000 0.88280  0.71127  0.05870  Biso   1.000  C
  C23      1.0000 0.88280  0.78873  0.55870  Biso   1.000  C
  C24      1.0000 0.11720  0.28873  0.94130  Biso   1.000  C
  H17      1.0000 0.22850  0.23220  0.48030  Biso   1.000  H
  H18      1.0000 0.77150  0.73220  0.01970  Biso   1.000  H
  H19      1.0000 0.77150  0.76780  0.51970  Biso   1.000  H
  H20      1.0000 0.22850  0.26780  0.98030  Biso   1.000  H
  C25      1.0000 0.99520  0.34429  0.41160  Biso   1.000  C
  C26      1.0000 0.00480  0.84429  0.08840  Biso   1.000  C
  C27      1.0000 0.00480  0.65571  0.58840  Biso   1.000  C
  C28      1.0000 0.99520  0.15571  0.91160  Biso   1.000  C
  C29      1.0000 0.60550  0.10979  0.26540  Biso   1.000  C
  C30      1.0000 0.39450  0.60979  0.23460  Biso   1.000  C
  C31      1.0000 0.39450  0.89021  0.73460  Biso   1.000  C
  C32      1.0000 0.60550  0.39021  0.76540  Biso   1.000  C
  C33      1.0000 0.28810  0.20620  0.73590  Biso   1.000  C
  C34      1.0000 0.71190  0.70620  0.76410  Biso   1.000  C
  C35      1.0000 0.71190  0.79380  0.26410  Biso   1.000  C
  C36      1.0000 0.28810  0.29380  0.23590  Biso   1.000  C
  H21      1.0000 0.40630  0.21330  0.76660  Biso   1.000  H
  H22      1.0000 0.59370  0.71330  0.73340  Biso   1.000  H
  H23      1.0000 0.59370  0.78670  0.23340  Biso   1.000  H
  H24      1.0000 0.40630  0.28670  0.26660  Biso   1.000  H
  C37      1.0000 0.22800  0.13270  0.73290  Biso   1.000  C
  C38      1.0000 0.77200  0.63270  0.76710  Biso   1.000  C
  C39      1.0000 0.77200  0.86730  0.26710  Biso   1.000  C
  C40      1.0000 0.22800  0.36730  0.23290  Biso   1.000  C
  H25      1.0000 0.30500  0.09190  0.76110  Biso   1.000  H
  H26      1.0000 0.69500  0.59190  0.73890  Biso   1.000  H
  H27      1.0000 0.69500  0.90810  0.23890  Biso   1.000  H
  H28      1.0000 0.30500  0.40810  0.26110  Biso   1.000  H
  C41      1.0000 0.05340  0.12140  0.68760  Biso   1.000  C
  C42      1.0000 0.94660  0.62140  0.81240  Biso   1.000  C
  C43      1.0000 0.94660  0.87860  0.31240  Biso   1.000  C
  C44      1.0000 0.05340  0.37860  0.18760  Biso   1.000  C
  H29      1.0000 0.01200  0.07290  0.68610  Biso   1.000  H
  H30      1.0000 0.98800  0.57290  0.81390  Biso   1.000  H
  H31      1.0000 0.98800  0.92710  0.31390  Biso   1.000  H
  H32      1.0000 0.01200  0.42710  0.18610  Biso   1.000  H
  C45      1.0000 0.93730  0.18350  0.64330  Biso   1.000  C
  C46      1.0000 0.06270  0.68350  0.85670  Biso   1.000  C
  C47      1.0000 0.06270  0.81650  0.35670  Biso   1.000  C
  C48      1.0000 0.93730  0.31650  0.14330  Biso   1.000  C
  C49      1.0000 0.75200  0.17760  0.59100  Biso   1.000  C
  C50      1.0000 0.24800  0.67760  0.90900  Biso   1.000  C
  C51      1.0000 0.24800  0.82240  0.40900  Biso   1.000  C
  C52      1.0000 0.75200  0.32240  0.09100  Biso   1.000  C
  H33      1.0000 0.70220  0.13030  0.58460  Biso   1.000  H
  H34      1.0000 0.29780  0.63030  0.91540  Biso   1.000  H
  H35      1.0000 0.29780  0.86970  0.41540  Biso   1.000  H
  H36      1.0000 0.70220  0.36970  0.08460  Biso   1.000  H
  C53      1.0000 0.64930  0.24000  0.55110  Biso   1.000  C
  C54      1.0000 0.35070  0.74000  0.94890  Biso   1.000  C
  C55      1.0000 0.35070  0.76000  0.44890  Biso   1.000  C
  C56      1.0000 0.64930  0.26000  0.05110  Biso   1.000  C
  H37      1.0000 0.52980  0.23460  0.51690  Biso   1.000  H
  H38      1.0000 0.47020  0.73460  0.98310  Biso   1.000  H
  H39      1.0000 0.47020  0.76540  0.48310  Biso   1.000  H
  H40      1.0000 0.52980  0.26540  0.01690  Biso   1.000  H
  C57      1.0000 0.72030  0.31450  0.56030  Biso   1.000  C
  C58      1.0000 0.27970  0.81450  0.93970  Biso   1.000  C
  C59      1.0000 0.27970  0.68550  0.43970  Biso   1.000  C
  C60      1.0000 0.72030  0.18550  0.06030  Biso   1.000  C
  C61      1.0000 0.62150  0.38240  0.52220  Biso   1.000  C
  C62      1.0000 0.37850  0.88240  0.97780  Biso   1.000  C
  C63      1.0000 0.37850  0.61760  0.47780  Biso   1.000  C
  C64      1.0000 0.62150  0.11760  0.02220  Biso   1.000  C
  H41      1.0000 0.50180  0.38120  0.48970  Biso   1.000  H
  H42      1.0000 0.49820  0.88120  0.01030  Biso   1.000  H
  H43      1.0000 0.49820  0.61880  0.51030  Biso   1.000  H
  H44      1.0000 0.50180  0.11880  0.98970  Biso   1.000  H
  C65      1.0000 0.70400  0.45000  0.53370  Biso   1.000  C
  C66      1.0000 0.29600  0.95000  0.96630  Biso   1.000  C
  C67      1.0000 0.29600  0.55000  0.46630  Biso   1.000  C
  C68      1.0000 0.70400  0.05000  0.03370  Biso   1.000  C
  H45      1.0000 0.63980  0.49480  0.50800  Biso   1.000  H
  H46      1.0000 0.36020  0.99480  0.99200  Biso   1.000  H
  H47      1.0000 0.36020  0.50520  0.49200  Biso   1.000  H
  H48      1.0000 0.63980  0.00520  0.00800  Biso   1.000  H
  C69      1.0000 0.88420  0.45210  0.58390  Biso   1.000  C
  C70      1.0000 0.11580  0.95210  0.91610  Biso   1.000  C
  C71      1.0000 0.11580  0.54790  0.41610  Biso   1.000  C
  C72      1.0000 0.88420  0.04790  0.08390  Biso   1.000  C
  H49      1.0000 0.93760  0.49840  0.59040  Biso   1.000  H
  H50      1.0000 0.06240  0.99840  0.90960  Biso   1.000  H
  H51      1.0000 0.06240  0.50160  0.40960  Biso   1.000  H
  H52      1.0000 0.93760  0.00160  0.09040  Biso   1.000  H
  C73      1.0000 0.90120  0.32172  0.61080  Biso   1.000  C
  C74      1.0000 0.09880  0.82172  0.88920  Biso   1.000  C
  C75      1.0000 0.09880  0.67828  0.38920  Biso   1.000  C
  C76      1.0000 0.90120  0.17828  0.11080  Biso   1.000  C
  C77      1.0000 0.01000  0.25528  0.65140  Biso   1.000  C
  C78      1.0000 0.99000  0.75528  0.84860  Biso   1.000  C
  C79      1.0000 0.99000  0.74472  0.34860  Biso   1.000  C
  C80      1.0000 0.01000  0.24472  0.15140  Biso   1.000  C
