data_image0
_cell_length_a       8.098
_cell_length_b       17.367
_cell_length_c       9.6399
_cell_angle_alpha    90
_cell_angle_beta     106.079
_cell_angle_gamma    90

_symmetry_space_group_name_H-M    "P 1"
_symmetry_int_tables_number       1

loop_
  _symmetry_equiv_pos_as_xyz
  'x, y, z'

loop_
  _atom_site_label
  _atom_site_occupancy
  _atom_site_fract_x
  _atom_site_fract_y
  _atom_site_fract_z
  _atom_site_thermal_displace_type
  _atom_site_B_iso_or_equiv
  _atom_site_type_symbol
  Cu1      1.0000 0.54833  0.55855  0.25574  Biso   1.000  Cu
  Cu2      1.0000 0.45167  0.05855  0.24426  Biso   1.000  Cu
  Cu3      1.0000 0.45167  0.44145  0.74426  Biso   1.000  Cu
  Cu4      1.0000 0.54833  0.94145  0.75574  Biso   1.000  Cu
  V1       1.0000 0.87670  0.62922  0.49518  Biso   1.000  V
  V2       1.0000 0.12330  0.12922  0.00482  Biso   1.000  V
  V3       1.0000 0.12330  0.37078  0.50482  Biso   1.000  V
  V4       1.0000 0.87670  0.87078  0.99518  Biso   1.000  V
  V5       1.0000 0.77554  0.46110  0.53794  Biso   1.000  V
  V6       1.0000 0.22446  0.96110  0.96206  Biso   1.000  V
  V7       1.0000 0.22446  0.53890  0.46206  Biso   1.000  V
  V8       1.0000 0.77554  0.03890  0.03794  Biso   1.000  V
  O1       1.0000 0.69830  0.63985  0.35930  Biso   1.000  O
  O2       1.0000 0.30170  0.13985  0.14070  Biso   1.000  O
  O3       1.0000 0.30170  0.36015  0.64070  Biso   1.000  O
  O4       1.0000 0.69830  0.86015  0.85930  Biso   1.000  O
  O5       1.0000 0.91390  0.70740  0.58500  Biso   1.000  O
  O6       1.0000 0.08610  0.20740  0.91500  Biso   1.000  O
  O7       1.0000 0.08610  0.29260  0.41500  Biso   1.000  O
  O8       1.0000 0.91390  0.79260  0.08500  Biso   1.000  O
  O9       1.0000 0.85310  0.55290  0.61380  Biso   1.000  O
  O10      1.0000 0.14690  0.05290  0.88620  Biso   1.000  O
  O11      1.0000 0.14690  0.44710  0.38620  Biso   1.000  O
  O12      1.0000 0.85310  0.94710  0.11380  Biso   1.000  O
  O13      1.0000 0.94450  0.39310  0.57410  Biso   1.000  O
  O14      1.0000 0.05550  0.89310  0.92590  Biso   1.000  O
  O15      1.0000 0.05550  0.60690  0.42590  Biso   1.000  O
  O16      1.0000 0.94450  0.10690  0.07410  Biso   1.000  O
  O17      1.0000 0.62460  0.43130  0.60460  Biso   1.000  O
  O18      1.0000 0.37540  0.93130  0.89540  Biso   1.000  O
  O19      1.0000 0.37540  0.56870  0.39540  Biso   1.000  O
  O20      1.0000 0.62460  0.06870  0.10460  Biso   1.000  O
  O21      1.0000 0.69940  0.47735  0.36190  Biso   1.000  O
  O22      1.0000 0.30060  0.97735  0.13810  Biso   1.000  O
  O23      1.0000 0.30060  0.52265  0.63810  Biso   1.000  O
  O24      1.0000 0.69940  0.02265  0.86190  Biso   1.000  O
  N1       1.0000 0.43470  0.62880  0.09660  Biso   1.000  N
  N2       1.0000 0.56530  0.12880  0.40340  Biso   1.000  N
  N3       1.0000 0.56530  0.37120  0.90340  Biso   1.000  N
  N4       1.0000 0.43470  0.87120  0.59660  Biso   1.000  N
  N5       1.0000 0.38450  0.48460  0.13510  Biso   1.000  N
  N6       1.0000 0.61550  0.98460  0.36490  Biso   1.000  N
  N7       1.0000 0.61550  0.51540  0.86490  Biso   1.000  N
  N8       1.0000 0.38450  0.01540  0.63510  Biso   1.000  N
  C1       1.0000 0.47270  0.70290  0.08490  Biso   1.000  C
  C2       1.0000 0.52730  0.20290  0.41510  Biso   1.000  C
  C3       1.0000 0.52730  0.29710  0.91510  Biso   1.000  C
  C4       1.0000 0.47270  0.79710  0.58490  Biso   1.000  C
  H1       1.0000 0.56290  0.72450  0.15580  Biso   1.000  H
  H2       1.0000 0.43710  0.22450  0.34420  Biso   1.000  H
  H3       1.0000 0.43710  0.27550  0.84420  Biso   1.000  H
  H4       1.0000 0.56290  0.77550  0.65580  Biso   1.000  H
  C5       1.0000 0.38350  0.74870  0.97210  Biso   1.000  C
  C6       1.0000 0.61650  0.24870  0.52790  Biso   1.000  C
  C7       1.0000 0.61650  0.25130  0.02790  Biso   1.000  C
  C8       1.0000 0.38350  0.75130  0.47210  Biso   1.000  C
  H5       1.0000 0.41360  0.79990  0.96540  Biso   1.000  H
  H6       1.0000 0.58640  0.29990  0.53460  Biso   1.000  H
  H7       1.0000 0.58640  0.20010  0.03460  Biso   1.000  H
  H8       1.0000 0.41360  0.70010  0.46540  Biso   1.000  H
  C9       1.0000 0.24990  0.71630  0.87080  Biso   1.000  C
  C10      1.0000 0.75010  0.21630  0.62920  Biso   1.000  C
  C11      1.0000 0.75010  0.28370  0.12920  Biso   1.000  C
  C12      1.0000 0.24990  0.78370  0.37080  Biso   1.000  C
  H9       1.0000 0.18550  0.74600  0.79480  Biso   1.000  H
  H10      1.0000 0.81450  0.24600  0.70520  Biso   1.000  H
  H11      1.0000 0.81450  0.25400  0.20520  Biso   1.000  H
  H12      1.0000 0.18550  0.75400  0.29480  Biso   1.000  H
  C13      1.0000 0.20980  0.64050  0.88000  Biso   1.000  C
  C14      1.0000 0.79020  0.14050  0.62000  Biso   1.000  C
  C15      1.0000 0.79020  0.35950  0.12000  Biso   1.000  C
  C16      1.0000 0.20980  0.85950  0.38000  Biso   1.000  C
  H13      1.0000 0.11900  0.61840  0.81040  Biso   1.000  H
  H14      1.0000 0.88100  0.11840  0.68960  Biso   1.000  H
  H15      1.0000 0.88100  0.38160  0.18960  Biso   1.000  H
  H16      1.0000 0.11900  0.88160  0.31040  Biso   1.000  H
  C17      1.0000 0.30440  0.59770  0.99240  Biso   1.000  C
  C18      1.0000 0.69560  0.09770  0.50760  Biso   1.000  C
  C19      1.0000 0.69560  0.40230  0.00760  Biso   1.000  C
  C20      1.0000 0.30440  0.90230  0.49240  Biso   1.000  C
  C21      1.0000 0.27730  0.51450  0.01400  Biso   1.000  C
  C22      1.0000 0.72270  0.01450  0.48600  Biso   1.000  C
  C23      1.0000 0.72270  0.48550  0.98600  Biso   1.000  C
  C24      1.0000 0.27730  0.98550  0.51400  Biso   1.000  C
  C25      1.0000 0.15570  0.46930  0.92060  Biso   1.000  C
  C26      1.0000 0.84430  0.96930  0.57940  Biso   1.000  C
  C27      1.0000 0.84430  0.53070  0.07940  Biso   1.000  C
  C28      1.0000 0.15570  0.03070  0.42060  Biso   1.000  C
  H17      1.0000 0.08470  0.49000  0.83600  Biso   1.000  H
  H18      1.0000 0.91530  0.99000  0.66400  Biso   1.000  H
  H19      1.0000 0.91530  0.51000  0.16400  Biso   1.000  H
  H20      1.0000 0.08470  0.01000  0.33600  Biso   1.000  H
  C29      1.0000 0.14110  0.39320  0.95480  Biso   1.000  C
  C30      1.0000 0.85890  0.89320  0.54520  Biso   1.000  C
  C31      1.0000 0.85890  0.60680  0.04520  Biso   1.000  C
  C32      1.0000 0.14110  0.10680  0.45480  Biso   1.000  C
  H21      1.0000 0.06000  0.36210  0.89260  Biso   1.000  H
  H22      1.0000 0.94000  0.86210  0.60740  Biso   1.000  H
  H23      1.0000 0.94000  0.63790  0.10740  Biso   1.000  H
  H24      1.0000 0.06000  0.13790  0.39260  Biso   1.000  H
  C33      1.0000 0.24510  0.36260  0.07970  Biso   1.000  C
  C34      1.0000 0.75490  0.86260  0.42030  Biso   1.000  C
  C35      1.0000 0.75490  0.63740  0.92030  Biso   1.000  C
  C36      1.0000 0.24510  0.13740  0.57970  Biso   1.000  C
  H25      1.0000 0.23450  0.31150  0.10470  Biso   1.000  H
  H26      1.0000 0.76550  0.81150  0.39530  Biso   1.000  H
  H27      1.0000 0.76550  0.68850  0.89530  Biso   1.000  H
  H28      1.0000 0.23450  0.18850  0.60470  Biso   1.000  H
  C37      1.0000 0.36630  0.41070  0.16730  Biso   1.000  C
  C38      1.0000 0.63370  0.91070  0.33270  Biso   1.000  C
  C39      1.0000 0.63370  0.58930  0.83270  Biso   1.000  C
  C40      1.0000 0.36630  0.08930  0.66730  Biso   1.000  C
  H29      1.0000 0.43830  0.39080  0.25220  Biso   1.000  H
  H30      1.0000 0.56170  0.89080  0.24780  Biso   1.000  H
  H31      1.0000 0.56170  0.60920  0.74780  Biso   1.000  H
  H32      1.0000 0.43830  0.10920  0.75220  Biso   1.000  H
