data_image0
_cell_length_a       8.1044
_cell_length_b       17.3844
_cell_length_c       9.6523
_cell_angle_alpha    90
_cell_angle_beta     106.063
_cell_angle_gamma    90

_symmetry_space_group_name_H-M    "P 1"
_symmetry_int_tables_number       1

loop_
  _symmetry_equiv_pos_as_xyz
  'x, y, z'

loop_
  _atom_site_label
  _atom_site_occupancy
  _atom_site_fract_x
  _atom_site_fract_y
  _atom_site_fract_z
  _atom_site_thermal_displace_type
  _atom_site_B_iso_or_equiv
  _atom_site_type_symbol
  Cu1      1.0000 0.45144  0.55852  0.74430  Biso   1.000  Cu
  Cu2      1.0000 0.54856  0.05852  0.75570  Biso   1.000  Cu
  Cu3      1.0000 0.54856  0.44148  0.25570  Biso   1.000  Cu
  Cu4      1.0000 0.45144  0.94148  0.24430  Biso   1.000  Cu
  V1       1.0000 0.22487  0.46119  0.46235  Biso   1.000  V
  V2       1.0000 0.77513  0.96119  0.03765  Biso   1.000  V
  V3       1.0000 0.77513  0.53881  0.53765  Biso   1.000  V
  V4       1.0000 0.22487  0.03881  0.96235  Biso   1.000  V
  V5       1.0000 0.12318  0.62931  0.50505  Biso   1.000  V
  V6       1.0000 0.87682  0.12931  0.99495  Biso   1.000  V
  V7       1.0000 0.87682  0.37069  0.49495  Biso   1.000  V
  V8       1.0000 0.12318  0.87069  0.00505  Biso   1.000  V
  O1       1.0000 0.29980  0.47749  0.63932  Biso   1.000  O
  O2       1.0000 0.70020  0.97749  0.86068  Biso   1.000  O
  O3       1.0000 0.70020  0.52251  0.36068  Biso   1.000  O
  O4       1.0000 0.29980  0.02251  0.13932  Biso   1.000  O
  O5       1.0000 0.05570  0.39340  0.42442  Biso   1.000  O
  O6       1.0000 0.94430  0.89340  0.07558  Biso   1.000  O
  O7       1.0000 0.94430  0.60660  0.57558  Biso   1.000  O
  O8       1.0000 0.05570  0.10660  0.92442  Biso   1.000  O
  O9       1.0000 0.30255  0.63993  0.64149  Biso   1.000  O
  O10      1.0000 0.69745  0.13993  0.85851  Biso   1.000  O
  O11      1.0000 0.69745  0.36007  0.35851  Biso   1.000  O
  O12      1.0000 0.30255  0.86007  0.14149  Biso   1.000  O
  O13      1.0000 0.14640  0.55302  0.38523  Biso   1.000  O
  O14      1.0000 0.85360  0.05302  0.11477  Biso   1.000  O
  O15      1.0000 0.85360  0.44698  0.61477  Biso   1.000  O
  O16      1.0000 0.14640  0.94698  0.88523  Biso   1.000  O
  O17      1.0000 0.62300  0.56884  0.60460  Biso   1.000  O
  O18      1.0000 0.37700  0.06884  0.89540  Biso   1.000  O
  O19      1.0000 0.37700  0.43116  0.39540  Biso   1.000  O
  O20      1.0000 0.62300  0.93116  0.10460  Biso   1.000  O
  O21      1.0000 0.08600  0.70797  0.41490  Biso   1.000  O
  O22      1.0000 0.91400  0.20797  0.08510  Biso   1.000  O
  O23      1.0000 0.91400  0.29203  0.58510  Biso   1.000  O
  O24      1.0000 0.08600  0.79203  0.91490  Biso   1.000  O
  N1       1.0000 0.61640  0.48409  0.86521  Biso   1.000  N
  N2       1.0000 0.38360  0.98409  0.63479  Biso   1.000  N
  N3       1.0000 0.38360  0.51591  0.13479  Biso   1.000  N
  N4       1.0000 0.61640  0.01591  0.36521  Biso   1.000  N
  N5       1.0000 0.56700  0.62884  0.90380  Biso   1.000  N
  N6       1.0000 0.43300  0.12884  0.59620  Biso   1.000  N
  N7       1.0000 0.43300  0.37116  0.09620  Biso   1.000  N
  N8       1.0000 0.56700  0.87116  0.40380  Biso   1.000  N
  C1       1.0000 0.63440  0.41014  0.83240  Biso   1.000  C
  C2       1.0000 0.36560  0.91014  0.66760  Biso   1.000  C
  C3       1.0000 0.36560  0.58986  0.16760  Biso   1.000  C
  C4       1.0000 0.63440  0.08986  0.33240  Biso   1.000  C
  H1       1.0000 0.56290  0.39010  0.74760  Biso   1.000  H
  H2       1.0000 0.43710  0.89010  0.75240  Biso   1.000  H
  H3       1.0000 0.43710  0.60990  0.25240  Biso   1.000  H
  H4       1.0000 0.56290  0.10990  0.24760  Biso   1.000  H
  C5       1.0000 0.69600  0.59714  0.00700  Biso   1.000  C
  C6       1.0000 0.30400  0.09714  0.49300  Biso   1.000  C
  C7       1.0000 0.30400  0.40286  0.99300  Biso   1.000  C
  C8       1.0000 0.69600  0.90286  0.50700  Biso   1.000  C
  C9       1.0000 0.72310  0.51411  0.98620  Biso   1.000  C
  C10      1.0000 0.27690  0.01411  0.51380  Biso   1.000  C
  C11      1.0000 0.27690  0.48589  0.01380  Biso   1.000  C
  C12      1.0000 0.72310  0.98589  0.48620  Biso   1.000  C
  C13      1.0000 0.52700  0.70281  0.91450  Biso   1.000  C
  C14      1.0000 0.47300  0.20281  0.58550  Biso   1.000  C
  C15      1.0000 0.47300  0.29719  0.08550  Biso   1.000  C
  C16      1.0000 0.52700  0.79719  0.41450  Biso   1.000  C
  H5       1.0000 0.43640  0.72420  0.84380  Biso   1.000  H
  H6       1.0000 0.56360  0.22420  0.65620  Biso   1.000  H
  H7       1.0000 0.56360  0.27580  0.15620  Biso   1.000  H
  H8       1.0000 0.43640  0.77580  0.34380  Biso   1.000  H
  C17      1.0000 0.84620  0.46935  0.07960  Biso   1.000  C
  C18      1.0000 0.15380  0.96935  0.42040  Biso   1.000  C
  C19      1.0000 0.15380  0.53065  0.92040  Biso   1.000  C
  C20      1.0000 0.84620  0.03065  0.57960  Biso   1.000  C
  H9       1.0000 0.91820  0.49050  0.16310  Biso   1.000  H
  H10      1.0000 0.08180  0.99050  0.33690  Biso   1.000  H
  H11      1.0000 0.08180  0.50950  0.83690  Biso   1.000  H
  H12      1.0000 0.91820  0.00950  0.66310  Biso   1.000  H
  C21      1.0000 0.86030  0.39238  0.04660  Biso   1.000  C
  C22      1.0000 0.13970  0.89238  0.45340  Biso   1.000  C
  C23      1.0000 0.13970  0.60762  0.95340  Biso   1.000  C
  C24      1.0000 0.86030  0.10762  0.54660  Biso   1.000  C
  H13      1.0000 0.93990  0.36090  0.10930  Biso   1.000  H
  H14      1.0000 0.06010  0.86090  0.39070  Biso   1.000  H
  H15      1.0000 0.06010  0.63910  0.89070  Biso   1.000  H
  H16      1.0000 0.93990  0.13910  0.60930  Biso   1.000  H
  C25      1.0000 0.75540  0.36293  0.92040  Biso   1.000  C
  C26      1.0000 0.24460  0.86293  0.57960  Biso   1.000  C
  C27      1.0000 0.24460  0.63707  0.07960  Biso   1.000  C
  C28      1.0000 0.75540  0.13707  0.42040  Biso   1.000  C
  H17      1.0000 0.76620  0.31200  0.89490  Biso   1.000  H
  H18      1.0000 0.23380  0.81200  0.60510  Biso   1.000  H
  H19      1.0000 0.23380  0.68800  0.10510  Biso   1.000  H
  H20      1.0000 0.76620  0.18800  0.39490  Biso   1.000  H
  C29      1.0000 0.79260  0.64028  0.12150  Biso   1.000  C
  C30      1.0000 0.20740  0.14028  0.37850  Biso   1.000  C
  C31      1.0000 0.20740  0.35972  0.87850  Biso   1.000  C
  C32      1.0000 0.79260  0.85972  0.62150  Biso   1.000  C
  H21      1.0000 0.88320  0.61800  0.19090  Biso   1.000  H
  H22      1.0000 0.11680  0.11800  0.30910  Biso   1.000  H
  H23      1.0000 0.11680  0.38200  0.80910  Biso   1.000  H
  H24      1.0000 0.88320  0.88200  0.69090  Biso   1.000  H
  C33      1.0000 0.75240  0.71680  0.13090  Biso   1.000  C
  C34      1.0000 0.24760  0.21680  0.36910  Biso   1.000  C
  C35      1.0000 0.24760  0.28320  0.86910  Biso   1.000  C
  C36      1.0000 0.75240  0.78320  0.63090  Biso   1.000  C
  H25      1.0000 0.81640  0.74680  0.20650  Biso   1.000  H
  H26      1.0000 0.18360  0.24680  0.29350  Biso   1.000  H
  H27      1.0000 0.18360  0.25320  0.79350  Biso   1.000  H
  H28      1.0000 0.81640  0.75320  0.70650  Biso   1.000  H
  C37      1.0000 0.61690  0.74848  0.02790  Biso   1.000  C
  C38      1.0000 0.38310  0.24848  0.47210  Biso   1.000  C
  C39      1.0000 0.38310  0.25152  0.97210  Biso   1.000  C
  C40      1.0000 0.61690  0.75152  0.52790  Biso   1.000  C
  H29      1.0000 0.58630  0.79960  0.03430  Biso   1.000  H
  H30      1.0000 0.41370  0.29960  0.46570  Biso   1.000  H
  H31      1.0000 0.41370  0.20040  0.96570  Biso   1.000  H
  H32      1.0000 0.58630  0.70040  0.53430  Biso   1.000  H
