data_image0
_cell_length_a       21.6963
_cell_length_b       14.8361
_cell_length_c       6.8547
_cell_angle_alpha    90
_cell_angle_beta     102.763
_cell_angle_gamma    90

_symmetry_space_group_name_H-M    "P 1"
_symmetry_int_tables_number       1

loop_
  _symmetry_equiv_pos_as_xyz
  'x, y, z'

loop_
  _atom_site_label
  _atom_site_occupancy
  _atom_site_fract_x
  _atom_site_fract_y
  _atom_site_fract_z
  _atom_site_thermal_displace_type
  _atom_site_B_iso_or_equiv
  _atom_site_type_symbol
  C1       1.0000 0.81952  0.31260  0.73760  Biso   1.000  C
  C2       1.0000 0.18048  0.31260  0.76240  Biso   1.000  C
  C3       1.0000 0.31952  0.81260  0.73760  Biso   1.000  C
  C4       1.0000 0.68048  0.81260  0.76240  Biso   1.000  C
  C5       1.0000 0.18048  0.68740  0.26240  Biso   1.000  C
  C6       1.0000 0.81952  0.68740  0.23760  Biso   1.000  C
  C7       1.0000 0.68048  0.18740  0.26240  Biso   1.000  C
  C8       1.0000 0.31952  0.18740  0.23760  Biso   1.000  C
  C9       1.0000 0.75260  0.34510  0.65070  Biso   1.000  C
  C10      1.0000 0.24740  0.34510  0.84930  Biso   1.000  C
  C11      1.0000 0.25260  0.84510  0.65070  Biso   1.000  C
  C12      1.0000 0.74740  0.84510  0.84930  Biso   1.000  C
  C13      1.0000 0.24740  0.65490  0.34930  Biso   1.000  C
  C14      1.0000 0.75260  0.65490  0.15070  Biso   1.000  C
  C15      1.0000 0.74740  0.15490  0.34930  Biso   1.000  C
  C16      1.0000 0.25260  0.15490  0.15070  Biso   1.000  C
  C17      1.0000 0.73463  0.39460  0.47670  Biso   1.000  C
  C18      1.0000 0.26537  0.39460  0.02330  Biso   1.000  C
  C19      1.0000 0.23463  0.89460  0.47670  Biso   1.000  C
  C20      1.0000 0.76537  0.89460  0.02330  Biso   1.000  C
  C21      1.0000 0.26537  0.60540  0.52330  Biso   1.000  C
  C22      1.0000 0.73463  0.60540  0.97670  Biso   1.000  C
  C23      1.0000 0.76537  0.10540  0.52330  Biso   1.000  C
  C24      1.0000 0.23463  0.10540  0.97670  Biso   1.000  C
  C25      1.0000 0.67082  0.41550  0.41190  Biso   1.000  C
  C26      1.0000 0.32918  0.41550  0.08810  Biso   1.000  C
  C27      1.0000 0.17082  0.91550  0.41190  Biso   1.000  C
  C28      1.0000 0.82918  0.91550  0.08810  Biso   1.000  C
  C29      1.0000 0.32918  0.58450  0.58810  Biso   1.000  C
  C30      1.0000 0.67082  0.58450  0.91190  Biso   1.000  C
  C31      1.0000 0.82918  0.08450  0.58810  Biso   1.000  C
  C32      1.0000 0.17082  0.08450  0.91190  Biso   1.000  C
  H1       1.0000 0.65700  0.44730  0.29330  Biso   1.000  H
  H2       1.0000 0.34300  0.44730  0.20670  Biso   1.000  H
  H3       1.0000 0.15700  0.94730  0.29330  Biso   1.000  H
  H4       1.0000 0.84300  0.94730  0.20670  Biso   1.000  H
  H5       1.0000 0.34300  0.55270  0.70670  Biso   1.000  H
  H6       1.0000 0.65700  0.55270  0.79330  Biso   1.000  H
  H7       1.0000 0.84300  0.05270  0.70670  Biso   1.000  H
  H8       1.0000 0.15700  0.05270  0.79330  Biso   1.000  H
  C33      1.0000 0.62829  0.38940  0.52230  Biso   1.000  C
  C34      1.0000 0.37171  0.38940  0.97770  Biso   1.000  C
  C35      1.0000 0.12829  0.88940  0.52230  Biso   1.000  C
  C36      1.0000 0.87171  0.88940  0.97770  Biso   1.000  C
  C37      1.0000 0.37171  0.61060  0.47770  Biso   1.000  C
  C38      1.0000 0.62829  0.61060  0.02230  Biso   1.000  C
  C39      1.0000 0.87171  0.11060  0.47770  Biso   1.000  C
  C40      1.0000 0.12829  0.11060  0.02230  Biso   1.000  C
  H9       1.0000 0.58570  0.40340  0.47990  Biso   1.000  H
  H10      1.0000 0.41430  0.40340  0.02010  Biso   1.000  H
  H11      1.0000 0.08570  0.90340  0.47990  Biso   1.000  H
  H12      1.0000 0.91430  0.90340  0.02010  Biso   1.000  H
  H13      1.0000 0.41430  0.59660  0.52010  Biso   1.000  H
  H14      1.0000 0.58570  0.59660  0.97990  Biso   1.000  H
  H15      1.0000 0.91430  0.09660  0.52010  Biso   1.000  H
  H16      1.0000 0.08570  0.09660  0.97990  Biso   1.000  H
  C41      1.0000 0.64975  0.34200  0.69670  Biso   1.000  C
  C42      1.0000 0.35025  0.34200  0.80330  Biso   1.000  C
  C43      1.0000 0.14975  0.84200  0.69670  Biso   1.000  C
  C44      1.0000 0.85025  0.84200  0.80330  Biso   1.000  C
  C45      1.0000 0.35025  0.65800  0.30330  Biso   1.000  C
  C46      1.0000 0.64975  0.65800  0.19670  Biso   1.000  C
  C47      1.0000 0.85025  0.15800  0.30330  Biso   1.000  C
  C48      1.0000 0.14975  0.15800  0.19670  Biso   1.000  C
  H17      1.0000 0.62120  0.32540  0.77340  Biso   1.000  H
  H18      1.0000 0.37880  0.32540  0.72660  Biso   1.000  H
  H19      1.0000 0.12120  0.82540  0.77340  Biso   1.000  H
  H20      1.0000 0.87880  0.82540  0.72660  Biso   1.000  H
  H21      1.0000 0.37880  0.67460  0.22660  Biso   1.000  H
  H22      1.0000 0.62120  0.67460  0.27340  Biso   1.000  H
  H23      1.0000 0.87880  0.17460  0.22660  Biso   1.000  H
  H24      1.0000 0.12120  0.17460  0.27340  Biso   1.000  H
  C49      1.0000 0.77990  0.43000  0.35690  Biso   1.000  C
  C50      1.0000 0.22010  0.43000  0.14310  Biso   1.000  C
  C51      1.0000 0.27990  0.93000  0.35690  Biso   1.000  C
  C52      1.0000 0.72010  0.93000  0.14310  Biso   1.000  C
  C53      1.0000 0.22010  0.57000  0.64310  Biso   1.000  C
  C54      1.0000 0.77990  0.57000  0.85690  Biso   1.000  C
  C55      1.0000 0.72010  0.07000  0.64310  Biso   1.000  C
  C56      1.0000 0.27990  0.07000  0.85690  Biso   1.000  C
  Cu1      1.0000 0.75000  0.25000  0.00000  Biso   1.000  Cu
  Cu2      1.0000 0.25000  0.25000  0.50000  Biso   1.000  Cu
  Cu3      1.0000 0.25000  0.75000  0.00000  Biso   1.000  Cu
  Cu4      1.0000 0.75000  0.75000  0.50000  Biso   1.000  Cu
  N1       1.0000 0.71027  0.31950  0.75860  Biso   1.000  N
  N2       1.0000 0.28973  0.31950  0.74140  Biso   1.000  N
  N3       1.0000 0.21027  0.81950  0.75860  Biso   1.000  N
  N4       1.0000 0.78973  0.81950  0.74140  Biso   1.000  N
  N5       1.0000 0.28973  0.68050  0.24140  Biso   1.000  N
  N6       1.0000 0.71027  0.68050  0.25860  Biso   1.000  N
  N7       1.0000 0.78973  0.18050  0.24140  Biso   1.000  N
  N8       1.0000 0.21027  0.18050  0.25860  Biso   1.000  N
  O1       1.0000 0.82653  0.26851  0.90150  Biso   1.000  O
  O2       1.0000 0.17347  0.26851  0.59850  Biso   1.000  O
  O3       1.0000 0.32653  0.76851  0.90150  Biso   1.000  O
  O4       1.0000 0.67347  0.76851  0.59850  Biso   1.000  O
  O5       1.0000 0.17347  0.73149  0.09850  Biso   1.000  O
  O6       1.0000 0.82653  0.73149  0.40150  Biso   1.000  O
  O7       1.0000 0.67347  0.23149  0.09850  Biso   1.000  O
  O8       1.0000 0.32653  0.23149  0.40150  Biso   1.000  O
  O9       1.0000 0.86103  0.32740  0.64710  Biso   1.000  O
  O10      1.0000 0.13897  0.32740  0.85290  Biso   1.000  O
  O11      1.0000 0.36103  0.82740  0.64710  Biso   1.000  O
  O12      1.0000 0.63897  0.82740  0.85290  Biso   1.000  O
  O13      1.0000 0.13897  0.67260  0.35290  Biso   1.000  O
  O14      1.0000 0.86103  0.67260  0.14710  Biso   1.000  O
  O15      1.0000 0.63897  0.17260  0.35290  Biso   1.000  O
  O16      1.0000 0.36103  0.17260  0.14710  Biso   1.000  O
  O17      1.0000 0.81338  0.49770  0.41850  Biso   1.000  O
  O18      1.0000 0.18662  0.49770  0.08150  Biso   1.000  O
  O19      1.0000 0.31338  0.99770  0.41850  Biso   1.000  O
  O20      1.0000 0.68662  0.99770  0.08150  Biso   1.000  O
  O21      1.0000 0.18662  0.50230  0.58150  Biso   1.000  O
  O22      1.0000 0.81338  0.50230  0.91850  Biso   1.000  O
  O23      1.0000 0.68662  0.00230  0.58150  Biso   1.000  O
  O24      1.0000 0.31338  0.00230  0.91850  Biso   1.000  O
  O25      1.0000 0.77690  0.39630  0.18940  Biso   1.000  O
  O26      1.0000 0.22310  0.39630  0.31060  Biso   1.000  O
  O27      1.0000 0.27690  0.89630  0.18940  Biso   1.000  O
  O28      1.0000 0.72310  0.89630  0.31060  Biso   1.000  O
  O29      1.0000 0.22310  0.60370  0.81060  Biso   1.000  O
  O30      1.0000 0.77690  0.60370  0.68940  Biso   1.000  O
  O31      1.0000 0.72310  0.10370  0.81060  Biso   1.000  O
  O32      1.0000 0.27690  0.10370  0.68940  Biso   1.000  O
  C57      1.0000 0.50000  0.13930  0.75000  Biso   1.000  C
  C58      1.0000 0.00000  0.63930  0.75000  Biso   1.000  C
  C59      1.0000 0.50000  0.86070  0.25000  Biso   1.000  C
  C60      1.0000 0.00000  0.36070  0.25000  Biso   1.000  C
  H25      1.0000 0.50000  0.20200  0.75000  Biso   1.000  H
  H26      1.0000 0.00000  0.70200  0.75000  Biso   1.000  H
  H27      1.0000 0.50000  0.79800  0.25000  Biso   1.000  H
  H28      1.0000 0.00000  0.29800  0.25000  Biso   1.000  H
  C61      1.0000 0.55540  0.09270  0.80030  Biso   1.000  C
  C62      1.0000 0.44460  0.09270  0.69970  Biso   1.000  C
  C63      1.0000 0.05540  0.59270  0.80030  Biso   1.000  C
  C64      1.0000 0.94460  0.59270  0.69970  Biso   1.000  C
  C65      1.0000 0.44460  0.90730  0.19970  Biso   1.000  C
  C66      1.0000 0.55540  0.90730  0.30030  Biso   1.000  C
  C67      1.0000 0.94460  0.40730  0.19970  Biso   1.000  C
  C68      1.0000 0.05540  0.40730  0.30030  Biso   1.000  C
  H29      1.0000 0.59350  0.12350  0.83580  Biso   1.000  H
  H30      1.0000 0.40650  0.12350  0.66420  Biso   1.000  H
  H31      1.0000 0.09350  0.62350  0.83580  Biso   1.000  H
  H32      1.0000 0.90650  0.62350  0.66420  Biso   1.000  H
  H33      1.0000 0.40650  0.87650  0.16420  Biso   1.000  H
  H34      1.0000 0.59350  0.87650  0.33580  Biso   1.000  H
  H35      1.0000 0.90650  0.37650  0.16420  Biso   1.000  H
  H36      1.0000 0.09350  0.37650  0.33580  Biso   1.000  H
  C69      1.0000 0.50000  0.95760  0.75000  Biso   1.000  C
  C70      1.0000 0.00000  0.45760  0.75000  Biso   1.000  C
  C71      1.0000 0.50000  0.04240  0.25000  Biso   1.000  C
  C72      1.0000 0.00000  0.54240  0.25000  Biso   1.000  C
  H37      1.0000 0.50000  0.89490  0.75000  Biso   1.000  H
  H38      1.0000 0.00000  0.39490  0.75000  Biso   1.000  H
  H39      1.0000 0.50000  0.10510  0.25000  Biso   1.000  H
  H40      1.0000 0.00000  0.60510  0.25000  Biso   1.000  H
  H41      1.0000 0.59500  0.97100  0.81100  Biso   1.000  H
  H42      1.0000 0.40500  0.97100  0.68900  Biso   1.000  H
  H43      1.0000 0.09500  0.47100  0.81100  Biso   1.000  H
  H44      1.0000 0.90500  0.47100  0.68900  Biso   1.000  H
  H45      1.0000 0.40500  0.02900  0.18900  Biso   1.000  H
  H46      1.0000 0.59500  0.02900  0.31100  Biso   1.000  H
  H47      1.0000 0.90500  0.52900  0.18900  Biso   1.000  H
  H48      1.0000 0.09500  0.52900  0.31100  Biso   1.000  H
  N9       1.0000 0.55460  0.00150  0.79830  Biso   1.000  N
  N10      1.0000 0.44540  0.00150  0.70170  Biso   1.000  N
  N11      1.0000 0.05460  0.50150  0.79830  Biso   1.000  N
  N12      1.0000 0.94540  0.50150  0.70170  Biso   1.000  N
  N13      1.0000 0.44540  0.99850  0.20170  Biso   1.000  N
  N14      1.0000 0.55460  0.99850  0.29830  Biso   1.000  N
  N15      1.0000 0.94540  0.49850  0.20170  Biso   1.000  N
  N16      1.0000 0.05460  0.49850  0.29830  Biso   1.000  N
  O33      1.0000 0.46770  0.28360  0.37140  Biso   1.000  O
  O34      1.0000 0.53230  0.28360  0.12860  Biso   1.000  O
  O35      1.0000 0.96770  0.78360  0.37140  Biso   1.000  O
  O36      1.0000 0.03230  0.78360  0.12860  Biso   1.000  O
  O37      1.0000 0.53230  0.71640  0.62860  Biso   1.000  O
  O38      1.0000 0.46770  0.71640  0.87140  Biso   1.000  O
  O39      1.0000 0.03230  0.21640  0.62860  Biso   1.000  O
  O40      1.0000 0.96770  0.21640  0.87140  Biso   1.000  O
  O41      1.0000 0.47320  0.40500  0.53900  Biso   1.000  O
  O42      1.0000 0.52680  0.40500  0.96100  Biso   1.000  O
  O43      1.0000 0.97320  0.90500  0.53900  Biso   1.000  O
  O44      1.0000 0.02680  0.90500  0.96100  Biso   1.000  O
  O45      1.0000 0.52680  0.59500  0.46100  Biso   1.000  O
  O46      1.0000 0.47320  0.59500  0.03900  Biso   1.000  O
  O47      1.0000 0.02680  0.09500  0.46100  Biso   1.000  O
  O48      1.0000 0.97320  0.09500  0.03900  Biso   1.000  O
  O49      1.0000 0.50000  0.42850  0.75000  Biso   1.000  O
  O50      1.0000 0.00000  0.92850  0.75000  Biso   1.000  O
  O51      1.0000 0.50000  0.57150  0.25000  Biso   1.000  O
  O52      1.0000 0.00000  0.07150  0.25000  Biso   1.000  O
