data_image0
_cell_length_a       7.0069
_cell_length_b       8.533
_cell_length_c       11.013
_cell_angle_alpha    70.95
_cell_angle_beta     84.824
_cell_angle_gamma    74.253

_symmetry_space_group_name_H-M    "P 1"
_symmetry_int_tables_number       1

loop_
  _symmetry_equiv_pos_as_xyz
  'x, y, z'

loop_
  _atom_site_label
  _atom_site_occupancy
  _atom_site_fract_x
  _atom_site_fract_y
  _atom_site_fract_z
  _atom_site_thermal_displace_type
  _atom_site_B_iso_or_equiv
  _atom_site_type_symbol
  Cu1      1.0000 0.00000  0.00000  0.50000  Biso   1.000  Cu
  Cu2      1.0000 0.50000  0.00000  0.50000  Biso   1.000  Cu
  N1       1.0000 0.15650  0.83560  0.65810  Biso   1.000  N
  N2       1.0000 0.84350  0.16440  0.34190  Biso   1.000  N
  N3       1.0000 0.34580  0.83500  0.68220  Biso   1.000  N
  N4       1.0000 0.65420  0.16500  0.31780  Biso   1.000  N
  N5       1.0000 0.23820  0.66190  0.84990  Biso   1.000  N
  N6       1.0000 0.76180  0.33810  0.15010  Biso   1.000  N
  N7       1.0000 0.23480  0.54490  0.97350  Biso   1.000  N
  N8       1.0000 0.76520  0.45510  0.02650  Biso   1.000  N
  H1       1.0000 0.33600  0.51100  0.02310  Biso   1.000  H
  H2       1.0000 0.66400  0.48900  0.97690  Biso   1.000  H
  H3       1.0000 0.13160  0.50700  0.99970  Biso   1.000  H
  H4       1.0000 0.86840  0.49300  0.00030  Biso   1.000  H
  N9       1.0000 0.20060  0.89730  0.38620  Biso   1.000  N
  N10      1.0000 0.79940  0.10270  0.61380  Biso   1.000  N
  N11      1.0000 0.40020  0.88770  0.39340  Biso   1.000  N
  N12      1.0000 0.59980  0.11230  0.60660  Biso   1.000  N
  N13      1.0000 0.36030  0.78160  0.24760  Biso   1.000  N
  N14      1.0000 0.63970  0.21840  0.75240  Biso   1.000  N
  N15      1.0000 0.40860  0.71150  0.14620  Biso   1.000  N
  N16      1.0000 0.59140  0.28850  0.85380  Biso   1.000  N
  H5       1.0000 0.52910  0.68900  0.11980  Biso   1.000  H
  H6       1.0000 0.47090  0.31100  0.88020  Biso   1.000  H
  H7       1.0000 0.31750  0.69110  0.11070  Biso   1.000  H
  H8       1.0000 0.68250  0.30890  0.88930  Biso   1.000  H
  N17      1.0000 0.23010  0.17020  0.48350  Biso   1.000  N
  N18      1.0000 0.76990  0.82980  0.51650  Biso   1.000  N
  N19      1.0000 0.21910  0.31510  0.42270  Biso   1.000  N
  N20      1.0000 0.78090  0.68490  0.57730  Biso   1.000  N
  N21      1.0000 0.20750  0.45290  0.35750  Biso   1.000  N
  N22      1.0000 0.79250  0.54710  0.64250  Biso   1.000  N
  C1       1.0000 0.09460  0.73070  0.75960  Biso   1.000  C
  C2       1.0000 0.90540  0.26930  0.24040  Biso   1.000  C
  H9       1.0000 0.97110  0.70710  0.76820  Biso   1.000  H
  H10      1.0000 0.02890  0.29290  0.23180  Biso   1.000  H
  C3       1.0000 0.38970  0.73040  0.79780  Biso   1.000  C
  C4       1.0000 0.61030  0.26960  0.20220  Biso   1.000  C
  H11      1.0000 0.50950  0.70640  0.83880  Biso   1.000  H
  H12      1.0000 0.49050  0.29360  0.16120  Biso   1.000  H
  C5       1.0000 0.18030  0.83300  0.29760  Biso   1.000  C
  C6       1.0000 0.81970  0.16700  0.70240  Biso   1.000  C
  H13      1.0000 0.06140  0.82390  0.27290  Biso   1.000  H
  H14      1.0000 0.93860  0.17610  0.72710  Biso   1.000  H
  C7       1.0000 0.49170  0.81760  0.30850  Biso   1.000  C
  C8       1.0000 0.50830  0.18240  0.69150  Biso   1.000  C
  H15      1.0000 0.62750  0.79580  0.29270  Biso   1.000  H
  H16      1.0000 0.37250  0.20420  0.70730  Biso   1.000  H
  N23      1.0000 0.17830  0.14830  0.95320  Biso   1.000  N
  N24      1.0000 0.82170  0.85170  0.04680  Biso   1.000  N
  O1       1.0000 0.08780  0.28570  0.87170  Biso   1.000  O
  O2       1.0000 0.91220  0.71430  0.12830  Biso   1.000  O
  O3       1.0000 0.22060  0.01470  0.92350  Biso   1.000  O
  O4       1.0000 0.77940  0.98530  0.07650  Biso   1.000  O
  O5       1.0000 0.22280  0.15170  0.05790  Biso   1.000  O
  O6       1.0000 0.77720  0.84830  0.94210  Biso   1.000  O
