data_image0
_cell_length_a       8.4444
_cell_length_b       11.1376
_cell_length_c       9.994
_cell_angle_alpha    90
_cell_angle_beta     98.48
_cell_angle_gamma    90

_symmetry_space_group_name_H-M    "P 1"
_symmetry_int_tables_number       1

loop_
  _symmetry_equiv_pos_as_xyz
  'x, y, z'

loop_
  _atom_site_label
  _atom_site_occupancy
  _atom_site_fract_x
  _atom_site_fract_y
  _atom_site_fract_z
  _atom_site_thermal_displace_type
  _atom_site_B_iso_or_equiv
  _atom_site_type_symbol
  Cu1      1.0000 0.61860  0.11885  0.95350  Biso   1.000  Cu
  Cu2      1.0000 0.61860  0.38115  0.45350  Biso   1.000  Cu
  Cu3      1.0000 0.38140  0.88115  0.04650  Biso   1.000  Cu
  Cu4      1.0000 0.38140  0.61885  0.54650  Biso   1.000  Cu
  Cu5      1.0000 0.00000  0.00000  0.00000  Biso   1.000  Cu
  Cu6      1.0000 0.00000  0.50000  0.50000  Biso   1.000  Cu
  N1       1.0000 0.85680  0.97850  0.82440  Biso   1.000  N
  N2       1.0000 0.85680  0.52150  0.32440  Biso   1.000  N
  N3       1.0000 0.14320  0.02150  0.17560  Biso   1.000  N
  N4       1.0000 0.14320  0.47850  0.67560  Biso   1.000  N
  N5       1.0000 0.70470  0.02450  0.80940  Biso   1.000  N
  N6       1.0000 0.70470  0.47550  0.30940  Biso   1.000  N
  N7       1.0000 0.29530  0.97550  0.19060  Biso   1.000  N
  N8       1.0000 0.29530  0.52450  0.69060  Biso   1.000  N
  N9       1.0000 0.74610  0.94750  0.61950  Biso   1.000  N
  N10      1.0000 0.74610  0.55250  0.11950  Biso   1.000  N
  N11      1.0000 0.25390  0.05250  0.38050  Biso   1.000  N
  N12      1.0000 0.25390  0.44750  0.88050  Biso   1.000  N
  N13      1.0000 0.71530  0.91760  0.48110  Biso   1.000  N
  N14      1.0000 0.71530  0.58240  0.98110  Biso   1.000  N
  N15      1.0000 0.28470  0.08240  0.51890  Biso   1.000  N
  N16      1.0000 0.28470  0.41760  0.01890  Biso   1.000  N
  H1       1.0000 0.78840  0.88380  0.44280  Biso   1.000  H
  H2       1.0000 0.78840  0.61620  0.94280  Biso   1.000  H
  H3       1.0000 0.21160  0.11620  0.55720  Biso   1.000  H
  H4       1.0000 0.21160  0.38380  0.05720  Biso   1.000  H
  H5       1.0000 0.62330  0.93320  0.43500  Biso   1.000  H
  H6       1.0000 0.62330  0.56680  0.93500  Biso   1.000  H
  H7       1.0000 0.37670  0.06680  0.56500  Biso   1.000  H
  H8       1.0000 0.37670  0.43320  0.06500  Biso   1.000  H
  N17      1.0000 0.84620  0.12630  0.04420  Biso   1.000  N
  N18      1.0000 0.84620  0.37370  0.54420  Biso   1.000  N
  N19      1.0000 0.15380  0.87370  0.95580  Biso   1.000  N
  N20      1.0000 0.15380  0.62630  0.45580  Biso   1.000  N
  N21      1.0000 0.89890  0.22970  0.06480  Biso   1.000  N
  N22      1.0000 0.89890  0.27030  0.56480  Biso   1.000  N
  N23      1.0000 0.10110  0.77030  0.93520  Biso   1.000  N
  N24      1.0000 0.10110  0.72970  0.43520  Biso   1.000  N
  N25      1.0000 0.94610  0.32550  0.08600  Biso   1.000  N
  N26      1.0000 0.94610  0.17450  0.58600  Biso   1.000  N
  N27      1.0000 0.05390  0.67450  0.91400  Biso   1.000  N
  N28      1.0000 0.05390  0.82550  0.41400  Biso   1.000  N
  N29      1.0000 0.53390  0.20400  0.09830  Biso   1.000  N
  N30      1.0000 0.53390  0.29600  0.59830  Biso   1.000  N
  N31      1.0000 0.46610  0.79600  0.90170  Biso   1.000  N
  N32      1.0000 0.46610  0.70400  0.40170  Biso   1.000  N
  N33      1.0000 0.59750  0.19540  0.21180  Biso   1.000  N
  N34      1.0000 0.59750  0.30460  0.71180  Biso   1.000  N
  N35      1.0000 0.40250  0.80460  0.78820  Biso   1.000  N
  N36      1.0000 0.40250  0.69540  0.28820  Biso   1.000  N
  N37      1.0000 0.65550  0.30930  0.82450  Biso   1.000  N
  N38      1.0000 0.65550  0.19070  0.32450  Biso   1.000  N
  N39      1.0000 0.34450  0.69070  0.17550  Biso   1.000  N
  N40      1.0000 0.34450  0.80930  0.67550  Biso   1.000  N
  N41      1.0000 0.40320  0.08910  0.85270  Biso   1.000  N
  N42      1.0000 0.40320  0.41090  0.35270  Biso   1.000  N
  N43      1.0000 0.59680  0.91090  0.14730  Biso   1.000  N
  N44      1.0000 0.59680  0.58910  0.64730  Biso   1.000  N
  N45      1.0000 0.28280  0.12760  0.88020  Biso   1.000  N
  N46      1.0000 0.28280  0.37240  0.38020  Biso   1.000  N
  N47      1.0000 0.71720  0.87240  0.11980  Biso   1.000  N
  N48      1.0000 0.71720  0.62760  0.61980  Biso   1.000  N
  N49      1.0000 0.16070  0.16280  0.90500  Biso   1.000  N
  N50      1.0000 0.16070  0.33720  0.40500  Biso   1.000  N
  N51      1.0000 0.83930  0.83720  0.09500  Biso   1.000  N
  N52      1.0000 0.83930  0.66280  0.59500  Biso   1.000  N
  C1       1.0000 0.87830  0.93170  0.70900  Biso   1.000  C
  C2       1.0000 0.87830  0.56830  0.20900  Biso   1.000  C
  C3       1.0000 0.12170  0.06830  0.29100  Biso   1.000  C
  C4       1.0000 0.12170  0.43170  0.79100  Biso   1.000  C
  H9       1.0000 0.97110  0.89340  0.69170  Biso   1.000  H
  H10      1.0000 0.97110  0.60660  0.19170  Biso   1.000  H
  H11      1.0000 0.02890  0.10660  0.30830  Biso   1.000  H
  H12      1.0000 0.02890  0.39340  0.80830  Biso   1.000  H
  C5       1.0000 0.63950  0.00520  0.68440  Biso   1.000  C
  C6       1.0000 0.63950  0.49480  0.18440  Biso   1.000  C
  C7       1.0000 0.36050  0.99480  0.31560  Biso   1.000  C
  C8       1.0000 0.36050  0.50520  0.81560  Biso   1.000  C
  H13      1.0000 0.53650  0.02770  0.64640  Biso   1.000  H
  H14      1.0000 0.53650  0.47230  0.14640  Biso   1.000  H
  H15      1.0000 0.46350  0.97230  0.35360  Biso   1.000  H
  H16      1.0000 0.46350  0.52770  0.85360  Biso   1.000  H
