data_image0
_cell_length_a       35.074
_cell_length_b       10.2001
_cell_length_c       15.542
_cell_angle_alpha    90
_cell_angle_beta     110.751
_cell_angle_gamma    90

_symmetry_space_group_name_H-M    "P 1"
_symmetry_int_tables_number       1

loop_
  _symmetry_equiv_pos_as_xyz
  'x, y, z'

loop_
  _atom_site_label
  _atom_site_occupancy
  _atom_site_fract_x
  _atom_site_fract_y
  _atom_site_fract_z
  _atom_site_thermal_displace_type
  _atom_site_B_iso_or_equiv
  _atom_site_type_symbol
  Cd1      1.0000 0.08053  0.38607  0.30381  Biso   1.000  Cd
  Cd2      1.0000 0.58053  0.88607  0.30381  Biso   1.000  Cd
  Cd3      1.0000 0.91947  0.38607  0.19619  Biso   1.000  Cd
  Cd4      1.0000 0.41947  0.88607  0.19619  Biso   1.000  Cd
  Cd5      1.0000 0.91947  0.61393  0.69619  Biso   1.000  Cd
  Cd6      1.0000 0.41947  0.11393  0.69619  Biso   1.000  Cd
  Cd7      1.0000 0.08053  0.61393  0.80381  Biso   1.000  Cd
  Cd8      1.0000 0.58053  0.11393  0.80381  Biso   1.000  Cd
  Cu1      1.0000 0.15881  0.13786  0.34254  Biso   1.000  Cu
  Cu2      1.0000 0.65881  0.63786  0.34254  Biso   1.000  Cu
  Cu3      1.0000 0.84119  0.13786  0.15746  Biso   1.000  Cu
  Cu4      1.0000 0.34119  0.63786  0.15746  Biso   1.000  Cu
  Cu5      1.0000 0.84119  0.86214  0.65746  Biso   1.000  Cu
  Cu6      1.0000 0.34119  0.36214  0.65746  Biso   1.000  Cu
  Cu7      1.0000 0.15881  0.86214  0.84254  Biso   1.000  Cu
  Cu8      1.0000 0.65881  0.36214  0.84254  Biso   1.000  Cu
  O1       1.0000 0.17844  0.28000  0.28257  Biso   1.000  O
  O2       1.0000 0.67844  0.78000  0.28257  Biso   1.000  O
  O3       1.0000 0.82156  0.28000  0.21743  Biso   1.000  O
  O4       1.0000 0.32156  0.78000  0.21743  Biso   1.000  O
  O5       1.0000 0.82156  0.72000  0.71743  Biso   1.000  O
  O6       1.0000 0.32156  0.22000  0.71743  Biso   1.000  O
  O7       1.0000 0.17844  0.72000  0.78257  Biso   1.000  O
  O8       1.0000 0.67844  0.22000  0.78257  Biso   1.000  O
  O9       1.0000 0.12377  0.40630  0.21940  Biso   1.000  O
  O10      1.0000 0.62377  0.90630  0.21940  Biso   1.000  O
  O11      1.0000 0.87623  0.40630  0.28060  Biso   1.000  O
  O12      1.0000 0.37623  0.90630  0.28060  Biso   1.000  O
  O13      1.0000 0.87623  0.59370  0.78060  Biso   1.000  O
  O14      1.0000 0.37623  0.09370  0.78060  Biso   1.000  O
  O15      1.0000 0.12377  0.59370  0.71940  Biso   1.000  O
  O16      1.0000 0.62377  0.09370  0.71940  Biso   1.000  O
  O17      1.0000 0.13493  0.60860  0.93179  Biso   1.000  O
  O18      1.0000 0.63493  0.10860  0.93179  Biso   1.000  O
  O19      1.0000 0.86507  0.60860  0.56821  Biso   1.000  O
  O20      1.0000 0.36507  0.10860  0.56821  Biso   1.000  O
  O21      1.0000 0.86507  0.39140  0.06821  Biso   1.000  O
  O22      1.0000 0.36507  0.89140  0.06821  Biso   1.000  O
  O23      1.0000 0.13493  0.39140  0.43179  Biso   1.000  O
  O24      1.0000 0.63493  0.89140  0.43179  Biso   1.000  O
  O25      1.0000 0.17959  0.77280  0.96149  Biso   1.000  O
  O26      1.0000 0.67959  0.27280  0.96149  Biso   1.000  O
  O27      1.0000 0.82041  0.77280  0.53851  Biso   1.000  O
  O28      1.0000 0.32041  0.27280  0.53851  Biso   1.000  O
  O29      1.0000 0.82041  0.22720  0.03851  Biso   1.000  O
  O30      1.0000 0.32041  0.72720  0.03851  Biso   1.000  O
  O31      1.0000 0.17959  0.22720  0.46149  Biso   1.000  O
  O32      1.0000 0.67959  0.72720  0.46149  Biso   1.000  O
  O33      1.0000 0.09035  0.12960  0.31845  Biso   1.000  O
  O34      1.0000 0.59035  0.62960  0.31845  Biso   1.000  O
  O35      1.0000 0.90965  0.12960  0.18155  Biso   1.000  O
  O36      1.0000 0.40965  0.62960  0.18155  Biso   1.000  O
  O37      1.0000 0.90965  0.87040  0.68155  Biso   1.000  O
  O38      1.0000 0.40965  0.37040  0.68155  Biso   1.000  O
  O39      1.0000 0.09035  0.87040  0.81845  Biso   1.000  O
  O40      1.0000 0.59035  0.37040  0.81845  Biso   1.000  O
  O41      1.0000 0.04104  0.23260  0.20933  Biso   1.000  O
  O42      1.0000 0.54104  0.73260  0.20933  Biso   1.000  O
  O43      1.0000 0.95896  0.23260  0.29067  Biso   1.000  O
  O44      1.0000 0.45896  0.73260  0.29067  Biso   1.000  O
  O45      1.0000 0.95896  0.76740  0.79067  Biso   1.000  O
  O46      1.0000 0.45896  0.26740  0.79067  Biso   1.000  O
  O47      1.0000 0.04104  0.76740  0.70933  Biso   1.000  O
  O48      1.0000 0.54104  0.26740  0.70933  Biso   1.000  O
  O49      1.0000 0.08153  0.62720  0.32122  Biso   1.000  O
  O50      1.0000 0.58153  0.12720  0.32122  Biso   1.000  O
  O51      1.0000 0.91847  0.62720  0.17878  Biso   1.000  O
  O52      1.0000 0.41847  0.12720  0.17878  Biso   1.000  O
  O53      1.0000 0.91847  0.37280  0.67878  Biso   1.000  O
  O54      1.0000 0.41847  0.87280  0.67878  Biso   1.000  O
  O55      1.0000 0.08153  0.37280  0.82122  Biso   1.000  O
  O56      1.0000 0.58153  0.87280  0.82122  Biso   1.000  O
  O57      1.0000 0.03848  0.53220  0.19973  Biso   1.000  O
  O58      1.0000 0.53848  0.03220  0.19973  Biso   1.000  O
  O59      1.0000 0.96152  0.53220  0.30027  Biso   1.000  O
  O60      1.0000 0.46152  0.03220  0.30027  Biso   1.000  O
  O61      1.0000 0.96152  0.46780  0.80027  Biso   1.000  O
  O62      1.0000 0.46152  0.96780  0.80027  Biso   1.000  O
  O63      1.0000 0.03848  0.46780  0.69973  Biso   1.000  O
  O64      1.0000 0.53848  0.96780  0.69973  Biso   1.000  O
  O65      1.0000 0.04001  0.35000  0.39120  Biso   1.000  O
  O66      1.0000 0.54001  0.85000  0.39120  Biso   1.000  O
  O67      1.0000 0.95999  0.35000  0.10880  Biso   1.000  O
  O68      1.0000 0.45999  0.85000  0.10880  Biso   1.000  O
  O69      1.0000 0.95999  0.65000  0.60880  Biso   1.000  O
  O70      1.0000 0.45999  0.15000  0.60880  Biso   1.000  O
  O71      1.0000 0.04001  0.65000  0.89120  Biso   1.000  O
  O72      1.0000 0.54001  0.15000  0.89120  Biso   1.000  O
  H1       1.0000 0.04330  0.41110  0.42980  Biso   1.000  H
  H2       1.0000 0.54330  0.91110  0.42980  Biso   1.000  H
  H3       1.0000 0.95670  0.41110  0.07020  Biso   1.000  H
  H4       1.0000 0.45670  0.91110  0.07020  Biso   1.000  H
  H5       1.0000 0.95670  0.58890  0.57020  Biso   1.000  H
  H6       1.0000 0.45670  0.08890  0.57020  Biso   1.000  H
  H7       1.0000 0.04330  0.58890  0.92980  Biso   1.000  H
  H8       1.0000 0.54330  0.08890  0.92980  Biso   1.000  H
  H9       1.0000 0.01580  0.33250  0.35650  Biso   1.000  H
  H10      1.0000 0.51580  0.83250  0.35650  Biso   1.000  H
  H11      1.0000 0.98420  0.33250  0.14350  Biso   1.000  H
  H12      1.0000 0.48420  0.83250  0.14350  Biso   1.000  H
  H13      1.0000 0.98420  0.66750  0.64350  Biso   1.000  H
  H14      1.0000 0.48420  0.16750  0.64350  Biso   1.000  H
  H15      1.0000 0.01580  0.66750  0.85650  Biso   1.000  H
  H16      1.0000 0.51580  0.16750  0.85650  Biso   1.000  H
  N1       1.0000 0.17452  0.96080  0.40550  Biso   1.000  N
  N2       1.0000 0.67452  0.46080  0.40550  Biso   1.000  N
  N3       1.0000 0.82548  0.96080  0.09450  Biso   1.000  N
  N4       1.0000 0.32548  0.46080  0.09450  Biso   1.000  N
  N5       1.0000 0.82548  0.03920  0.59450  Biso   1.000  N
  N6       1.0000 0.32548  0.53920  0.59450  Biso   1.000  N
  N7       1.0000 0.17452  0.03920  0.90550  Biso   1.000  N
  N8       1.0000 0.67452  0.53920  0.90550  Biso   1.000  N
  N9       1.0000 0.14406  0.01910  0.23070  Biso   1.000  N
  N10      1.0000 0.64406  0.51910  0.23070  Biso   1.000  N
  N11      1.0000 0.85594  0.01910  0.26930  Biso   1.000  N
  N12      1.0000 0.35594  0.51910  0.26930  Biso   1.000  N
  N13      1.0000 0.85594  0.98090  0.76930  Biso   1.000  N
  N14      1.0000 0.35594  0.48090  0.76930  Biso   1.000  N
  N15      1.0000 0.14406  0.98090  0.73070  Biso   1.000  N
  N16      1.0000 0.64406  0.48090  0.73070  Biso   1.000  N
  C1       1.0000 0.15974  0.37790  0.23520  Biso   1.000  C
  C2       1.0000 0.65974  0.87790  0.23520  Biso   1.000  C
  C3       1.0000 0.84026  0.37790  0.26480  Biso   1.000  C
  C4       1.0000 0.34026  0.87790  0.26480  Biso   1.000  C
  C5       1.0000 0.84026  0.62210  0.76480  Biso   1.000  C
  C6       1.0000 0.34026  0.12210  0.76480  Biso   1.000  C
  C7       1.0000 0.15974  0.62210  0.73520  Biso   1.000  C
  C8       1.0000 0.65974  0.12210  0.73520  Biso   1.000  C
  C9       1.0000 0.18460  0.46280  0.19540  Biso   1.000  C
  C10      1.0000 0.68460  0.96280  0.19540  Biso   1.000  C
  C11      1.0000 0.81540  0.46280  0.30460  Biso   1.000  C
  C12      1.0000 0.31540  0.96280  0.30460  Biso   1.000  C
  C13      1.0000 0.81540  0.53720  0.80460  Biso   1.000  C
  C14      1.0000 0.31540  0.03720  0.80460  Biso   1.000  C
  C15      1.0000 0.18460  0.53720  0.69540  Biso   1.000  C
  C16      1.0000 0.68460  0.03720  0.69540  Biso   1.000  C
  C17      1.0000 0.22586  0.48060  0.24080  Biso   1.000  C
  C18      1.0000 0.72586  0.98060  0.24080  Biso   1.000  C
  C19      1.0000 0.77414  0.48060  0.25920  Biso   1.000  C
  C20      1.0000 0.27414  0.98060  0.25920  Biso   1.000  C
  C21      1.0000 0.77414  0.51940  0.75920  Biso   1.000  C
  C22      1.0000 0.27414  0.01940  0.75920  Biso   1.000  C
  C23      1.0000 0.22586  0.51940  0.74080  Biso   1.000  C
  C24      1.0000 0.72586  0.01940  0.74080  Biso   1.000  C
  H17      1.0000 0.23930  0.43490  0.29490  Biso   1.000  H
  H18      1.0000 0.73930  0.93490  0.29490  Biso   1.000  H
  H19      1.0000 0.76070  0.43490  0.20510  Biso   1.000  H
  H20      1.0000 0.26070  0.93490  0.20510  Biso   1.000  H
  H21      1.0000 0.76070  0.56510  0.70510  Biso   1.000  H
  H22      1.0000 0.26070  0.06510  0.70510  Biso   1.000  H
  H23      1.0000 0.23930  0.56510  0.79490  Biso   1.000  H
  H24      1.0000 0.73930  0.06510  0.79490  Biso   1.000  H
  C25      1.0000 0.24733  0.56650  0.20600  Biso   1.000  C
  C26      1.0000 0.74733  0.06650  0.20600  Biso   1.000  C
  C27      1.0000 0.75267  0.56650  0.29400  Biso   1.000  C
  C28      1.0000 0.25267  0.06650  0.29400  Biso   1.000  C
  C29      1.0000 0.75267  0.43350  0.79400  Biso   1.000  C
  C30      1.0000 0.25267  0.93350  0.79400  Biso   1.000  C
  C31      1.0000 0.24733  0.43350  0.70600  Biso   1.000  C
  C32      1.0000 0.74733  0.93350  0.70600  Biso   1.000  C
  H25      1.0000 0.27490  0.58100  0.23840  Biso   1.000  H
  H26      1.0000 0.77490  0.08100  0.23840  Biso   1.000  H
  H27      1.0000 0.72510  0.58100  0.26160  Biso   1.000  H
  H28      1.0000 0.22510  0.08100  0.26160  Biso   1.000  H
  H29      1.0000 0.72510  0.41900  0.76160  Biso   1.000  H
  H30      1.0000 0.22510  0.91900  0.76160  Biso   1.000  H
  H31      1.0000 0.27490  0.41900  0.73840  Biso   1.000  H
  H32      1.0000 0.77490  0.91900  0.73840  Biso   1.000  H
  C33      1.0000 0.22822  0.63110  0.12360  Biso   1.000  C
  C34      1.0000 0.72822  0.13110  0.12360  Biso   1.000  C
  C35      1.0000 0.77178  0.63110  0.37640  Biso   1.000  C
  C36      1.0000 0.27178  0.13110  0.37640  Biso   1.000  C
  C37      1.0000 0.77178  0.36890  0.87640  Biso   1.000  C
  C38      1.0000 0.27178  0.86890  0.87640  Biso   1.000  C
  C39      1.0000 0.22822  0.36890  0.62360  Biso   1.000  C
  C40      1.0000 0.72822  0.86890  0.62360  Biso   1.000  C
  H33      1.0000 0.24280  0.68910  0.10080  Biso   1.000  H
  H34      1.0000 0.74280  0.18910  0.10080  Biso   1.000  H
  H35      1.0000 0.75720  0.68910  0.39920  Biso   1.000  H
  H36      1.0000 0.25720  0.18910  0.39920  Biso   1.000  H
  H37      1.0000 0.75720  0.31090  0.89920  Biso   1.000  H
  H38      1.0000 0.25720  0.81090  0.89920  Biso   1.000  H
  H39      1.0000 0.24280  0.31090  0.60080  Biso   1.000  H
  H40      1.0000 0.74280  0.81090  0.60080  Biso   1.000  H
  C41      1.0000 0.18731  0.60870  0.07520  Biso   1.000  C
  C42      1.0000 0.68731  0.10870  0.07520  Biso   1.000  C
  C43      1.0000 0.81269  0.60870  0.42480  Biso   1.000  C
  C44      1.0000 0.31269  0.10870  0.42480  Biso   1.000  C
  C45      1.0000 0.81269  0.39130  0.92480  Biso   1.000  C
  C46      1.0000 0.31269  0.89130  0.92480  Biso   1.000  C
  C47      1.0000 0.18731  0.39130  0.57520  Biso   1.000  C
  C48      1.0000 0.68731  0.89130  0.57520  Biso   1.000  C
  C49      1.0000 0.16565  0.52570  0.11250  Biso   1.000  C
  C50      1.0000 0.66565  0.02570  0.11250  Biso   1.000  C
  C51      1.0000 0.83435  0.52570  0.38750  Biso   1.000  C
  C52      1.0000 0.33435  0.02570  0.38750  Biso   1.000  C
  C53      1.0000 0.83435  0.47430  0.88750  Biso   1.000  C
  C54      1.0000 0.33435  0.97430  0.88750  Biso   1.000  C
  C55      1.0000 0.16565  0.47430  0.61250  Biso   1.000  C
  C56      1.0000 0.66565  0.97430  0.61250  Biso   1.000  C
  H41      1.0000 0.13800  0.51240  0.08090  Biso   1.000  H
  H42      1.0000 0.63800  0.01240  0.08090  Biso   1.000  H
  H43      1.0000 0.86200  0.51240  0.41910  Biso   1.000  H
  H44      1.0000 0.36200  0.01240  0.41910  Biso   1.000  H
  H45      1.0000 0.86200  0.48760  0.91910  Biso   1.000  H
  H46      1.0000 0.36200  0.98760  0.91910  Biso   1.000  H
  H47      1.0000 0.13800  0.48760  0.58090  Biso   1.000  H
  H48      1.0000 0.63800  0.98760  0.58090  Biso   1.000  H
  C57      1.0000 0.16537  0.66800  0.98180  Biso   1.000  C
  C58      1.0000 0.66537  0.16800  0.98180  Biso   1.000  C
  C59      1.0000 0.83463  0.66800  0.51820  Biso   1.000  C
  C60      1.0000 0.33463  0.16800  0.51820  Biso   1.000  C
  C61      1.0000 0.83463  0.33200  0.01820  Biso   1.000  C
  C62      1.0000 0.33463  0.83200  0.01820  Biso   1.000  C
  C63      1.0000 0.16537  0.33200  0.48180  Biso   1.000  C
  C64      1.0000 0.66537  0.83200  0.48180  Biso   1.000  C
  C65      1.0000 0.05832  0.12820  0.24790  Biso   1.000  C
  C66      1.0000 0.55832  0.62820  0.24790  Biso   1.000  C
  C67      1.0000 0.94168  0.12820  0.25210  Biso   1.000  C
  C68      1.0000 0.44168  0.62820  0.25210  Biso   1.000  C
  C69      1.0000 0.94168  0.87180  0.75210  Biso   1.000  C
  C70      1.0000 0.44168  0.37180  0.75210  Biso   1.000  C
  C71      1.0000 0.05832  0.87180  0.74790  Biso   1.000  C
  C72      1.0000 0.55832  0.37180  0.74790  Biso   1.000  C
  C73      1.0000 0.03921  0.00080  0.20610  Biso   1.000  C
  C74      1.0000 0.53921  0.50080  0.20610  Biso   1.000  C
  C75      1.0000 0.96079  0.00080  0.29390  Biso   1.000  C
  C76      1.0000 0.46079  0.50080  0.29390  Biso   1.000  C
  C77      1.0000 0.96079  0.99920  0.79390  Biso   1.000  C
  C78      1.0000 0.46079  0.49920  0.79390  Biso   1.000  C
  C79      1.0000 0.03921  0.99920  0.70610  Biso   1.000  C
  C80      1.0000 0.53921  0.49920  0.70610  Biso   1.000  C
  C81      1.0000 0.05395  0.88130  0.24700  Biso   1.000  C
  C82      1.0000 0.55395  0.38130  0.24700  Biso   1.000  C
  C83      1.0000 0.94605  0.88130  0.25300  Biso   1.000  C
  C84      1.0000 0.44605  0.38130  0.25300  Biso   1.000  C
  C85      1.0000 0.94605  0.11870  0.75300  Biso   1.000  C
  C86      1.0000 0.44605  0.61870  0.75300  Biso   1.000  C
  C87      1.0000 0.05395  0.11870  0.74700  Biso   1.000  C
  C88      1.0000 0.55395  0.61870  0.74700  Biso   1.000  C
  H49      1.0000 0.07520  0.87910  0.30360  Biso   1.000  H
  H50      1.0000 0.57520  0.37910  0.30360  Biso   1.000  H
  H51      1.0000 0.92480  0.87910  0.19640  Biso   1.000  H
  H52      1.0000 0.42480  0.37910  0.19640  Biso   1.000  H
  H53      1.0000 0.92480  0.12090  0.69640  Biso   1.000  H
  H54      1.0000 0.42480  0.62090  0.69640  Biso   1.000  H
  H55      1.0000 0.07520  0.12090  0.80360  Biso   1.000  H
  H56      1.0000 0.57520  0.62090  0.80360  Biso   1.000  H
  C89      1.0000 0.03712  0.76490  0.20370  Biso   1.000  C
  C90      1.0000 0.53712  0.26490  0.20370  Biso   1.000  C
  C91      1.0000 0.96288  0.76490  0.29630  Biso   1.000  C
  C92      1.0000 0.46288  0.26490  0.29630  Biso   1.000  C
  C93      1.0000 0.96288  0.23510  0.79630  Biso   1.000  C
  C94      1.0000 0.46288  0.73510  0.79630  Biso   1.000  C
  C95      1.0000 0.03712  0.23510  0.70370  Biso   1.000  C
  C96      1.0000 0.53712  0.73510  0.70370  Biso   1.000  C
  C97      1.0000 0.00546  0.76830  0.11970  Biso   1.000  C
  C98      1.0000 0.50546  0.26830  0.11970  Biso   1.000  C
  C99      1.0000 0.99454  0.76830  0.38030  Biso   1.000  C
  C100     1.0000 0.49454  0.26830  0.38030  Biso   1.000  C
  C101     1.0000 0.99454  0.23170  0.88030  Biso   1.000  C
  C102     1.0000 0.49454  0.73170  0.88030  Biso   1.000  C
  C103     1.0000 0.00546  0.23170  0.61970  Biso   1.000  C
  C104     1.0000 0.50546  0.73170  0.61970  Biso   1.000  C
  H57      1.0000 0.99460  0.69040  0.09010  Biso   1.000  H
  H58      1.0000 0.49460  0.19040  0.09010  Biso   1.000  H
  H59      1.0000 0.00540  0.69040  0.40990  Biso   1.000  H
  H60      1.0000 0.50540  0.19040  0.40990  Biso   1.000  H
  H61      1.0000 0.00540  0.30960  0.90990  Biso   1.000  H
  H62      1.0000 0.50540  0.80960  0.90990  Biso   1.000  H
  H63      1.0000 0.99460  0.30960  0.59010  Biso   1.000  H
  H64      1.0000 0.49460  0.80960  0.59010  Biso   1.000  H
  C105     1.0000 0.98991  0.88600  0.07980  Biso   1.000  C
  C106     1.0000 0.48991  0.38600  0.07980  Biso   1.000  C
  C107     1.0000 0.01009  0.88600  0.42020  Biso   1.000  C
  C108     1.0000 0.51009  0.38600  0.42020  Biso   1.000  C
  C109     1.0000 0.01009  0.11400  0.92020  Biso   1.000  C
  C110     1.0000 0.51009  0.61400  0.92020  Biso   1.000  C
  C111     1.0000 0.98991  0.11400  0.57980  Biso   1.000  C
  C112     1.0000 0.48991  0.61400  0.57980  Biso   1.000  C
  H65      1.0000 0.96810  0.88760  0.02420  Biso   1.000  H
  H66      1.0000 0.46810  0.38760  0.02420  Biso   1.000  H
  H67      1.0000 0.03190  0.88760  0.47580  Biso   1.000  H
  H68      1.0000 0.53190  0.38760  0.47580  Biso   1.000  H
  H69      1.0000 0.03190  0.11240  0.97580  Biso   1.000  H
  H70      1.0000 0.53190  0.61240  0.97580  Biso   1.000  H
  H71      1.0000 0.96810  0.11240  0.52420  Biso   1.000  H
  H72      1.0000 0.46810  0.61240  0.52420  Biso   1.000  H
  C113     1.0000 0.00669  0.00220  0.12220  Biso   1.000  C
  C114     1.0000 0.50669  0.50220  0.12220  Biso   1.000  C
  C115     1.0000 0.99331  0.00220  0.37780  Biso   1.000  C
  C116     1.0000 0.49331  0.50220  0.37780  Biso   1.000  C
  C117     1.0000 0.99331  0.99780  0.87780  Biso   1.000  C
  C118     1.0000 0.49331  0.49780  0.87780  Biso   1.000  C
  C119     1.0000 0.00669  0.99780  0.62220  Biso   1.000  C
  C120     1.0000 0.50669  0.49780  0.62220  Biso   1.000  C
  H73      1.0000 0.99620  0.08180  0.09470  Biso   1.000  H
  H74      1.0000 0.49620  0.58180  0.09470  Biso   1.000  H
  H75      1.0000 0.00380  0.08180  0.40530  Biso   1.000  H
  H76      1.0000 0.50380  0.58180  0.40530  Biso   1.000  H
  H77      1.0000 0.00380  0.91820  0.90530  Biso   1.000  H
  H78      1.0000 0.50380  0.41820  0.90530  Biso   1.000  H
  H79      1.0000 0.99620  0.91820  0.59470  Biso   1.000  H
  H80      1.0000 0.49620  0.41820  0.59470  Biso   1.000  H
  C121     1.0000 0.05330  0.63360  0.24460  Biso   1.000  C
  C122     1.0000 0.55330  0.13360  0.24460  Biso   1.000  C
  C123     1.0000 0.94670  0.63360  0.25540  Biso   1.000  C
  C124     1.0000 0.44670  0.13360  0.25540  Biso   1.000  C
  C125     1.0000 0.94670  0.36640  0.75540  Biso   1.000  C
  C126     1.0000 0.44670  0.86640  0.75540  Biso   1.000  C
  C127     1.0000 0.05330  0.36640  0.74460  Biso   1.000  C
  C128     1.0000 0.55330  0.86640  0.74460  Biso   1.000  C
  C129     1.0000 0.19292  0.94140  0.49650  Biso   1.000  C
  C130     1.0000 0.69292  0.44140  0.49650  Biso   1.000  C
  C131     1.0000 0.80708  0.94140  0.00350  Biso   1.000  C
  C132     1.0000 0.30708  0.44140  0.00350  Biso   1.000  C
  C133     1.0000 0.80708  0.05860  0.50350  Biso   1.000  C
  C134     1.0000 0.30708  0.55860  0.50350  Biso   1.000  C
  C135     1.0000 0.19292  0.05860  0.99650  Biso   1.000  C
  C136     1.0000 0.69292  0.55860  0.99650  Biso   1.000  C
  H81      1.0000 0.19910  0.01340  0.53570  Biso   1.000  H
  H82      1.0000 0.69910  0.51340  0.53570  Biso   1.000  H
  H83      1.0000 0.80090  0.01340  0.96430  Biso   1.000  H
  H84      1.0000 0.30090  0.51340  0.96430  Biso   1.000  H
  H85      1.0000 0.80090  0.98660  0.46430  Biso   1.000  H
  H86      1.0000 0.30090  0.48660  0.46430  Biso   1.000  H
  H87      1.0000 0.19910  0.98660  0.03570  Biso   1.000  H
  H88      1.0000 0.69910  0.48660  0.03570  Biso   1.000  H
  C137     1.0000 0.20277  0.81870  0.53280  Biso   1.000  C
  C138     1.0000 0.70277  0.31870  0.53280  Biso   1.000  C
  C139     1.0000 0.79723  0.81870  0.96720  Biso   1.000  C
  C140     1.0000 0.29723  0.31870  0.96720  Biso   1.000  C
  C141     1.0000 0.79723  0.18130  0.46720  Biso   1.000  C
  C142     1.0000 0.29723  0.68130  0.46720  Biso   1.000  C
  C143     1.0000 0.20277  0.18130  0.03280  Biso   1.000  C
  C144     1.0000 0.70277  0.68130  0.03280  Biso   1.000  C
  H89      1.0000 0.21490  0.80770  0.59610  Biso   1.000  H
  H90      1.0000 0.71490  0.30770  0.59610  Biso   1.000  H
  H91      1.0000 0.78510  0.80770  0.90390  Biso   1.000  H
  H92      1.0000 0.28510  0.30770  0.90390  Biso   1.000  H
  H93      1.0000 0.78510  0.19230  0.40390  Biso   1.000  H
  H94      1.0000 0.28510  0.69230  0.40390  Biso   1.000  H
  H95      1.0000 0.21490  0.19230  0.09610  Biso   1.000  H
  H96      1.0000 0.71490  0.69230  0.09610  Biso   1.000  H
  C145     1.0000 0.19488  0.71300  0.47640  Biso   1.000  C
  C146     1.0000 0.69488  0.21300  0.47640  Biso   1.000  C
  C147     1.0000 0.80512  0.71300  0.02360  Biso   1.000  C
  C148     1.0000 0.30512  0.21300  0.02360  Biso   1.000  C
  C149     1.0000 0.80512  0.28700  0.52360  Biso   1.000  C
  C150     1.0000 0.30512  0.78700  0.52360  Biso   1.000  C
  C151     1.0000 0.19488  0.28700  0.97640  Biso   1.000  C
  C152     1.0000 0.69488  0.78700  0.97640  Biso   1.000  C
  H97      1.0000 0.20250  0.62960  0.50050  Biso   1.000  H
  H98      1.0000 0.70250  0.12960  0.50050  Biso   1.000  H
  H99      1.0000 0.79750  0.62960  0.99950  Biso   1.000  H
  H100     1.0000 0.29750  0.12960  0.99950  Biso   1.000  H
  H101     1.0000 0.79750  0.37040  0.49950  Biso   1.000  H
  H102     1.0000 0.29750  0.87040  0.49950  Biso   1.000  H
  H103     1.0000 0.20250  0.37040  0.00050  Biso   1.000  H
  H104     1.0000 0.70250  0.87040  0.00050  Biso   1.000  H
  C153     1.0000 0.17563  0.72990  0.38360  Biso   1.000  C
  C154     1.0000 0.67563  0.22990  0.38360  Biso   1.000  C
  C155     1.0000 0.82437  0.72990  0.11640  Biso   1.000  C
  C156     1.0000 0.32437  0.22990  0.11640  Biso   1.000  C
  C157     1.0000 0.82437  0.27010  0.61640  Biso   1.000  C
  C158     1.0000 0.32437  0.77010  0.61640  Biso   1.000  C
  C159     1.0000 0.17563  0.27010  0.88360  Biso   1.000  C
  C160     1.0000 0.67563  0.77010  0.88360  Biso   1.000  C
  H105     1.0000 0.16900  0.65790  0.34440  Biso   1.000  H
  H106     1.0000 0.66900  0.15790  0.34440  Biso   1.000  H
  H107     1.0000 0.83100  0.65790  0.15560  Biso   1.000  H
  H108     1.0000 0.33100  0.15790  0.15560  Biso   1.000  H
  H109     1.0000 0.83100  0.34210  0.65560  Biso   1.000  H
  H110     1.0000 0.33100  0.84210  0.65560  Biso   1.000  H
  H111     1.0000 0.16900  0.34210  0.84440  Biso   1.000  H
  H112     1.0000 0.66900  0.84210  0.84440  Biso   1.000  H
  C161     1.0000 0.16607  0.85740  0.34840  Biso   1.000  C
  C162     1.0000 0.66607  0.35740  0.34840  Biso   1.000  C
  C163     1.0000 0.83393  0.85740  0.15160  Biso   1.000  C
  C164     1.0000 0.33393  0.35740  0.15160  Biso   1.000  C
  C165     1.0000 0.83393  0.14260  0.65160  Biso   1.000  C
  C166     1.0000 0.33393  0.64260  0.65160  Biso   1.000  C
  C167     1.0000 0.16607  0.14260  0.84840  Biso   1.000  C
  C168     1.0000 0.66607  0.64260  0.84840  Biso   1.000  C
  C169     1.0000 0.14634  0.88900  0.25020  Biso   1.000  C
  C170     1.0000 0.64634  0.38900  0.25020  Biso   1.000  C
  C171     1.0000 0.85366  0.88900  0.24980  Biso   1.000  C
  C172     1.0000 0.35366  0.38900  0.24980  Biso   1.000  C
  C173     1.0000 0.85366  0.11100  0.74980  Biso   1.000  C
  C174     1.0000 0.35366  0.61100  0.74980  Biso   1.000  C
  C175     1.0000 0.14634  0.11100  0.75020  Biso   1.000  C
  C176     1.0000 0.64634  0.61100  0.75020  Biso   1.000  C
  C177     1.0000 0.13060  0.79720  0.18200  Biso   1.000  C
  C178     1.0000 0.63060  0.29720  0.18200  Biso   1.000  C
  C179     1.0000 0.86940  0.79720  0.31800  Biso   1.000  C
  C180     1.0000 0.36940  0.29720  0.31800  Biso   1.000  C
  C181     1.0000 0.86940  0.20280  0.81800  Biso   1.000  C
  C182     1.0000 0.36940  0.70280  0.81800  Biso   1.000  C
  C183     1.0000 0.13060  0.20280  0.68200  Biso   1.000  C
  C184     1.0000 0.63060  0.70280  0.68200  Biso   1.000  C
  H113     1.0000 0.13200  0.70840  0.19630  Biso   1.000  H
  H114     1.0000 0.63200  0.20840  0.19630  Biso   1.000  H
  H115     1.0000 0.86800  0.70840  0.30370  Biso   1.000  H
  H116     1.0000 0.36800  0.20840  0.30370  Biso   1.000  H
  H117     1.0000 0.86800  0.29160  0.80370  Biso   1.000  H
  H118     1.0000 0.36800  0.79160  0.80370  Biso   1.000  H
  H119     1.0000 0.13200  0.29160  0.69630  Biso   1.000  H
  H120     1.0000 0.63200  0.79160  0.69630  Biso   1.000  H
  C185     1.0000 0.11273  0.83810  0.09230  Biso   1.000  C
  C186     1.0000 0.61273  0.33810  0.09230  Biso   1.000  C
  C187     1.0000 0.88727  0.83810  0.40770  Biso   1.000  C
  C188     1.0000 0.38727  0.33810  0.40770  Biso   1.000  C
  C189     1.0000 0.88727  0.16190  0.90770  Biso   1.000  C
  C190     1.0000 0.38727  0.66190  0.90770  Biso   1.000  C
  C191     1.0000 0.11273  0.16190  0.59230  Biso   1.000  C
  C192     1.0000 0.61273  0.66190  0.59230  Biso   1.000  C
  H121     1.0000 0.10170  0.77700  0.04570  Biso   1.000  H
  H122     1.0000 0.60170  0.27700  0.04570  Biso   1.000  H
  H123     1.0000 0.89830  0.77700  0.45430  Biso   1.000  H
  H124     1.0000 0.39830  0.27700  0.45430  Biso   1.000  H
  H125     1.0000 0.89830  0.22300  0.95430  Biso   1.000  H
  H126     1.0000 0.39830  0.72300  0.95430  Biso   1.000  H
  H127     1.0000 0.10170  0.22300  0.54570  Biso   1.000  H
  H128     1.0000 0.60170  0.72300  0.54570  Biso   1.000  H
  C193     1.0000 0.11124  0.96910  0.07180  Biso   1.000  C
  C194     1.0000 0.61124  0.46910  0.07180  Biso   1.000  C
  C195     1.0000 0.88876  0.96910  0.42820  Biso   1.000  C
  C196     1.0000 0.38876  0.46910  0.42820  Biso   1.000  C
  C197     1.0000 0.88876  0.03090  0.92820  Biso   1.000  C
  C198     1.0000 0.38876  0.53090  0.92820  Biso   1.000  C
  C199     1.0000 0.11124  0.03090  0.57180  Biso   1.000  C
  C200     1.0000 0.61124  0.53090  0.57180  Biso   1.000  C
  H129     1.0000 0.10010  0.99810  0.01130  Biso   1.000  H
  H130     1.0000 0.60010  0.49810  0.01130  Biso   1.000  H
  H131     1.0000 0.89990  0.99810  0.48870  Biso   1.000  H
  H132     1.0000 0.39990  0.49810  0.48870  Biso   1.000  H
  H133     1.0000 0.89990  0.00190  0.98870  Biso   1.000  H
  H134     1.0000 0.39990  0.50190  0.98870  Biso   1.000  H
  H135     1.0000 0.10010  0.00190  0.51130  Biso   1.000  H
  H136     1.0000 0.60010  0.50190  0.51130  Biso   1.000  H
  C201     1.0000 0.12682  0.05720  0.14350  Biso   1.000  C
  C202     1.0000 0.62682  0.55720  0.14350  Biso   1.000  C
  C203     1.0000 0.87318  0.05720  0.35650  Biso   1.000  C
  C204     1.0000 0.37318  0.55720  0.35650  Biso   1.000  C
  C205     1.0000 0.87318  0.94280  0.85650  Biso   1.000  C
  C206     1.0000 0.37318  0.44280  0.85650  Biso   1.000  C
  C207     1.0000 0.12682  0.94280  0.64350  Biso   1.000  C
  C208     1.0000 0.62682  0.44280  0.64350  Biso   1.000  C
  H137     1.0000 0.12520  0.14640  0.13030  Biso   1.000  H
  H138     1.0000 0.62520  0.64640  0.13030  Biso   1.000  H
  H139     1.0000 0.87480  0.14640  0.36970  Biso   1.000  H
  H140     1.0000 0.37480  0.64640  0.36970  Biso   1.000  H
  H141     1.0000 0.87480  0.85360  0.86970  Biso   1.000  H
  H142     1.0000 0.37480  0.35360  0.86970  Biso   1.000  H
  H143     1.0000 0.12520  0.85360  0.63030  Biso   1.000  H
  H144     1.0000 0.62520  0.35360  0.63030  Biso   1.000  H
  O73      1.0000 0.04971  0.47910  0.03400  Biso   1.000  O
  O74      1.0000 0.54971  0.97910  0.03400  Biso   1.000  O
  O75      1.0000 0.95029  0.47910  0.46600  Biso   1.000  O
  O76      1.0000 0.45029  0.97910  0.46600  Biso   1.000  O
  O77      1.0000 0.95029  0.52090  0.96600  Biso   1.000  O
  O78      1.0000 0.45029  0.02090  0.96600  Biso   1.000  O
  O79      1.0000 0.04971  0.52090  0.53400  Biso   1.000  O
  O80      1.0000 0.54971  0.02090  0.53400  Biso   1.000  O
  H145     1.0000 0.02400  0.49190  0.02360  Biso   1.000  H
  H146     1.0000 0.52400  0.99190  0.02360  Biso   1.000  H
  H147     1.0000 0.97600  0.49190  0.47640  Biso   1.000  H
  H148     1.0000 0.47600  0.99190  0.47640  Biso   1.000  H
  H149     1.0000 0.97600  0.50810  0.97640  Biso   1.000  H
  H150     1.0000 0.47600  0.00810  0.97640  Biso   1.000  H
  H151     1.0000 0.02400  0.50810  0.52360  Biso   1.000  H
  H152     1.0000 0.52400  0.00810  0.52360  Biso   1.000  H
  H153     1.0000 0.06720  0.50070  0.08840  Biso   1.000  H
  H154     1.0000 0.56720  0.00070  0.08840  Biso   1.000  H
  H155     1.0000 0.93280  0.50070  0.41160  Biso   1.000  H
  H156     1.0000 0.43280  0.00070  0.41160  Biso   1.000  H
  H157     1.0000 0.93280  0.49930  0.91160  Biso   1.000  H
  H158     1.0000 0.43280  0.99930  0.91160  Biso   1.000  H
  H159     1.0000 0.06720  0.49930  0.58840  Biso   1.000  H
  H160     1.0000 0.56720  0.99930  0.58840  Biso   1.000  H
  O81      1.0000 0.10059  0.71740  0.49780  Biso   1.000  O
  O82      1.0000 0.60059  0.21740  0.49780  Biso   1.000  O
  O83      1.0000 0.89941  0.71740  0.00220  Biso   1.000  O
  O84      1.0000 0.39941  0.21740  0.00220  Biso   1.000  O
  O85      1.0000 0.89941  0.28260  0.50220  Biso   1.000  O
  O86      1.0000 0.39941  0.78260  0.50220  Biso   1.000  O
  O87      1.0000 0.10059  0.28260  0.99780  Biso   1.000  O
  O88      1.0000 0.60059  0.78260  0.99780  Biso   1.000  O
  H161     1.0000 0.07590  0.73210  0.49690  Biso   1.000  H
  H162     1.0000 0.57590  0.23210  0.49690  Biso   1.000  H
  H163     1.0000 0.92410  0.73210  0.00310  Biso   1.000  H
  H164     1.0000 0.42410  0.23210  0.00310  Biso   1.000  H
  H165     1.0000 0.92410  0.26790  0.50310  Biso   1.000  H
  H166     1.0000 0.42410  0.76790  0.50310  Biso   1.000  H
  H167     1.0000 0.07590  0.26790  0.99690  Biso   1.000  H
  H168     1.0000 0.57590  0.76790  0.99690  Biso   1.000  H
  H169     1.0000 0.10360  0.68290  0.44720  Biso   1.000  H
  H170     1.0000 0.60360  0.18290  0.44720  Biso   1.000  H
  H171     1.0000 0.89640  0.68290  0.05280  Biso   1.000  H
  H172     1.0000 0.39640  0.18290  0.05280  Biso   1.000  H
  H173     1.0000 0.89640  0.31710  0.55280  Biso   1.000  H
  H174     1.0000 0.39640  0.81710  0.55280  Biso   1.000  H
  H175     1.0000 0.10360  0.31710  0.94720  Biso   1.000  H
  H176     1.0000 0.60360  0.81710  0.94720  Biso   1.000  H
