data_image0
_cell_length_a       6.434
_cell_length_b       18.567
_cell_length_c       10.039
_cell_angle_alpha    90
_cell_angle_beta     95.827
_cell_angle_gamma    90

_symmetry_space_group_name_H-M    "P 1"
_symmetry_int_tables_number       1

loop_
  _symmetry_equiv_pos_as_xyz
  'x, y, z'

loop_
  _atom_site_label
  _atom_site_occupancy
  _atom_site_fract_x
  _atom_site_fract_y
  _atom_site_fract_z
  _atom_site_thermal_displace_type
  _atom_site_B_iso_or_equiv
  _atom_site_type_symbol
  Cu1      1.0000 0.18896  0.45510  0.48487  Biso   1.000  Cu
  Cu2      1.0000 0.31104  0.95510  0.01513  Biso   1.000  Cu
  Cu3      1.0000 0.81104  0.54490  0.51513  Biso   1.000  Cu
  Cu4      1.0000 0.68896  0.04490  0.98487  Biso   1.000  Cu
  O1       1.0000 0.01110  0.52410  0.38400  Biso   1.000  O
  O2       1.0000 0.48890  0.02410  0.11600  Biso   1.000  O
  O3       1.0000 0.98890  0.47590  0.61600  Biso   1.000  O
  O4       1.0000 0.51110  0.97590  0.88400  Biso   1.000  O
  O5       1.0000 0.37920  0.38590  0.57180  Biso   1.000  O
  O6       1.0000 0.12080  0.88590  0.92820  Biso   1.000  O
  O7       1.0000 0.62080  0.61410  0.42820  Biso   1.000  O
  O8       1.0000 0.87920  0.11410  0.07180  Biso   1.000  O
  O9       1.0000 0.93590  0.35610  0.39110  Biso   1.000  O
  O10      1.0000 0.56410  0.85610  0.10890  Biso   1.000  O
  O11      1.0000 0.06410  0.64390  0.60890  Biso   1.000  O
  O12      1.0000 0.43590  0.14390  0.89110  Biso   1.000  O
  N1       1.0000 0.39260  0.45520  0.35800  Biso   1.000  N
  N2       1.0000 0.10740  0.95520  0.14200  Biso   1.000  N
  N3       1.0000 0.60740  0.54480  0.64200  Biso   1.000  N
  N4       1.0000 0.89260  0.04480  0.85800  Biso   1.000  N
  N5       1.0000 0.56790  0.41300  0.39540  Biso   1.000  N
  N6       1.0000 0.93210  0.91300  0.10460  Biso   1.000  N
  N7       1.0000 0.43210  0.58700  0.60460  Biso   1.000  N
  N8       1.0000 0.06790  0.08700  0.89540  Biso   1.000  N
  C1       1.0000 0.03580  0.55040  0.25980  Biso   1.000  C
  C2       1.0000 0.46420  0.05040  0.24020  Biso   1.000  C
  C3       1.0000 0.96420  0.44960  0.74020  Biso   1.000  C
  C4       1.0000 0.53580  0.94960  0.75980  Biso   1.000  C
  C5       1.0000 0.88110  0.59460  0.19490  Biso   1.000  C
  C6       1.0000 0.61890  0.09460  0.30510  Biso   1.000  C
  C7       1.0000 0.11890  0.40540  0.80510  Biso   1.000  C
  C8       1.0000 0.38110  0.90540  0.69490  Biso   1.000  C
  H1       1.0000 0.75940  0.60510  0.23750  Biso   1.000  H
  H2       1.0000 0.74060  0.10510  0.26250  Biso   1.000  H
  H3       1.0000 0.24060  0.39490  0.76250  Biso   1.000  H
  H4       1.0000 0.25940  0.89490  0.73750  Biso   1.000  H
  C9       1.0000 0.90190  0.62290  0.07090  Biso   1.000  C
  C10      1.0000 0.59810  0.12290  0.42910  Biso   1.000  C
  C11      1.0000 0.09810  0.37710  0.92910  Biso   1.000  C
  C12      1.0000 0.40190  0.87710  0.57090  Biso   1.000  C
  H5       1.0000 0.79470  0.65280  0.02910  Biso   1.000  H
  H6       1.0000 0.70530  0.15280  0.47090  Biso   1.000  H
  H7       1.0000 0.20530  0.34720  0.97090  Biso   1.000  H
  H8       1.0000 0.29470  0.84720  0.52910  Biso   1.000  H
  C13      1.0000 0.07590  0.60860  0.00600  Biso   1.000  C
  C14      1.0000 0.42410  0.10860  0.49400  Biso   1.000  C
  C15      1.0000 0.92410  0.39140  0.99400  Biso   1.000  C
  C16      1.0000 0.57590  0.89140  0.50600  Biso   1.000  C
  H9       1.0000 0.08890  0.62840  0.92000  Biso   1.000  H
  H10      1.0000 0.41110  0.12840  0.58000  Biso   1.000  H
  H11      1.0000 0.91110  0.37160  0.08000  Biso   1.000  H
  H12      1.0000 0.58890  0.87160  0.42000  Biso   1.000  H
  C17      1.0000 0.22980  0.56570  0.06730  Biso   1.000  C
  C18      1.0000 0.27020  0.06570  0.43270  Biso   1.000  C
  C19      1.0000 0.77020  0.43430  0.93270  Biso   1.000  C
  C20      1.0000 0.72980  0.93430  0.56730  Biso   1.000  C
  H13      1.0000 0.35040  0.55630  0.02290  Biso   1.000  H
  H14      1.0000 0.14960  0.05630  0.47710  Biso   1.000  H
  H15      1.0000 0.64960  0.44370  0.97710  Biso   1.000  H
  H16      1.0000 0.85040  0.94370  0.52290  Biso   1.000  H
  C21      1.0000 0.21510  0.53500  0.19420  Biso   1.000  C
  C22      1.0000 0.28490  0.03500  0.30580  Biso   1.000  C
  C23      1.0000 0.78490  0.46500  0.80580  Biso   1.000  C
  C24      1.0000 0.71510  0.96500  0.69420  Biso   1.000  C
  C25      1.0000 0.38620  0.49010  0.24760  Biso   1.000  C
  C26      1.0000 0.11380  0.99010  0.25240  Biso   1.000  C
  C27      1.0000 0.61380  0.50990  0.75240  Biso   1.000  C
  C28      1.0000 0.88620  0.00990  0.74760  Biso   1.000  C
  H17      1.0000 0.50290  0.48610  0.19730  Biso   1.000  H
  H18      1.0000 0.99710  0.98610  0.30270  Biso   1.000  H
  H19      1.0000 0.49710  0.51390  0.80270  Biso   1.000  H
  H20      1.0000 0.00290  0.01390  0.69730  Biso   1.000  H
  C29      1.0000 0.53880  0.37690  0.50490  Biso   1.000  C
  C30      1.0000 0.96120  0.87690  0.99510  Biso   1.000  C
  C31      1.0000 0.46120  0.62310  0.49510  Biso   1.000  C
  C32      1.0000 0.03880  0.12310  0.00490  Biso   1.000  C
  C33      1.0000 0.70220  0.32440  0.55600  Biso   1.000  C
  C34      1.0000 0.79780  0.82440  0.94400  Biso   1.000  C
  C35      1.0000 0.29780  0.67560  0.44400  Biso   1.000  C
  C36      1.0000 0.20220  0.17560  0.05600  Biso   1.000  C
  C37      1.0000 0.66620  0.28080  0.66580  Biso   1.000  C
  C38      1.0000 0.83380  0.78080  0.83420  Biso   1.000  C
  C39      1.0000 0.33380  0.71920  0.33420  Biso   1.000  C
  C40      1.0000 0.16620  0.21920  0.16580  Biso   1.000  C
  H21      1.0000 0.54050  0.28630  0.70680  Biso   1.000  H
  H22      1.0000 0.95950  0.78630  0.79320  Biso   1.000  H
  H23      1.0000 0.45950  0.71370  0.29320  Biso   1.000  H
  H24      1.0000 0.04050  0.21370  0.20680  Biso   1.000  H
  C41      1.0000 0.81130  0.23000  0.71490  Biso   1.000  C
  C42      1.0000 0.68870  0.73000  0.78510  Biso   1.000  C
  C43      1.0000 0.18870  0.77000  0.28510  Biso   1.000  C
  C44      1.0000 0.31130  0.27000  0.21490  Biso   1.000  C
  H25      1.0000 0.78530  0.20090  0.78920  Biso   1.000  H
  H26      1.0000 0.71470  0.70090  0.71080  Biso   1.000  H
  H27      1.0000 0.21470  0.79910  0.21080  Biso   1.000  H
  H28      1.0000 0.28530  0.29910  0.28920  Biso   1.000  H
  C45      1.0000 0.99410  0.22160  0.65530  Biso   1.000  C
  C46      1.0000 0.50590  0.72160  0.84470  Biso   1.000  C
  C47      1.0000 0.00590  0.77840  0.34470  Biso   1.000  C
  C48      1.0000 0.49410  0.27840  0.15530  Biso   1.000  C
  H29      1.0000 0.09480  0.18720  0.68980  Biso   1.000  H
  H30      1.0000 0.40520  0.68720  0.81020  Biso   1.000  H
  H31      1.0000 0.90520  0.81280  0.31020  Biso   1.000  H
  H32      1.0000 0.59480  0.31280  0.18980  Biso   1.000  H
  C49      1.0000 0.03170  0.26310  0.54560  Biso   1.000  C
  C50      1.0000 0.46830  0.76310  0.95440  Biso   1.000  C
  C51      1.0000 0.96830  0.73690  0.45440  Biso   1.000  C
  C52      1.0000 0.53170  0.23690  0.04560  Biso   1.000  C
  H33      1.0000 0.15650  0.25640  0.50400  Biso   1.000  H
  H34      1.0000 0.34350  0.75640  0.99600  Biso   1.000  H
  H35      1.0000 0.84350  0.74360  0.49600  Biso   1.000  H
  H36      1.0000 0.65650  0.24360  0.00400  Biso   1.000  H
  C53      1.0000 0.88650  0.31460  0.49630  Biso   1.000  C
  C54      1.0000 0.61350  0.81460  0.00370  Biso   1.000  C
  C55      1.0000 0.11350  0.68540  0.50370  Biso   1.000  C
  C56      1.0000 0.38650  0.18540  0.99630  Biso   1.000  C
  H37      1.0000 0.81900  0.38200  0.37300  Biso   1.000  H
  H38      1.0000 0.68100  0.88200  0.12700  Biso   1.000  H
  H39      1.0000 0.18100  0.61800  0.62700  Biso   1.000  H
  H40      1.0000 0.31900  0.11800  0.87300  Biso   1.000  H
