data_image0
_cell_length_a       12.6651
_cell_length_b       6.2232
_cell_length_c       21.107
_cell_angle_alpha    90
_cell_angle_beta     101.871
_cell_angle_gamma    90

_symmetry_space_group_name_H-M    "P 1"
_symmetry_int_tables_number       1

loop_
  _symmetry_equiv_pos_as_xyz
  'x, y, z'

loop_
  _atom_site_label
  _atom_site_occupancy
  _atom_site_fract_x
  _atom_site_fract_y
  _atom_site_fract_z
  _atom_site_thermal_displace_type
  _atom_site_B_iso_or_equiv
  _atom_site_type_symbol
  Cu1      1.0000 0.00000  0.00000  0.00000  Biso   1.000  Cu
  Cu2      1.0000 0.00000  0.50000  0.50000  Biso   1.000  Cu
  O1       1.0000 0.05840  0.09870  0.08721  Biso   1.000  O
  O2       1.0000 0.94160  0.59870  0.41279  Biso   1.000  O
  O3       1.0000 0.94160  0.90130  0.91279  Biso   1.000  O
  O4       1.0000 0.05840  0.40130  0.58721  Biso   1.000  O
  N1       1.0000 0.06880  0.25190  0.96686  Biso   1.000  N
  N2       1.0000 0.93120  0.75190  0.53314  Biso   1.000  N
  N3       1.0000 0.93120  0.74810  0.03314  Biso   1.000  N
  N4       1.0000 0.06880  0.24810  0.46686  Biso   1.000  N
  C1       1.0000 0.14300  0.99840  0.11420  Biso   1.000  C
  C2       1.0000 0.85700  0.49840  0.38580  Biso   1.000  C
  C3       1.0000 0.85700  0.00160  0.88580  Biso   1.000  C
  C4       1.0000 0.14300  0.50160  0.61420  Biso   1.000  C
  O5       1.0000 0.18520  0.85130  0.08935  Biso   1.000  O
  O6       1.0000 0.81480  0.35130  0.41065  Biso   1.000  O
  O7       1.0000 0.81480  0.14870  0.91065  Biso   1.000  O
  O8       1.0000 0.18520  0.64870  0.58935  Biso   1.000  O
  N5       1.0000 0.05050  0.31300  0.90320  Biso   1.000  N
  N6       1.0000 0.94950  0.81300  0.59680  Biso   1.000  N
  N7       1.0000 0.94950  0.68700  0.09680  Biso   1.000  N
  N8       1.0000 0.05050  0.18700  0.40320  Biso   1.000  N
  C5       1.0000 0.13810  0.38460  0.00120  Biso   1.000  C
  C6       1.0000 0.86190  0.88460  0.49880  Biso   1.000  C
  C7       1.0000 0.86190  0.61540  0.99880  Biso   1.000  C
  C8       1.0000 0.13810  0.11540  0.50120  Biso   1.000  C
  H1       1.0000 0.16380  0.37730  0.04570  Biso   1.000  H
  H2       1.0000 0.83620  0.87730  0.45430  Biso   1.000  H
  H3       1.0000 0.83620  0.62270  0.95430  Biso   1.000  H
  H4       1.0000 0.16380  0.12270  0.54570  Biso   1.000  H
  O9       1.0000 0.08650  0.60380  0.26550  Biso   1.000  O
  O10      1.0000 0.91350  0.10380  0.23450  Biso   1.000  O
  O11      1.0000 0.91350  0.39620  0.73450  Biso   1.000  O
  O12      1.0000 0.08650  0.89620  0.76550  Biso   1.000  O
  N9       1.0000 0.16550  0.53120  0.96180  Biso   1.000  N
  N10      1.0000 0.83450  0.03120  0.53820  Biso   1.000  N
  N11      1.0000 0.83450  0.46880  0.03820  Biso   1.000  N
  N12      1.0000 0.16550  0.96880  0.46180  Biso   1.000  N
  C9       1.0000 0.10940  0.48390  0.90210  Biso   1.000  C
  C10      1.0000 0.89060  0.98390  0.59790  Biso   1.000  C
  C11      1.0000 0.89060  0.51610  0.09790  Biso   1.000  C
  C12      1.0000 0.10940  0.01610  0.40210  Biso   1.000  C
  H5       1.0000 0.11240  0.56270  0.86500  Biso   1.000  H
  H6       1.0000 0.88760  0.06270  0.63500  Biso   1.000  H
  H7       1.0000 0.88760  0.43730  0.13500  Biso   1.000  H
  H8       1.0000 0.11240  0.93730  0.36500  Biso   1.000  H
  O13      1.0000 0.21950  0.59430  0.34420  Biso   1.000  O
  O14      1.0000 0.78050  0.09430  0.15580  Biso   1.000  O
  O15      1.0000 0.78050  0.40570  0.65580  Biso   1.000  O
  O16      1.0000 0.21950  0.90570  0.84420  Biso   1.000  O
  N13      1.0000 0.24350  0.69150  0.98010  Biso   1.000  N
  N14      1.0000 0.75650  0.19150  0.51990  Biso   1.000  N
  N15      1.0000 0.75650  0.30850  0.01990  Biso   1.000  N
  N16      1.0000 0.24350  0.80850  0.48010  Biso   1.000  N
  H9       1.0000 0.23110  0.80330  0.00140  Biso   1.000  H
  H10      1.0000 0.76890  0.30330  0.49860  Biso   1.000  H
  H11      1.0000 0.76890  0.19670  0.99860  Biso   1.000  H
  H12      1.0000 0.23110  0.69670  0.50140  Biso   1.000  H
  C13      1.0000 0.34050  0.66080  0.96230  Biso   1.000  C
  C14      1.0000 0.65950  0.16080  0.53770  Biso   1.000  C
  C15      1.0000 0.65950  0.33920  0.03770  Biso   1.000  C
  C16      1.0000 0.34050  0.83920  0.46230  Biso   1.000  C
  O17      1.0000 0.51460  0.10170  0.34010  Biso   1.000  O
  O18      1.0000 0.48540  0.60170  0.15990  Biso   1.000  O
  O19      1.0000 0.48540  0.89830  0.65990  Biso   1.000  O
  O20      1.0000 0.51460  0.39830  0.84010  Biso   1.000  O
  N17      1.0000 0.16960  0.52500  0.29410  Biso   1.000  N
  N18      1.0000 0.83040  0.02500  0.20590  Biso   1.000  N
  N19      1.0000 0.83040  0.47500  0.70590  Biso   1.000  N
  N20      1.0000 0.16960  0.97500  0.79410  Biso   1.000  N
  C17      1.0000 0.42670  0.82210  0.99190  Biso   1.000  C
  C18      1.0000 0.57330  0.32210  0.50810  Biso   1.000  C
  C19      1.0000 0.57330  0.17790  0.00810  Biso   1.000  C
  C20      1.0000 0.42670  0.67790  0.49190  Biso   1.000  C
  H13      1.0000 0.46670  0.74620  0.03010  Biso   1.000  H
  H14      1.0000 0.53330  0.24620  0.46990  Biso   1.000  H
  H15      1.0000 0.53330  0.25380  0.96990  Biso   1.000  H
  H16      1.0000 0.46670  0.75380  0.53010  Biso   1.000  H
  O21      1.0000 0.47110  0.80070  0.29070  Biso   1.000  O
  O22      1.0000 0.52890  0.30070  0.20930  Biso   1.000  O
  O23      1.0000 0.52890  0.19930  0.70930  Biso   1.000  O
  O24      1.0000 0.47110  0.69930  0.79070  Biso   1.000  O
  N21      1.0000 0.45370  0.98640  0.30310  Biso   1.000  N
  N22      1.0000 0.54630  0.48640  0.19690  Biso   1.000  N
  N23      1.0000 0.54630  0.01360  0.69690  Biso   1.000  N
  N24      1.0000 0.45370  0.51360  0.80310  Biso   1.000  N
  C21      1.0000 0.39650  0.01640  0.01820  Biso   1.000  C
  C22      1.0000 0.60350  0.51640  0.48180  Biso   1.000  C
  C23      1.0000 0.60350  0.98360  0.98180  Biso   1.000  C
  C24      1.0000 0.39650  0.48360  0.51820  Biso   1.000  C
  H17      1.0000 0.35350  0.98220  0.05000  Biso   1.000  H
  H18      1.0000 0.64650  0.48220  0.45000  Biso   1.000  H
  H19      1.0000 0.64650  0.01780  0.95000  Biso   1.000  H
  H20      1.0000 0.35350  0.51780  0.55000  Biso   1.000  H
  H21      1.0000 0.35120  0.09790  0.98390  Biso   1.000  H
  H22      1.0000 0.64880  0.59790  0.51610  Biso   1.000  H
  H23      1.0000 0.64880  0.90210  0.01610  Biso   1.000  H
  H24      1.0000 0.35120  0.40210  0.48390  Biso   1.000  H
  O25      1.0000 0.35420  0.51660  0.92760  Biso   1.000  O
  O26      1.0000 0.64580  0.01660  0.57240  Biso   1.000  O
  O27      1.0000 0.64580  0.48340  0.07240  Biso   1.000  O
  O28      1.0000 0.35420  0.98340  0.42760  Biso   1.000  O
  C25      1.0000 0.50850  0.84160  0.94950  Biso   1.000  C
  C26      1.0000 0.49150  0.34160  0.55050  Biso   1.000  C
  C27      1.0000 0.49150  0.15840  0.05050  Biso   1.000  C
  C28      1.0000 0.50850  0.65840  0.44950  Biso   1.000  C
  H25      1.0000 0.47440  0.90340  0.90810  Biso   1.000  H
  H26      1.0000 0.52560  0.40340  0.59190  Biso   1.000  H
  H27      1.0000 0.52560  0.09660  0.09190  Biso   1.000  H
  H28      1.0000 0.47440  0.59660  0.40810  Biso   1.000  H
  H29      1.0000 0.53490  0.69980  0.94150  Biso   1.000  H
  H30      1.0000 0.46510  0.19980  0.55850  Biso   1.000  H
  H31      1.0000 0.46510  0.30020  0.05850  Biso   1.000  H
  H32      1.0000 0.53490  0.80020  0.44150  Biso   1.000  H
  C29      1.0000 0.19830  0.07800  0.18100  Biso   1.000  C
  C30      1.0000 0.80170  0.57800  0.31900  Biso   1.000  C
  C31      1.0000 0.80170  0.92200  0.81900  Biso   1.000  C
  C32      1.0000 0.19830  0.42200  0.68100  Biso   1.000  C
  C33      1.0000 0.15640  0.25270  0.20800  Biso   1.000  C
  C34      1.0000 0.84360  0.75270  0.29200  Biso   1.000  C
  C35      1.0000 0.84360  0.74730  0.79200  Biso   1.000  C
  C36      1.0000 0.15640  0.24730  0.70800  Biso   1.000  C
  H33      1.0000 0.09140  0.31400  0.18750  Biso   1.000  H
  H34      1.0000 0.90860  0.81400  0.31250  Biso   1.000  H
  H35      1.0000 0.90860  0.68600  0.81250  Biso   1.000  H
  H36      1.0000 0.09140  0.18600  0.68750  Biso   1.000  H
  C37      1.0000 0.21310  0.33480  0.26600  Biso   1.000  C
  C38      1.0000 0.78690  0.83480  0.23400  Biso   1.000  C
  C39      1.0000 0.78690  0.66520  0.73400  Biso   1.000  C
  C40      1.0000 0.21310  0.16520  0.76600  Biso   1.000  C
  C41      1.0000 0.30990  0.25250  0.29850  Biso   1.000  C
  C42      1.0000 0.69010  0.75250  0.20150  Biso   1.000  C
  C43      1.0000 0.69010  0.74750  0.70150  Biso   1.000  C
  C44      1.0000 0.30990  0.24750  0.79850  Biso   1.000  C
  H37      1.0000 0.34750  0.31170  0.33700  Biso   1.000  H
  H38      1.0000 0.65250  0.81170  0.16300  Biso   1.000  H
  H39      1.0000 0.65250  0.68830  0.66300  Biso   1.000  H
  H40      1.0000 0.34750  0.18830  0.83700  Biso   1.000  H
  C45      1.0000 0.34780  0.07580  0.27010  Biso   1.000  C
  C46      1.0000 0.65220  0.57580  0.22990  Biso   1.000  C
  C47      1.0000 0.65220  0.92420  0.72990  Biso   1.000  C
  C48      1.0000 0.34780  0.42420  0.77010  Biso   1.000  C
  C49      1.0000 0.29530  0.98620  0.21320  Biso   1.000  C
  C50      1.0000 0.70470  0.48620  0.28680  Biso   1.000  C
  C51      1.0000 0.70470  0.01380  0.78680  Biso   1.000  C
  C52      1.0000 0.29530  0.51380  0.71320  Biso   1.000  C
  H41      1.0000 0.32350  0.86650  0.19620  Biso   1.000  H
  H42      1.0000 0.67650  0.36650  0.30380  Biso   1.000  H
  H43      1.0000 0.67650  0.13350  0.80380  Biso   1.000  H
  H44      1.0000 0.32350  0.63350  0.69620  Biso   1.000  H
