data_image0
_cell_length_a       6.4908
_cell_length_b       14.5434
_cell_length_c       15.0317
_cell_angle_alpha    66.668
_cell_angle_beta     82.427
_cell_angle_gamma    80.98

_symmetry_space_group_name_H-M    "P 1"
_symmetry_int_tables_number       1

loop_
  _symmetry_equiv_pos_as_xyz
  'x, y, z'

loop_
  _atom_site_label
  _atom_site_occupancy
  _atom_site_fract_x
  _atom_site_fract_y
  _atom_site_fract_z
  _atom_site_thermal_displace_type
  _atom_site_B_iso_or_equiv
  _atom_site_type_symbol
  Cu1      1.0000 0.37096  0.68459  0.85857  Biso   1.000  Cu
  N1       1.0000 0.54930  0.57740  0.96370  Biso   1.000  N
  C1       1.0000 0.48650  0.48720  0.01780  Biso   1.000  C
  H1       1.0000 0.35500  0.47320  0.00810  Biso   1.000  H
  C2       1.0000 0.60640  0.41340  0.08760  Biso   1.000  C
  H2       1.0000 0.55800  0.34950  0.12380  Biso   1.000  H
  C3       1.0000 0.79750  0.43270  0.10460  Biso   1.000  C
  C4       1.0000 0.86030  0.52690  0.04790  Biso   1.000  C
  H3       1.0000 0.99080  0.54290  0.05650  Biso   1.000  H
  C5       1.0000 0.73480  0.59730  0.97950  Biso   1.000  C
  H4       1.0000 0.77990  0.66160  0.94220  Biso   1.000  H
  C6       1.0000 0.93090  0.35900  0.17410  Biso   1.000  C
  C7       1.0000 0.04770  0.30510  0.23290  Biso   1.000  C
  C8       1.0000 0.20300  0.24430  0.29920  Biso   1.000  C
  C9       1.0000 0.23760  0.14040  0.33420  Biso   1.000  C
  C10      1.0000 0.39160  0.08520  0.39730  Biso   1.000  C
  C11      1.0000 0.52720  0.12940  0.42910  Biso   1.000  C
  C12      1.0000 0.49490  0.23610  0.39190  Biso   1.000  C
  C13      1.0000 0.33830  0.29110  0.33040  Biso   1.000  C
  C14      1.0000 0.12700  0.06890  0.31260  Biso   1.000  C
  O1       1.0000 0.98640  0.08610  0.26170  Biso   1.000  O
  N2       1.0000 0.22460  0.97160  0.36670  Biso   1.000  N
  C15      1.0000 0.38100  0.97490  0.42070  Biso   1.000  C
  O2       1.0000 0.48590  0.90350  0.47470  Biso   1.000  O
  C16      1.0000 0.18380  0.87630  0.36250  Biso   1.000  C
  H5       1.0000 0.26910  0.82030  0.41130  Biso   1.000  H
  C17      1.0000 0.25660  0.87240  0.26390  Biso   1.000  C
  H6       1.0000 0.21960  0.80940  0.26300  Biso   1.000  H
  H7       1.0000 0.17940  0.92950  0.21390  Biso   1.000  H
  C18      1.0000 0.48870  0.87700  0.23660  Biso   1.000  C
  H8       1.0000 0.53130  0.93400  0.24630  Biso   1.000  H
  H9       1.0000 0.51870  0.88590  0.16830  Biso   1.000  H
  H10      1.0000 0.56630  0.81420  0.27760  Biso   1.000  H
  C19      1.0000 0.95780  0.85980  0.39260  Biso   1.000  C
  H11      1.0000 0.92300  0.85910  0.45830  Biso   1.000  H
  H12      1.0000 0.93440  0.79510  0.39190  Biso   1.000  H
  H13      1.0000 0.86880  0.91440  0.34720  Biso   1.000  H
  C20      1.0000 0.34460  0.39970  0.30930  Biso   1.000  C
  O3       1.0000 0.23720  0.47110  0.25870  Biso   1.000  O
  N3       1.0000 0.50160  0.40260  0.36300  Biso   1.000  N
  C21      1.0000 0.60120  0.30870  0.41110  Biso   1.000  C
  O4       1.0000 0.74660  0.28800  0.46240  Biso   1.000  O
  C22      1.0000 0.56000  0.49560  0.36940  Biso   1.000  C
  H14      1.0000 0.66160  0.47270  0.42060  Biso   1.000  H
  C23      1.0000 0.37050  0.55260  0.40270  Biso   1.000  C
  H15      1.0000 0.41700  0.60890  0.41330  Biso   1.000  H
  H16      1.0000 0.27430  0.58240  0.34990  Biso   1.000  H
  C24      1.0000 0.25640  0.49270  0.49020  Biso   1.000  C
  H17      1.0000 0.16070  0.45670  0.47410  Biso   1.000  H
  H18      1.0000 0.17600  0.53680  0.52080  Biso   1.000  H
  H19      1.0000 0.35480  0.44400  0.53510  Biso   1.000  H
  C25      1.0000 0.66960  0.55960  0.27620  Biso   1.000  C
  H20      1.0000 0.79480  0.52000  0.26030  Biso   1.000  H
  H21      1.0000 0.71050  0.61810  0.28360  Biso   1.000  H
  H22      1.0000 0.57540  0.58260  0.22390  Biso   1.000  H
  C26      1.0000 0.68240  0.07100  0.49370  Biso   1.000  C
  C27      1.0000 0.80530  0.01390  0.54950  Biso   1.000  C
  C28      1.0000 0.93800  0.93920  0.61880  Biso   1.000  C
  C29      1.0000 0.12940  0.95980  0.63560  Biso   1.000  C
  H23      1.0000 0.17540  0.02450  0.60160  Biso   1.000  H
  C30      1.0000 0.24930  0.88430  0.70250  Biso   1.000  C
  H24      1.0000 0.38010  0.89820  0.71300  Biso   1.000  H
  N4       1.0000 0.19140  0.79110  0.75410  Biso   1.000  N
  C31      1.0000 0.01040  0.77210  0.73590  Biso   1.000  C
  H25      1.0000 0.96790  0.70690  0.77160  Biso   1.000  H
  C32      1.0000 0.88030  0.84200  0.66760  Biso   1.000  C
  H26      1.0000 0.75610  0.82420  0.65460  Biso   1.000  H
  O5       1.0000 0.21970  0.57650  0.85600  Biso   1.000  O
  C33      1.0000 0.27230  0.52150  0.80700  Biso   1.000  C
  C34      1.0000 0.42740  0.52530  0.73600  Biso   1.000  C
  H27      1.0000 0.43940  0.47810  0.70590  Biso   1.000  H
  C35      1.0000 0.57290  0.59810  0.70520  Biso   1.000  C
  O6       1.0000 0.59150  0.66160  0.73660  Biso   1.000  O
  C36      1.0000 0.12840  0.43590  0.84020  Biso   1.000  C
  F1       1.0000 0.16500  0.38180  0.78430  Biso   1.000  F
  F2       1.0000 0.93030  0.47370  0.83540  Biso   1.000  F
  F3       1.0000 0.15620  0.37430  0.93000  Biso   1.000  F
  C37      1.0000 0.72490  0.59860  0.61680  Biso   1.000  C
  F4       1.0000 0.64240  0.66180  0.53450  Biso   1.000  F
  F5       1.0000 0.76800  0.51020  0.61020  Biso   1.000  F
  F6       1.0000 0.90440  0.63140  0.61710  Biso   1.000  F
  O7       1.0000 0.14520  0.70840  0.97720  Biso   1.000  O
  C38      1.0000 0.15430  0.77580  0.00650  Biso   1.000  C
  C39      1.0000 0.29910  0.84770  0.97620  Biso   1.000  C
  H28      1.0000 0.28030  0.89720  0.00390  Biso   1.000  H
  C40      1.0000 0.46620  0.84970  0.90860  Biso   1.000  C
  O8       1.0000 0.52050  0.79270  0.86180  Biso   1.000  O
  C41      1.0000 0.98770  0.77850  0.08950  Biso   1.000  C
  F7       1.0000 0.80660  0.75310  0.07770  Biso   1.000  F
  F8       1.0000 0.94470  0.86940  0.09370  Biso   1.000  F
  F9       1.0000 0.05350  0.71520  0.17400  Biso   1.000  F
  C42      1.0000 0.60200  0.93600  0.87890  Biso   1.000  C
  F10      1.0000 0.80750  0.90260  0.87490  Biso   1.000  F
  F11      1.0000 0.57240  0.98660  0.93580  Biso   1.000  F
  F12      1.0000 0.56500  0.00090  0.78810  Biso   1.000  F
  Cl1      1.0000 0.50230  0.16593  0.11430  Biso   1.000  Cl
  C43      1.0000 0.74220  0.10710  0.06460  Biso   1.000  C
  H29      1.0000 0.81190  0.05000  0.11740  Biso   1.000  H
  H30      1.0000 0.70620  0.08210  0.01680  Biso   1.000  H
  C44      1.0000 0.86920  0.18220  0.02080  Biso   1.000  C
  H31      1.0000 0.91380  0.20420  0.06900  Biso   1.000  H
  H32      1.0000 0.79720  0.24110  0.97040  Biso   1.000  H
  Cl2      1.0000 0.09720  0.12250  0.96560  Biso   1.000  Cl
  Cl3      1.0000 0.64300  0.24950  0.76330  Biso   1.000  Cl
  C45      1.0000 0.86070  0.19240  0.70670  Biso   1.000  C
  H33      1.0000 0.92950  0.13170  0.75650  Biso   1.000  H
  H34      1.0000 0.80990  0.17170  0.65890  Biso   1.000  H
  C46      1.0000 0.00410  0.26350  0.65980  Biso   1.000  C
  H35      1.0000 0.04310  0.28940  0.70630  Biso   1.000  H
  H36      1.0000 0.93910  0.32110  0.60580  Biso   1.000  H
  Cl4      1.0000 0.23240  0.20523  0.61380  Biso   1.000  Cl
