data_image0
_cell_length_a       32.937
_cell_length_b       32.937
_cell_length_c       13.522
_cell_angle_alpha    90
_cell_angle_beta     90
_cell_angle_gamma    120

_symmetry_space_group_name_H-M    "P 1"
_symmetry_int_tables_number       1

loop_
  _symmetry_equiv_pos_as_xyz
  'x, y, z'

loop_
  _atom_site_label
  _atom_site_occupancy
  _atom_site_fract_x
  _atom_site_fract_y
  _atom_site_fract_z
  _atom_site_thermal_displace_type
  _atom_site_B_iso_or_equiv
  _atom_site_type_symbol
  Cu1      1.0000 0.16667  0.83333  0.33333  Biso   1.000  Cu
  Cu2      1.0000 0.16667  0.33334  0.33333  Biso   1.000  Cu
  Cu3      1.0000 0.66666  0.83333  0.33333  Biso   1.000  Cu
  Cu4      1.0000 0.83334  0.16666  0.66666  Biso   1.000  Cu
  Cu5      1.0000 0.83334  0.66667  0.66666  Biso   1.000  Cu
  Cu6      1.0000 0.33333  0.16666  0.66666  Biso   1.000  Cu
  Cu7      1.0000 0.50000  0.50000  1.00000  Biso   1.000  Cu
  Cu8      1.0000 0.50000  0.00001  1.00000  Biso   1.000  Cu
  Cu9      1.0000 0.99999  0.50000  1.00000  Biso   1.000  Cu
  Cu10     1.0000 0.21098  0.75765  0.38535  Biso   1.000  Cu
  Cu11     1.0000 0.24235  0.45333  0.38535  Biso   1.000  Cu
  Cu12     1.0000 0.54667  0.78902  0.38535  Biso   1.000  Cu
  Cu13     1.0000 0.87765  0.09098  0.71868  Biso   1.000  Cu
  Cu14     1.0000 0.90902  0.78666  0.71868  Biso   1.000  Cu
  Cu15     1.0000 0.21334  0.12235  0.71868  Biso   1.000  Cu
  Cu16     1.0000 0.54431  0.42432  0.05202  Biso   1.000  Cu
  Cu17     1.0000 0.57568  0.12000  0.05202  Biso   1.000  Cu
  Cu18     1.0000 0.88000  0.45569  0.05202  Biso   1.000  Cu
  Cu19     1.0000 0.78902  0.24235  0.61465  Biso   1.000  Cu
  Cu20     1.0000 0.75765  0.54667  0.61465  Biso   1.000  Cu
  Cu21     1.0000 0.45333  0.21098  0.61465  Biso   1.000  Cu
  Cu22     1.0000 0.45569  0.57568  0.94798  Biso   1.000  Cu
  Cu23     1.0000 0.42432  0.88000  0.94798  Biso   1.000  Cu
  Cu24     1.0000 0.12000  0.54431  0.94798  Biso   1.000  Cu
  Cu25     1.0000 0.12235  0.90902  0.28132  Biso   1.000  Cu
  Cu26     1.0000 0.09098  0.21334  0.28132  Biso   1.000  Cu
  Cu27     1.0000 0.78666  0.87765  0.28132  Biso   1.000  Cu
  O1       1.0000 0.23001  0.83079  0.35910  Biso   1.000  O
  O2       1.0000 0.16921  0.39922  0.35910  Biso   1.000  O
  O3       1.0000 0.60078  0.76999  0.35910  Biso   1.000  O
  O4       1.0000 0.89668  0.16412  0.69243  Biso   1.000  O
  O5       1.0000 0.83588  0.73255  0.69243  Biso   1.000  O
  O6       1.0000 0.26745  0.10332  0.69243  Biso   1.000  O
  O7       1.0000 0.56334  0.49746  0.02577  Biso   1.000  O
  O8       1.0000 0.50254  0.06589  0.02577  Biso   1.000  O
  O9       1.0000 0.93411  0.43666  0.02577  Biso   1.000  O
  O10      1.0000 0.76999  0.16921  0.64090  Biso   1.000  O
  O11      1.0000 0.83079  0.60078  0.64090  Biso   1.000  O
  O12      1.0000 0.39922  0.23001  0.64090  Biso   1.000  O
  O13      1.0000 0.43666  0.50254  0.97423  Biso   1.000  O
  O14      1.0000 0.49746  0.93411  0.97423  Biso   1.000  O
  O15      1.0000 0.06589  0.56334  0.97423  Biso   1.000  O
  O16      1.0000 0.10332  0.83588  0.30757  Biso   1.000  O
  O17      1.0000 0.16412  0.26745  0.30757  Biso   1.000  O
  O18      1.0000 0.73255  0.89668  0.30757  Biso   1.000  O
  O19      1.0000 0.25070  0.77940  0.51790  Biso   1.000  O
  O20      1.0000 0.22060  0.47130  0.51790  Biso   1.000  O
  O21      1.0000 0.52870  0.74930  0.51790  Biso   1.000  O
  O22      1.0000 0.91737  0.11273  0.85123  Biso   1.000  O
  O23      1.0000 0.88727  0.80463  0.85123  Biso   1.000  O
  O24      1.0000 0.19537  0.08263  0.85123  Biso   1.000  O
  O25      1.0000 0.58403  0.44607  0.18457  Biso   1.000  O
  O26      1.0000 0.55393  0.13797  0.18457  Biso   1.000  O
  O27      1.0000 0.86203  0.41597  0.18457  Biso   1.000  O
  O28      1.0000 0.74930  0.22060  0.48210  Biso   1.000  O
  O29      1.0000 0.77940  0.52870  0.48210  Biso   1.000  O
  O30      1.0000 0.47130  0.25070  0.48210  Biso   1.000  O
  O31      1.0000 0.41597  0.55393  0.81543  Biso   1.000  O
  O32      1.0000 0.44607  0.86203  0.81543  Biso   1.000  O
  O33      1.0000 0.13797  0.58403  0.81543  Biso   1.000  O
  O34      1.0000 0.08263  0.88727  0.14877  Biso   1.000  O
  O35      1.0000 0.11273  0.19537  0.14877  Biso   1.000  O
  O36      1.0000 0.80463  0.91737  0.14877  Biso   1.000  O
  H1       1.0000 0.23982  0.77368  0.57696  Biso   1.000  H
  H2       1.0000 0.22632  0.46614  0.57696  Biso   1.000  H
  H3       1.0000 0.53386  0.76018  0.57696  Biso   1.000  H
  H4       1.0000 0.90649  0.10701  0.91029  Biso   1.000  H
  H5       1.0000 0.89299  0.79947  0.91029  Biso   1.000  H
  H6       1.0000 0.20053  0.09351  0.91029  Biso   1.000  H
  H7       1.0000 0.57315  0.44035  0.24363  Biso   1.000  H
  H8       1.0000 0.55965  0.13281  0.24363  Biso   1.000  H
  H9       1.0000 0.86719  0.42685  0.24363  Biso   1.000  H
  H10      1.0000 0.76018  0.22632  0.42304  Biso   1.000  H
  H11      1.0000 0.77368  0.53386  0.42304  Biso   1.000  H
  H12      1.0000 0.46614  0.23982  0.42304  Biso   1.000  H
  H13      1.0000 0.42685  0.55965  0.75637  Biso   1.000  H
  H14      1.0000 0.44035  0.86719  0.75637  Biso   1.000  H
  H15      1.0000 0.13281  0.57315  0.75637  Biso   1.000  H
  H16      1.0000 0.09351  0.89299  0.08971  Biso   1.000  H
  H17      1.0000 0.10701  0.20053  0.08971  Biso   1.000  H
  H18      1.0000 0.79947  0.90649  0.08971  Biso   1.000  H
  H19      1.0000 0.28044  0.79499  0.52024  Biso   1.000  H
  H20      1.0000 0.20501  0.48545  0.52024  Biso   1.000  H
  H21      1.0000 0.51455  0.71956  0.52024  Biso   1.000  H
  H22      1.0000 0.94711  0.12832  0.85357  Biso   1.000  H
  H23      1.0000 0.87168  0.81878  0.85357  Biso   1.000  H
  H24      1.0000 0.18122  0.05289  0.85357  Biso   1.000  H
  H25      1.0000 0.61377  0.46166  0.18691  Biso   1.000  H
  H26      1.0000 0.53834  0.15212  0.18691  Biso   1.000  H
  H27      1.0000 0.84788  0.38623  0.18691  Biso   1.000  H
  H28      1.0000 0.71956  0.20501  0.47976  Biso   1.000  H
  H29      1.0000 0.79499  0.51455  0.47976  Biso   1.000  H
  H30      1.0000 0.48545  0.28044  0.47976  Biso   1.000  H
  H31      1.0000 0.38623  0.53834  0.81309  Biso   1.000  H
  H32      1.0000 0.46166  0.84788  0.81309  Biso   1.000  H
  H33      1.0000 0.15212  0.61377  0.81309  Biso   1.000  H
  H34      1.0000 0.05289  0.87168  0.14643  Biso   1.000  H
  H35      1.0000 0.12832  0.18122  0.14643  Biso   1.000  H
  H36      1.0000 0.81878  0.94711  0.14643  Biso   1.000  H
  O37      1.0000 0.27241  0.80206  0.30320  Biso   1.000  O
  O38      1.0000 0.19794  0.47035  0.30320  Biso   1.000  O
  O39      1.0000 0.52965  0.72759  0.30320  Biso   1.000  O
  O40      1.0000 0.93908  0.13539  0.63653  Biso   1.000  O
  O41      1.0000 0.86461  0.80368  0.63653  Biso   1.000  O
  O42      1.0000 0.19632  0.06092  0.63653  Biso   1.000  O
  O43      1.0000 0.60574  0.46873  0.96987  Biso   1.000  O
  O44      1.0000 0.53127  0.13702  0.96987  Biso   1.000  O
  O45      1.0000 0.86298  0.39426  0.96987  Biso   1.000  O
  O46      1.0000 0.72759  0.19794  0.69680  Biso   1.000  O
  O47      1.0000 0.80206  0.52965  0.69680  Biso   1.000  O
  O48      1.0000 0.47035  0.27241  0.69680  Biso   1.000  O
  O49      1.0000 0.39426  0.53127  0.03013  Biso   1.000  O
  O50      1.0000 0.46873  0.86298  0.03013  Biso   1.000  O
  O51      1.0000 0.13702  0.60574  0.03013  Biso   1.000  O
  O52      1.0000 0.06092  0.86461  0.36347  Biso   1.000  O
  O53      1.0000 0.13539  0.19632  0.36347  Biso   1.000  O
  O54      1.0000 0.80368  0.93908  0.36347  Biso   1.000  O
  O55      1.0000 0.21450  0.69740  0.38870  Biso   1.000  O
  O56      1.0000 0.30260  0.51710  0.38870  Biso   1.000  O
  O57      1.0000 0.48290  0.78550  0.38870  Biso   1.000  O
  O58      1.0000 0.88117  0.03073  0.72203  Biso   1.000  O
  O59      1.0000 0.96927  0.85043  0.72203  Biso   1.000  O
  O60      1.0000 0.14957  0.11883  0.72203  Biso   1.000  O
  O61      1.0000 0.54783  0.36407  0.05537  Biso   1.000  O
  O62      1.0000 0.63593  0.18377  0.05537  Biso   1.000  O
  O63      1.0000 0.81623  0.45217  0.05537  Biso   1.000  O
  O64      1.0000 0.78550  0.30260  0.61130  Biso   1.000  O
  O65      1.0000 0.69740  0.48290  0.61130  Biso   1.000  O
  O66      1.0000 0.51710  0.21450  0.61130  Biso   1.000  O
  O67      1.0000 0.45217  0.63593  0.94463  Biso   1.000  O
  O68      1.0000 0.36407  0.81623  0.94463  Biso   1.000  O
  O69      1.0000 0.18377  0.54783  0.94463  Biso   1.000  O
  O70      1.0000 0.11883  0.96927  0.27797  Biso   1.000  O
  O71      1.0000 0.03073  0.14957  0.27797  Biso   1.000  O
  O72      1.0000 0.85043  0.88117  0.27797  Biso   1.000  O
  H37      1.0000 0.21498  0.68318  0.44118  Biso   1.000  H
  H38      1.0000 0.31682  0.53180  0.44118  Biso   1.000  H
  H39      1.0000 0.46820  0.78502  0.44118  Biso   1.000  H
  H40      1.0000 0.88165  0.01651  0.77451  Biso   1.000  H
  H41      1.0000 0.98349  0.86513  0.77451  Biso   1.000  H
  H42      1.0000 0.13487  0.11835  0.77451  Biso   1.000  H
  H43      1.0000 0.54831  0.34985  0.10785  Biso   1.000  H
  H44      1.0000 0.65015  0.19847  0.10785  Biso   1.000  H
  H45      1.0000 0.80153  0.45169  0.10785  Biso   1.000  H
  H46      1.0000 0.78502  0.31682  0.55882  Biso   1.000  H
  H47      1.0000 0.68318  0.46820  0.55882  Biso   1.000  H
  H48      1.0000 0.53180  0.21498  0.55882  Biso   1.000  H
  H49      1.0000 0.45169  0.65015  0.89215  Biso   1.000  H
  H50      1.0000 0.34985  0.80153  0.89215  Biso   1.000  H
  H51      1.0000 0.19847  0.54831  0.89215  Biso   1.000  H
  H52      1.0000 0.11835  0.98349  0.22549  Biso   1.000  H
  H53      1.0000 0.01651  0.13487  0.22549  Biso   1.000  H
  H54      1.0000 0.86513  0.88165  0.22549  Biso   1.000  H
  H55      1.0000 0.21499  0.68241  0.33749  Biso   1.000  H
  H56      1.0000 0.31759  0.53258  0.33749  Biso   1.000  H
  H57      1.0000 0.46742  0.78501  0.33749  Biso   1.000  H
  H58      1.0000 0.88166  0.01574  0.67082  Biso   1.000  H
  H59      1.0000 0.98426  0.86591  0.67082  Biso   1.000  H
  H60      1.0000 0.13409  0.11834  0.67082  Biso   1.000  H
  H61      1.0000 0.54832  0.34908  0.00416  Biso   1.000  H
  H62      1.0000 0.65092  0.19925  0.00416  Biso   1.000  H
  H63      1.0000 0.80075  0.45168  0.00416  Biso   1.000  H
  H64      1.0000 0.78501  0.31759  0.66251  Biso   1.000  H
  H65      1.0000 0.68241  0.46742  0.66251  Biso   1.000  H
  H66      1.0000 0.53258  0.21499  0.66251  Biso   1.000  H
  H67      1.0000 0.45168  0.65092  0.99584  Biso   1.000  H
  H68      1.0000 0.34908  0.80075  0.99584  Biso   1.000  H
  H69      1.0000 0.19925  0.54832  0.99584  Biso   1.000  H
  H70      1.0000 0.11834  0.98426  0.32918  Biso   1.000  H
  H71      1.0000 0.01574  0.13409  0.32918  Biso   1.000  H
  H72      1.0000 0.86591  0.88166  0.32918  Biso   1.000  H
  O73      1.0000 0.40240  0.89500  0.07530  Biso   1.000  O
  O74      1.0000 0.10500  0.50740  0.07530  Biso   1.000  O
  O75      1.0000 0.49260  0.59760  0.07530  Biso   1.000  O
  O76      1.0000 0.06907  0.22833  0.40863  Biso   1.000  O
  O77      1.0000 0.77167  0.84073  0.40863  Biso   1.000  O
  O78      1.0000 0.15927  0.93093  0.40863  Biso   1.000  O
  O79      1.0000 0.73573  0.56167  0.74197  Biso   1.000  O
  O80      1.0000 0.43833  0.17407  0.74197  Biso   1.000  O
  O81      1.0000 0.82593  0.26427  0.74197  Biso   1.000  O
  O82      1.0000 0.59760  0.10500  0.92470  Biso   1.000  O
  O83      1.0000 0.89500  0.49260  0.92470  Biso   1.000  O
  O84      1.0000 0.50740  0.40240  0.92470  Biso   1.000  O
  O85      1.0000 0.26427  0.43833  0.25803  Biso   1.000  O
  O86      1.0000 0.56167  0.82593  0.25803  Biso   1.000  O
  O87      1.0000 0.17407  0.73573  0.25803  Biso   1.000  O
  O88      1.0000 0.93093  0.77167  0.59137  Biso   1.000  O
  O89      1.0000 0.22833  0.15927  0.59137  Biso   1.000  O
  O90      1.0000 0.84073  0.06907  0.59137  Biso   1.000  O
  O91      1.0000 0.44287  0.97207  0.09310  Biso   1.000  O
  O92      1.0000 0.02793  0.47080  0.09310  Biso   1.000  O
  O93      1.0000 0.52920  0.55713  0.09310  Biso   1.000  O
  O94      1.0000 0.10954  0.30540  0.42643  Biso   1.000  O
  O95      1.0000 0.69460  0.80413  0.42643  Biso   1.000  O
  O96      1.0000 0.19587  0.89046  0.42643  Biso   1.000  O
  O97      1.0000 0.77620  0.63874  0.75977  Biso   1.000  O
  O98      1.0000 0.36126  0.13747  0.75977  Biso   1.000  O
  O99      1.0000 0.86253  0.22380  0.75977  Biso   1.000  O
  O100     1.0000 0.55713  0.02793  0.90690  Biso   1.000  O
  O101     1.0000 0.97207  0.52920  0.90690  Biso   1.000  O
  O102     1.0000 0.47080  0.44287  0.90690  Biso   1.000  O
  O103     1.0000 0.22380  0.36126  0.24023  Biso   1.000  O
  O104     1.0000 0.63874  0.86253  0.24023  Biso   1.000  O
  O105     1.0000 0.13747  0.77620  0.24023  Biso   1.000  O
  O106     1.0000 0.89046  0.69460  0.57357  Biso   1.000  O
  O107     1.0000 0.30540  0.19587  0.57357  Biso   1.000  O
  O108     1.0000 0.80413  0.10954  0.57357  Biso   1.000  O
  O109     1.0000 0.34330  0.13461  0.54150  Biso   1.000  O
  O110     1.0000 0.86539  0.20869  0.54150  Biso   1.000  O
  O111     1.0000 0.79131  0.65670  0.54150  Biso   1.000  O
  O112     1.0000 0.00997  0.46794  0.87483  Biso   1.000  O
  O113     1.0000 0.53206  0.54202  0.87483  Biso   1.000  O
  O114     1.0000 0.45798  0.99003  0.87483  Biso   1.000  O
  O115     1.0000 0.67663  0.80128  0.20817  Biso   1.000  O
  O116     1.0000 0.19872  0.87536  0.20817  Biso   1.000  O
  O117     1.0000 0.12464  0.32337  0.20817  Biso   1.000  O
  O118     1.0000 0.65670  0.86539  0.45850  Biso   1.000  O
  O119     1.0000 0.13461  0.79131  0.45850  Biso   1.000  O
  O120     1.0000 0.20869  0.34330  0.45850  Biso   1.000  O
  O121     1.0000 0.32337  0.19872  0.79183  Biso   1.000  O
  O122     1.0000 0.80128  0.12464  0.79183  Biso   1.000  O
  O123     1.0000 0.87536  0.67663  0.79183  Biso   1.000  O
  O124     1.0000 0.99003  0.53206  0.12517  Biso   1.000  O
  O125     1.0000 0.46794  0.45798  0.12517  Biso   1.000  O
  O126     1.0000 0.54202  0.00997  0.12517  Biso   1.000  O
  O127     1.0000 0.41700  0.15440  0.53390  Biso   1.000  O
  O128     1.0000 0.84560  0.26260  0.53390  Biso   1.000  O
  O129     1.0000 0.73740  0.58300  0.53390  Biso   1.000  O
  O130     1.0000 0.08367  0.48773  0.86723  Biso   1.000  O
  O131     1.0000 0.51227  0.59593  0.86723  Biso   1.000  O
  O132     1.0000 0.40407  0.91633  0.86723  Biso   1.000  O
  O133     1.0000 0.75033  0.82107  0.20057  Biso   1.000  O
  O134     1.0000 0.17893  0.92927  0.20057  Biso   1.000  O
  O135     1.0000 0.07073  0.24967  0.20057  Biso   1.000  O
  O136     1.0000 0.58300  0.84560  0.46610  Biso   1.000  O
  O137     1.0000 0.15440  0.73740  0.46610  Biso   1.000  O
  O138     1.0000 0.26260  0.41700  0.46610  Biso   1.000  O
  O139     1.0000 0.24967  0.17893  0.79943  Biso   1.000  O
  O140     1.0000 0.82107  0.07073  0.79943  Biso   1.000  O
  O141     1.0000 0.92927  0.75033  0.79943  Biso   1.000  O
  O142     1.0000 0.91633  0.51227  0.13277  Biso   1.000  O
  O143     1.0000 0.48773  0.40407  0.13277  Biso   1.000  O
  O144     1.0000 0.59593  0.08367  0.13277  Biso   1.000  O
  C1       1.0000 0.39280  0.04000  0.37320  Biso   1.000  C
  C2       1.0000 0.96000  0.35280  0.37320  Biso   1.000  C
  C3       1.0000 0.64720  0.60720  0.37320  Biso   1.000  C
  C4       1.0000 0.05947  0.37333  0.70653  Biso   1.000  C
  C5       1.0000 0.62667  0.68613  0.70653  Biso   1.000  C
  C6       1.0000 0.31387  0.94053  0.70653  Biso   1.000  C
  C7       1.0000 0.72613  0.70667  0.03987  Biso   1.000  C
  C8       1.0000 0.29333  0.01947  0.03987  Biso   1.000  C
  C9       1.0000 0.98053  0.27387  0.03987  Biso   1.000  C
  C10      1.0000 0.60720  0.96000  0.62680  Biso   1.000  C
  C11      1.0000 0.04000  0.64720  0.62680  Biso   1.000  C
  C12      1.0000 0.35280  0.39280  0.62680  Biso   1.000  C
  C13      1.0000 0.27387  0.29333  0.96013  Biso   1.000  C
  C14      1.0000 0.70667  0.98053  0.96013  Biso   1.000  C
  C15      1.0000 0.01947  0.72613  0.96013  Biso   1.000  C
  C16      1.0000 0.94053  0.62667  0.29347  Biso   1.000  C
  C17      1.0000 0.37333  0.31387  0.29347  Biso   1.000  C
  C18      1.0000 0.68613  0.05947  0.29347  Biso   1.000  C
  H73      1.0000 0.41745  0.03497  0.35837  Biso   1.000  H
  H74      1.0000 0.96503  0.38248  0.35837  Biso   1.000  H
  H75      1.0000 0.61752  0.58255  0.35837  Biso   1.000  H
  H76      1.0000 0.08412  0.36830  0.69170  Biso   1.000  H
  H77      1.0000 0.63170  0.71581  0.69170  Biso   1.000  H
  H78      1.0000 0.28419  0.91588  0.69170  Biso   1.000  H
  H79      1.0000 0.75078  0.70164  0.02504  Biso   1.000  H
  H80      1.0000 0.29836  0.04915  0.02504  Biso   1.000  H
  H81      1.0000 0.95085  0.24922  0.02504  Biso   1.000  H
  H82      1.0000 0.58255  0.96503  0.64163  Biso   1.000  H
  H83      1.0000 0.03497  0.61752  0.64163  Biso   1.000  H
  H84      1.0000 0.38248  0.41745  0.64163  Biso   1.000  H
  H85      1.0000 0.24922  0.29836  0.97496  Biso   1.000  H
  H86      1.0000 0.70164  0.95085  0.97496  Biso   1.000  H
  H87      1.0000 0.04915  0.75078  0.97496  Biso   1.000  H
  H88      1.0000 0.91588  0.63170  0.30830  Biso   1.000  H
  H89      1.0000 0.36830  0.28419  0.30830  Biso   1.000  H
  H90      1.0000 0.71581  0.08412  0.30830  Biso   1.000  H
  C19      1.0000 0.26690  0.83620  0.31450  Biso   1.000  C
  C20      1.0000 0.16380  0.43070  0.31450  Biso   1.000  C
  C21      1.0000 0.56930  0.73310  0.31450  Biso   1.000  C
  C22      1.0000 0.93357  0.16953  0.64783  Biso   1.000  C
  C23      1.0000 0.83047  0.76403  0.64783  Biso   1.000  C
  C24      1.0000 0.23597  0.06643  0.64783  Biso   1.000  C
  C25      1.0000 0.60023  0.50287  0.98117  Biso   1.000  C
  C26      1.0000 0.49713  0.09737  0.98117  Biso   1.000  C
  C27      1.0000 0.90263  0.39977  0.98117  Biso   1.000  C
  C28      1.0000 0.73310  0.16380  0.68550  Biso   1.000  C
  C29      1.0000 0.83620  0.56930  0.68550  Biso   1.000  C
  C30      1.0000 0.43070  0.26690  0.68550  Biso   1.000  C
  C31      1.0000 0.39977  0.49713  0.01883  Biso   1.000  C
  C32      1.0000 0.50287  0.90263  0.01883  Biso   1.000  C
  C33      1.0000 0.09737  0.60023  0.01883  Biso   1.000  C
  C34      1.0000 0.06643  0.83047  0.35217  Biso   1.000  C
  C35      1.0000 0.16953  0.23597  0.35217  Biso   1.000  C
  C36      1.0000 0.76403  0.93357  0.35217  Biso   1.000  C
  C37      1.0000 0.30320  0.88300  0.28020  Biso   1.000  C
  C38      1.0000 0.11700  0.42020  0.28020  Biso   1.000  C
  C39      1.0000 0.57980  0.69680  0.28020  Biso   1.000  C
  C40      1.0000 0.96987  0.21633  0.61353  Biso   1.000  C
  C41      1.0000 0.78367  0.75353  0.61353  Biso   1.000  C
  C42      1.0000 0.24647  0.03013  0.61353  Biso   1.000  C
  C43      1.0000 0.63653  0.54967  0.94687  Biso   1.000  C
  C44      1.0000 0.45033  0.08687  0.94687  Biso   1.000  C
  C45      1.0000 0.91313  0.36347  0.94687  Biso   1.000  C
  C46      1.0000 0.69680  0.11700  0.71980  Biso   1.000  C
  C47      1.0000 0.88300  0.57980  0.71980  Biso   1.000  C
  C48      1.0000 0.42020  0.30320  0.71980  Biso   1.000  C
  C49      1.0000 0.36347  0.45033  0.05313  Biso   1.000  C
  C50      1.0000 0.54967  0.91313  0.05313  Biso   1.000  C
  C51      1.0000 0.08687  0.63653  0.05313  Biso   1.000  C
  C52      1.0000 0.03013  0.78367  0.38647  Biso   1.000  C
  C53      1.0000 0.21633  0.24647  0.38647  Biso   1.000  C
  C54      1.0000 0.75353  0.96987  0.38647  Biso   1.000  C
  C55      1.0000 0.33730  0.88550  0.21640  Biso   1.000  C
  C56      1.0000 0.11450  0.45180  0.21640  Biso   1.000  C
  C57      1.0000 0.54820  0.66270  0.21640  Biso   1.000  C
  C58      1.0000 0.00397  0.21883  0.54973  Biso   1.000  C
  C59      1.0000 0.78117  0.78513  0.54973  Biso   1.000  C
  C60      1.0000 0.21487  0.99603  0.54973  Biso   1.000  C
  C61      1.0000 0.67063  0.55217  0.88307  Biso   1.000  C
  C62      1.0000 0.44783  0.11847  0.88307  Biso   1.000  C
  C63      1.0000 0.88153  0.32937  0.88307  Biso   1.000  C
  C64      1.0000 0.66270  0.11450  0.78360  Biso   1.000  C
  C65      1.0000 0.88550  0.54820  0.78360  Biso   1.000  C
  C66      1.0000 0.45180  0.33730  0.78360  Biso   1.000  C
  C67      1.0000 0.32937  0.44783  0.11693  Biso   1.000  C
  C68      1.0000 0.55217  0.88153  0.11693  Biso   1.000  C
  C69      1.0000 0.11847  0.67063  0.11693  Biso   1.000  C
  C70      1.0000 0.99603  0.78117  0.45027  Biso   1.000  C
  C71      1.0000 0.21883  0.21487  0.45027  Biso   1.000  C
  C72      1.0000 0.78513  0.00397  0.45027  Biso   1.000  C
  H91      1.0000 0.33611  0.85834  0.19331  Biso   1.000  H
  H92      1.0000 0.14166  0.47777  0.19331  Biso   1.000  H
  H93      1.0000 0.52223  0.66389  0.19331  Biso   1.000  H
  H94      1.0000 0.00278  0.19167  0.52664  Biso   1.000  H
  H95      1.0000 0.80833  0.81110  0.52664  Biso   1.000  H
  H96      1.0000 0.18890  0.99722  0.52664  Biso   1.000  H
  H97      1.0000 0.66944  0.52501  0.85998  Biso   1.000  H
  H98      1.0000 0.47499  0.14444  0.85998  Biso   1.000  H
  H99      1.0000 0.85556  0.33056  0.85998  Biso   1.000  H
  H100     1.0000 0.66389  0.14166  0.80669  Biso   1.000  H
  H101     1.0000 0.85834  0.52223  0.80669  Biso   1.000  H
  H102     1.0000 0.47777  0.33611  0.80669  Biso   1.000  H
  H103     1.0000 0.33056  0.47499  0.14002  Biso   1.000  H
  H104     1.0000 0.52501  0.85556  0.14002  Biso   1.000  H
  H105     1.0000 0.14444  0.66944  0.14002  Biso   1.000  H
  H106     1.0000 0.99722  0.80833  0.47336  Biso   1.000  H
  H107     1.0000 0.19167  0.18890  0.47336  Biso   1.000  H
  H108     1.0000 0.81110  0.00278  0.47336  Biso   1.000  H
  C73      1.0000 0.37360  0.92950  0.18720  Biso   1.000  C
  C74      1.0000 0.07050  0.44410  0.18720  Biso   1.000  C
  C75      1.0000 0.55590  0.62640  0.18720  Biso   1.000  C
  C76      1.0000 0.04027  0.26283  0.52053  Biso   1.000  C
  C77      1.0000 0.73717  0.77743  0.52053  Biso   1.000  C
  C78      1.0000 0.22257  0.95973  0.52053  Biso   1.000  C
  C79      1.0000 0.70693  0.59617  0.85387  Biso   1.000  C
  C80      1.0000 0.40383  0.11077  0.85387  Biso   1.000  C
  C81      1.0000 0.88923  0.29307  0.85387  Biso   1.000  C
  C82      1.0000 0.62640  0.07050  0.81280  Biso   1.000  C
  C83      1.0000 0.92950  0.55590  0.81280  Biso   1.000  C
  C84      1.0000 0.44410  0.37360  0.81280  Biso   1.000  C
  C85      1.0000 0.29307  0.40383  0.14613  Biso   1.000  C
  C86      1.0000 0.59617  0.88923  0.14613  Biso   1.000  C
  C87      1.0000 0.11077  0.70693  0.14613  Biso   1.000  C
  C88      1.0000 0.95973  0.73717  0.47947  Biso   1.000  C
  C89      1.0000 0.26283  0.22257  0.47947  Biso   1.000  C
  C90      1.0000 0.77743  0.04027  0.47947  Biso   1.000  C
  C91      1.0000 0.41010  0.93270  0.11470  Biso   1.000  C
  C92      1.0000 0.06730  0.47740  0.11470  Biso   1.000  C
  C93      1.0000 0.52260  0.58990  0.11470  Biso   1.000  C
  C94      1.0000 0.07677  0.26603  0.44803  Biso   1.000  C
  C95      1.0000 0.73397  0.81073  0.44803  Biso   1.000  C
  C96      1.0000 0.18927  0.92323  0.44803  Biso   1.000  C
  C97      1.0000 0.74343  0.59937  0.78137  Biso   1.000  C
  C98      1.0000 0.40063  0.14407  0.78137  Biso   1.000  C
  C99      1.0000 0.85593  0.25657  0.78137  Biso   1.000  C
  C100     1.0000 0.58990  0.06730  0.88530  Biso   1.000  C
  C101     1.0000 0.93270  0.52260  0.88530  Biso   1.000  C
  C102     1.0000 0.47740  0.41010  0.88530  Biso   1.000  C
  C103     1.0000 0.25657  0.40063  0.21863  Biso   1.000  C
  C104     1.0000 0.59937  0.85593  0.21863  Biso   1.000  C
  C105     1.0000 0.14407  0.74343  0.21863  Biso   1.000  C
  C106     1.0000 0.92323  0.73397  0.55197  Biso   1.000  C
  C107     1.0000 0.26603  0.18927  0.55197  Biso   1.000  C
  C108     1.0000 0.81073  0.07677  0.55197  Biso   1.000  C
  C109     1.0000 0.37750  0.96950  0.23170  Biso   1.000  C
  C110     1.0000 0.03050  0.40800  0.23170  Biso   1.000  C
  C111     1.0000 0.59200  0.62250  0.23170  Biso   1.000  C
  C112     1.0000 0.04417  0.30283  0.56503  Biso   1.000  C
  C113     1.0000 0.69717  0.74133  0.56503  Biso   1.000  C
  C114     1.0000 0.25867  0.95583  0.56503  Biso   1.000  C
  C115     1.0000 0.71083  0.63617  0.89837  Biso   1.000  C
  C116     1.0000 0.36383  0.07467  0.89837  Biso   1.000  C
  C117     1.0000 0.92533  0.28917  0.89837  Biso   1.000  C
  C118     1.0000 0.62250  0.03050  0.76830  Biso   1.000  C
  C119     1.0000 0.96950  0.59200  0.76830  Biso   1.000  C
  C120     1.0000 0.40800  0.37750  0.76830  Biso   1.000  C
  C121     1.0000 0.28917  0.36383  0.10163  Biso   1.000  C
  C122     1.0000 0.63617  0.92533  0.10163  Biso   1.000  C
  C123     1.0000 0.07467  0.71083  0.10163  Biso   1.000  C
  C124     1.0000 0.95583  0.69717  0.43497  Biso   1.000  C
  C125     1.0000 0.30283  0.25867  0.43497  Biso   1.000  C
  C126     1.0000 0.74133  0.04417  0.43497  Biso   1.000  C
  H109     1.0000 0.40356  0.99851  0.21791  Biso   1.000  H
  H110     1.0000 0.00149  0.40505  0.21791  Biso   1.000  H
  H111     1.0000 0.59495  0.59644  0.21791  Biso   1.000  H
  H112     1.0000 0.07023  0.33184  0.55124  Biso   1.000  H
  H113     1.0000 0.66816  0.73838  0.55124  Biso   1.000  H
  H114     1.0000 0.26162  0.92977  0.55124  Biso   1.000  H
  H115     1.0000 0.73689  0.66518  0.88458  Biso   1.000  H
  H116     1.0000 0.33482  0.07172  0.88458  Biso   1.000  H
  H117     1.0000 0.92828  0.26311  0.88458  Biso   1.000  H
  H118     1.0000 0.59644  0.00149  0.78209  Biso   1.000  H
  H119     1.0000 0.99851  0.59495  0.78209  Biso   1.000  H
  H120     1.0000 0.40505  0.40356  0.78209  Biso   1.000  H
  H121     1.0000 0.26311  0.33482  0.11542  Biso   1.000  H
  H122     1.0000 0.66518  0.92828  0.11542  Biso   1.000  H
  H123     1.0000 0.07172  0.73689  0.11542  Biso   1.000  H
  H124     1.0000 0.92977  0.66816  0.44876  Biso   1.000  H
  H125     1.0000 0.33184  0.26162  0.44876  Biso   1.000  H
  H126     1.0000 0.73838  0.07023  0.44876  Biso   1.000  H
  C127     1.0000 0.34400  0.96710  0.29530  Biso   1.000  C
  C128     1.0000 0.03290  0.37690  0.29530  Biso   1.000  C
  C129     1.0000 0.62310  0.65600  0.29530  Biso   1.000  C
  C130     1.0000 0.01067  0.30043  0.62863  Biso   1.000  C
  C131     1.0000 0.69957  0.71023  0.62863  Biso   1.000  C
  C132     1.0000 0.28977  0.98933  0.62863  Biso   1.000  C
  C133     1.0000 0.67733  0.63377  0.96197  Biso   1.000  C
  C134     1.0000 0.36623  0.04357  0.96197  Biso   1.000  C
  C135     1.0000 0.95643  0.32267  0.96197  Biso   1.000  C
  C136     1.0000 0.65600  0.03290  0.70470  Biso   1.000  C
  C137     1.0000 0.96710  0.62310  0.70470  Biso   1.000  C
  C138     1.0000 0.37690  0.34400  0.70470  Biso   1.000  C
  C139     1.0000 0.32267  0.36623  0.03803  Biso   1.000  C
  C140     1.0000 0.63377  0.95643  0.03803  Biso   1.000  C
  C141     1.0000 0.04357  0.67733  0.03803  Biso   1.000  C
  C142     1.0000 0.98933  0.69957  0.37137  Biso   1.000  C
  C143     1.0000 0.30043  0.28977  0.37137  Biso   1.000  C
  C144     1.0000 0.71023  0.01067  0.37137  Biso   1.000  C
  C145     1.0000 0.30630  0.92360  0.31960  Biso   1.000  C
  C146     1.0000 0.07640  0.38270  0.31960  Biso   1.000  C
  C147     1.0000 0.61730  0.69370  0.31960  Biso   1.000  C
  C148     1.0000 0.97297  0.25693  0.65293  Biso   1.000  C
  C149     1.0000 0.74307  0.71603  0.65293  Biso   1.000  C
  C150     1.0000 0.28397  0.02703  0.65293  Biso   1.000  C
  C151     1.0000 0.63963  0.59027  0.98627  Biso   1.000  C
  C152     1.0000 0.40973  0.04937  0.98627  Biso   1.000  C
  C153     1.0000 0.95063  0.36037  0.98627  Biso   1.000  C
  C154     1.0000 0.69370  0.07640  0.68040  Biso   1.000  C
  C155     1.0000 0.92360  0.61730  0.68040  Biso   1.000  C
  C156     1.0000 0.38270  0.30630  0.68040  Biso   1.000  C
  C157     1.0000 0.36037  0.40973  0.01373  Biso   1.000  C
  C158     1.0000 0.59027  0.95063  0.01373  Biso   1.000  C
  C159     1.0000 0.04937  0.63963  0.01373  Biso   1.000  C
  C160     1.0000 0.02703  0.74307  0.34707  Biso   1.000  C
  C161     1.0000 0.25693  0.28397  0.34707  Biso   1.000  C
  C162     1.0000 0.71603  0.97297  0.34707  Biso   1.000  C
  H127     1.0000 0.28311  0.92152  0.36206  Biso   1.000  H
  H128     1.0000 0.07848  0.36159  0.36206  Biso   1.000  H
  H129     1.0000 0.63841  0.71689  0.36206  Biso   1.000  H
  H130     1.0000 0.94978  0.25485  0.69539  Biso   1.000  H
  H131     1.0000 0.74515  0.69492  0.69539  Biso   1.000  H
  H132     1.0000 0.30508  0.05022  0.69539  Biso   1.000  H
  H133     1.0000 0.61644  0.58819  0.02873  Biso   1.000  H
  H134     1.0000 0.41181  0.02826  0.02873  Biso   1.000  H
  H135     1.0000 0.97174  0.38356  0.02873  Biso   1.000  H
  H136     1.0000 0.71689  0.07848  0.63794  Biso   1.000  H
  H137     1.0000 0.92152  0.63841  0.63794  Biso   1.000  H
  H138     1.0000 0.36159  0.28311  0.63794  Biso   1.000  H
  H139     1.0000 0.38356  0.41181  0.97127  Biso   1.000  H
  H140     1.0000 0.58819  0.97174  0.97127  Biso   1.000  H
  H141     1.0000 0.02826  0.61644  0.97127  Biso   1.000  H
  H142     1.0000 0.05022  0.74515  0.30461  Biso   1.000  H
  H143     1.0000 0.25485  0.30508  0.30461  Biso   1.000  H
  H144     1.0000 0.69492  0.94978  0.30461  Biso   1.000  H
  C163     1.0000 0.35050  0.01040  0.34530  Biso   1.000  C
  C164     1.0000 0.98960  0.34010  0.34530  Biso   1.000  C
  C165     1.0000 0.65990  0.64950  0.34530  Biso   1.000  C
  C166     1.0000 0.01717  0.34373  0.67863  Biso   1.000  C
  C167     1.0000 0.65627  0.67343  0.67863  Biso   1.000  C
  C168     1.0000 0.32657  0.98283  0.67863  Biso   1.000  C
  C169     1.0000 0.68383  0.67707  0.01197  Biso   1.000  C
  C170     1.0000 0.32293  0.00677  0.01197  Biso   1.000  C
  C171     1.0000 0.99323  0.31617  0.01197  Biso   1.000  C
  C172     1.0000 0.64950  0.98960  0.65470  Biso   1.000  C
  C173     1.0000 0.01040  0.65990  0.65470  Biso   1.000  C
  C174     1.0000 0.34010  0.35050  0.65470  Biso   1.000  C
  C175     1.0000 0.31617  0.32293  0.98803  Biso   1.000  C
  C176     1.0000 0.67707  0.99323  0.98803  Biso   1.000  C
  C177     1.0000 0.00677  0.68383  0.98803  Biso   1.000  C
  C178     1.0000 0.98283  0.65627  0.32137  Biso   1.000  C
  C179     1.0000 0.34373  0.32657  0.32137  Biso   1.000  C
  C180     1.0000 0.67343  0.01717  0.32137  Biso   1.000  C
  C181     1.0000 0.31380  0.01810  0.35790  Biso   1.000  C
  C182     1.0000 0.98190  0.29570  0.35790  Biso   1.000  C
  C183     1.0000 0.70430  0.68620  0.35790  Biso   1.000  C
  C184     1.0000 0.98047  0.35143  0.69123  Biso   1.000  C
  C185     1.0000 0.64857  0.62903  0.69123  Biso   1.000  C
  C186     1.0000 0.37097  0.01953  0.69123  Biso   1.000  C
  C187     1.0000 0.64713  0.68477  0.02457  Biso   1.000  C
  C188     1.0000 0.31523  0.96237  0.02457  Biso   1.000  C
  C189     1.0000 0.03763  0.35287  0.02457  Biso   1.000  C
  C190     1.0000 0.68620  0.98190  0.64210  Biso   1.000  C
  C191     1.0000 0.01810  0.70430  0.64210  Biso   1.000  C
  C192     1.0000 0.29570  0.31380  0.64210  Biso   1.000  C
  C193     1.0000 0.35287  0.31523  0.97543  Biso   1.000  C
  C194     1.0000 0.68477  0.03763  0.97543  Biso   1.000  C
  C195     1.0000 0.96237  0.64713  0.97543  Biso   1.000  C
  C196     1.0000 0.01953  0.64857  0.30877  Biso   1.000  C
  C197     1.0000 0.35143  0.37097  0.30877  Biso   1.000  C
  C198     1.0000 0.62903  0.98047  0.30877  Biso   1.000  C
  H145     1.0000 0.28438  0.99717  0.33265  Biso   1.000  H
  H146     1.0000 0.00283  0.28721  0.33265  Biso   1.000  H
  H147     1.0000 0.71279  0.71562  0.33265  Biso   1.000  H
  H148     1.0000 0.95105  0.33050  0.66598  Biso   1.000  H
  H149     1.0000 0.66950  0.62054  0.66598  Biso   1.000  H
  H150     1.0000 0.37946  0.04895  0.66598  Biso   1.000  H
  H151     1.0000 0.61771  0.66384  0.99932  Biso   1.000  H
  H152     1.0000 0.33616  0.95388  0.99932  Biso   1.000  H
  H153     1.0000 0.04612  0.38229  0.99932  Biso   1.000  H
  H154     1.0000 0.71562  0.00283  0.66735  Biso   1.000  H
  H155     1.0000 0.99717  0.71279  0.66735  Biso   1.000  H
  H156     1.0000 0.28721  0.28438  0.66735  Biso   1.000  H
  H157     1.0000 0.38229  0.33616  0.00068  Biso   1.000  H
  H158     1.0000 0.66384  0.04612  0.00068  Biso   1.000  H
  H159     1.0000 0.95388  0.61771  0.00068  Biso   1.000  H
  H160     1.0000 0.04895  0.66950  0.33402  Biso   1.000  H
  H161     1.0000 0.33050  0.37946  0.33402  Biso   1.000  H
  H162     1.0000 0.62054  0.95105  0.33402  Biso   1.000  H
  C199     1.0000 0.32130  0.05860  0.41020  Biso   1.000  C
  C200     1.0000 0.94140  0.26270  0.41020  Biso   1.000  C
  C201     1.0000 0.73730  0.67870  0.41020  Biso   1.000  C
  C202     1.0000 0.98797  0.39193  0.74353  Biso   1.000  C
  C203     1.0000 0.60807  0.59603  0.74353  Biso   1.000  C
  C204     1.0000 0.40397  0.01203  0.74353  Biso   1.000  C
  C205     1.0000 0.65463  0.72527  0.07687  Biso   1.000  C
  C206     1.0000 0.27473  0.92937  0.07687  Biso   1.000  C
  C207     1.0000 0.07063  0.34537  0.07687  Biso   1.000  C
  C208     1.0000 0.67870  0.94140  0.58980  Biso   1.000  C
  C209     1.0000 0.05860  0.73730  0.58980  Biso   1.000  C
  C210     1.0000 0.26270  0.32130  0.58980  Biso   1.000  C
  C211     1.0000 0.34537  0.27473  0.92313  Biso   1.000  C
  C212     1.0000 0.72527  0.07063  0.92313  Biso   1.000  C
  C213     1.0000 0.92937  0.65463  0.92313  Biso   1.000  C
  C214     1.0000 0.01203  0.60807  0.25647  Biso   1.000  C
  C215     1.0000 0.39193  0.40397  0.25647  Biso   1.000  C
  C216     1.0000 0.59603  0.98797  0.25647  Biso   1.000  C
  H163     1.0000 0.29677  0.06449  0.41950  Biso   1.000  H
  H164     1.0000 0.93551  0.23228  0.41950  Biso   1.000  H
  H165     1.0000 0.76772  0.70323  0.41950  Biso   1.000  H
  H166     1.0000 0.96344  0.39782  0.75283  Biso   1.000  H
  H167     1.0000 0.60218  0.56561  0.75283  Biso   1.000  H
  H168     1.0000 0.43439  0.03656  0.75283  Biso   1.000  H
  H169     1.0000 0.63010  0.73116  0.08617  Biso   1.000  H
  H170     1.0000 0.26884  0.89895  0.08617  Biso   1.000  H
  H171     1.0000 0.10105  0.36990  0.08617  Biso   1.000  H
  H172     1.0000 0.70323  0.93551  0.58050  Biso   1.000  H
  H173     1.0000 0.06449  0.76772  0.58050  Biso   1.000  H
  H174     1.0000 0.23228  0.29677  0.58050  Biso   1.000  H
  H175     1.0000 0.36990  0.26884  0.91383  Biso   1.000  H
  H176     1.0000 0.73116  0.10105  0.91383  Biso   1.000  H
  H177     1.0000 0.89895  0.63010  0.91383  Biso   1.000  H
  H178     1.0000 0.03656  0.60218  0.24717  Biso   1.000  H
  H179     1.0000 0.39782  0.43439  0.24717  Biso   1.000  H
  H180     1.0000 0.56561  0.96344  0.24717  Biso   1.000  H
  C217     1.0000 0.36420  0.08840  0.44610  Biso   1.000  C
  C218     1.0000 0.91160  0.27580  0.44610  Biso   1.000  C
  C219     1.0000 0.72420  0.63580  0.44610  Biso   1.000  C
  C220     1.0000 0.03087  0.42173  0.77943  Biso   1.000  C
  C221     1.0000 0.57827  0.60913  0.77943  Biso   1.000  C
  C222     1.0000 0.39087  0.96913  0.77943  Biso   1.000  C
  C223     1.0000 0.69753  0.75507  0.11277  Biso   1.000  C
  C224     1.0000 0.24493  0.94247  0.11277  Biso   1.000  C
  C225     1.0000 0.05753  0.30247  0.11277  Biso   1.000  C
  C226     1.0000 0.63580  0.91160  0.55390  Biso   1.000  C
  C227     1.0000 0.08840  0.72420  0.55390  Biso   1.000  C
  C228     1.0000 0.27580  0.36420  0.55390  Biso   1.000  C
  C229     1.0000 0.30247  0.24493  0.88723  Biso   1.000  C
  C230     1.0000 0.75507  0.05753  0.88723  Biso   1.000  C
  C231     1.0000 0.94247  0.69753  0.88723  Biso   1.000  C
  C232     1.0000 0.96913  0.57827  0.22057  Biso   1.000  C
  C233     1.0000 0.42173  0.39087  0.22057  Biso   1.000  C
  C234     1.0000 0.60913  0.03087  0.22057  Biso   1.000  C
  C235     1.0000 0.37530  0.12970  0.51440  Biso   1.000  C
  C236     1.0000 0.87030  0.24560  0.51440  Biso   1.000  C
  C237     1.0000 0.75440  0.62470  0.51440  Biso   1.000  C
  C238     1.0000 0.04197  0.46303  0.84773  Biso   1.000  C
  C239     1.0000 0.53697  0.57893  0.84773  Biso   1.000  C
  C240     1.0000 0.42107  0.95803  0.84773  Biso   1.000  C
  C241     1.0000 0.70863  0.79637  0.18107  Biso   1.000  C
  C242     1.0000 0.20363  0.91227  0.18107  Biso   1.000  C
  C243     1.0000 0.08773  0.29137  0.18107  Biso   1.000  C
  C244     1.0000 0.62470  0.87030  0.48560  Biso   1.000  C
  C245     1.0000 0.12970  0.75440  0.48560  Biso   1.000  C
  C246     1.0000 0.24560  0.37530  0.48560  Biso   1.000  C
  C247     1.0000 0.29137  0.20363  0.81893  Biso   1.000  C
  C248     1.0000 0.79637  0.08773  0.81893  Biso   1.000  C
  C249     1.0000 0.91227  0.70863  0.81893  Biso   1.000  C
  C250     1.0000 0.95803  0.53697  0.15227  Biso   1.000  C
  C251     1.0000 0.46303  0.42107  0.15227  Biso   1.000  C
  C252     1.0000 0.57893  0.04197  0.15227  Biso   1.000  C
  C253     1.0000 0.40040  0.07870  0.42490  Biso   1.000  C
  C254     1.0000 0.92130  0.32170  0.42490  Biso   1.000  C
  C255     1.0000 0.67830  0.59960  0.42490  Biso   1.000  C
  C256     1.0000 0.06707  0.41203  0.75823  Biso   1.000  C
  C257     1.0000 0.58797  0.65503  0.75823  Biso   1.000  C
  C258     1.0000 0.34497  0.93293  0.75823  Biso   1.000  C
  C259     1.0000 0.73373  0.74537  0.09157  Biso   1.000  C
  C260     1.0000 0.25463  0.98837  0.09157  Biso   1.000  C
  C261     1.0000 0.01163  0.26627  0.09157  Biso   1.000  C
  C262     1.0000 0.59960  0.92130  0.57510  Biso   1.000  C
  C263     1.0000 0.07870  0.67830  0.57510  Biso   1.000  C
  C264     1.0000 0.32170  0.40040  0.57510  Biso   1.000  C
  C265     1.0000 0.26627  0.25463  0.90843  Biso   1.000  C
  C266     1.0000 0.74537  0.01163  0.90843  Biso   1.000  C
  C267     1.0000 0.98837  0.73373  0.90843  Biso   1.000  C
  C268     1.0000 0.93293  0.58797  0.24177  Biso   1.000  C
  C269     1.0000 0.41203  0.34497  0.24177  Biso   1.000  C
  C270     1.0000 0.65503  0.06707  0.24177  Biso   1.000  C
  H181     1.0000 0.43053  0.09952  0.44694  Biso   1.000  H
  H182     1.0000 0.90048  0.33101  0.44694  Biso   1.000  H
  H183     1.0000 0.66899  0.56947  0.44694  Biso   1.000  H
  H184     1.0000 0.09720  0.43285  0.78027  Biso   1.000  H
  H185     1.0000 0.56715  0.66434  0.78027  Biso   1.000  H
  H186     1.0000 0.33566  0.90280  0.78027  Biso   1.000  H
  H187     1.0000 0.76386  0.76619  0.11361  Biso   1.000  H
  H188     1.0000 0.23381  0.99768  0.11361  Biso   1.000  H
  H189     1.0000 0.00232  0.23614  0.11361  Biso   1.000  H
  H190     1.0000 0.56947  0.90048  0.55306  Biso   1.000  H
  H191     1.0000 0.09952  0.66899  0.55306  Biso   1.000  H
  H192     1.0000 0.33101  0.43053  0.55306  Biso   1.000  H
  H193     1.0000 0.23614  0.23381  0.88639  Biso   1.000  H
  H194     1.0000 0.76619  0.00232  0.88639  Biso   1.000  H
  H195     1.0000 0.99768  0.76386  0.88639  Biso   1.000  H
  H196     1.0000 0.90280  0.56715  0.21973  Biso   1.000  H
  H197     1.0000 0.43285  0.33566  0.21973  Biso   1.000  H
  H198     1.0000 0.66434  0.09720  0.21973  Biso   1.000  H
