data_image0
_cell_length_a       12.721
_cell_length_b       7.7387
_cell_length_c       14.005
_cell_angle_alpha    90
_cell_angle_beta     108.106
_cell_angle_gamma    90

_symmetry_space_group_name_H-M    "P 1"
_symmetry_int_tables_number       1

loop_
  _symmetry_equiv_pos_as_xyz
  'x, y, z'

loop_
  _atom_site_label
  _atom_site_occupancy
  _atom_site_fract_x
  _atom_site_fract_y
  _atom_site_fract_z
  _atom_site_thermal_displace_type
  _atom_site_B_iso_or_equiv
  _atom_site_type_symbol
  O1       1.0000 0.85990  0.27680  0.70150  Biso   1.000  O
  O2       1.0000 0.64010  0.77680  0.79850  Biso   1.000  O
  O3       1.0000 0.14010  0.72320  0.29850  Biso   1.000  O
  O4       1.0000 0.35990  0.22320  0.20150  Biso   1.000  O
  O5       1.0000 0.02050  0.16850  0.77870  Biso   1.000  O
  O6       1.0000 0.47950  0.66850  0.72130  Biso   1.000  O
  O7       1.0000 0.97950  0.83150  0.22130  Biso   1.000  O
  O8       1.0000 0.52050  0.33150  0.27870  Biso   1.000  O
  C1       1.0000 0.95420  0.29420  0.76500  Biso   1.000  C
  C2       1.0000 0.54580  0.79420  0.73500  Biso   1.000  C
  C3       1.0000 0.04580  0.70580  0.23500  Biso   1.000  C
  C4       1.0000 0.45420  0.20580  0.26500  Biso   1.000  C
  O9       1.0000 0.26720  0.51180  0.06800  Biso   1.000  O
  O10      1.0000 0.23280  0.01180  0.43200  Biso   1.000  O
  O11      1.0000 0.73280  0.48820  0.93200  Biso   1.000  O
  O12      1.0000 0.76720  0.98820  0.56800  Biso   1.000  O
  C5       1.0000 0.20060  0.64010  0.05160  Biso   1.000  C
  C6       1.0000 0.29940  0.14010  0.44840  Biso   1.000  C
  C7       1.0000 0.79940  0.35990  0.94840  Biso   1.000  C
  C8       1.0000 0.70060  0.85990  0.55160  Biso   1.000  C
  Cu1      1.0000 0.89666  0.02491  0.67992  Biso   1.000  Cu
  Cu2      1.0000 0.60334  0.52491  0.82008  Biso   1.000  Cu
  Cu3      1.0000 0.10334  0.97509  0.32008  Biso   1.000  Cu
  Cu4      1.0000 0.39666  0.47509  0.17992  Biso   1.000  Cu
  N1       1.0000 0.86520  0.89810  0.80950  Biso   1.000  N
  N2       1.0000 0.63480  0.39810  0.69050  Biso   1.000  N
  N3       1.0000 0.13480  0.10190  0.19050  Biso   1.000  N
  N4       1.0000 0.36520  0.60190  0.30950  Biso   1.000  N
  H1       1.0000 0.87500  0.97550  0.85950  Biso   1.000  H
  H2       1.0000 0.62500  0.47550  0.64050  Biso   1.000  H
  H3       1.0000 0.12500  0.02450  0.14050  Biso   1.000  H
  H4       1.0000 0.37500  0.52450  0.35950  Biso   1.000  H
  H5       1.0000 0.79450  0.86230  0.79150  Biso   1.000  H
  H6       1.0000 0.70550  0.36230  0.70850  Biso   1.000  H
  H7       1.0000 0.20550  0.13770  0.20850  Biso   1.000  H
  H8       1.0000 0.29450  0.63770  0.29150  Biso   1.000  H
  O13      1.0000 0.21160  0.76900  0.10550  Biso   1.000  O
  O14      1.0000 0.28840  0.26900  0.39450  Biso   1.000  O
  O15      1.0000 0.78840  0.23100  0.89450  Biso   1.000  O
  O16      1.0000 0.71160  0.73100  0.60550  Biso   1.000  O
  C9       1.0000 0.98440  0.45820  0.82160  Biso   1.000  C
  C10      1.0000 0.51560  0.95820  0.67840  Biso   1.000  C
  C11      1.0000 0.01560  0.54180  0.17840  Biso   1.000  C
  C12      1.0000 0.48440  0.04180  0.32160  Biso   1.000  C
  C13      1.0000 0.07940  0.47330  0.90430  Biso   1.000  C
  C14      1.0000 0.42060  0.97330  0.59570  Biso   1.000  C
  C15      1.0000 0.92060  0.52670  0.09570  Biso   1.000  C
  C16      1.0000 0.57940  0.02670  0.40430  Biso   1.000  C
  H9       1.0000 0.12790  0.38040  0.92310  Biso   1.000  H
  H10      1.0000 0.37210  0.88040  0.57690  Biso   1.000  H
  H11      1.0000 0.87210  0.61960  0.07690  Biso   1.000  H
  H12      1.0000 0.62790  0.11960  0.42310  Biso   1.000  H
  C17      1.0000 0.10180  0.62610  0.95860  Biso   1.000  C
  C18      1.0000 0.39820  0.12610  0.54140  Biso   1.000  C
  C19      1.0000 0.89820  0.37390  0.04140  Biso   1.000  C
  C20      1.0000 0.60180  0.87390  0.45860  Biso   1.000  C
  C21      1.0000 0.02970  0.76550  0.92840  Biso   1.000  C
  C22      1.0000 0.47030  0.26550  0.57160  Biso   1.000  C
  C23      1.0000 0.97030  0.23450  0.07160  Biso   1.000  C
  C24      1.0000 0.52970  0.73450  0.42840  Biso   1.000  C
  H13      1.0000 0.04470  0.86810  0.96470  Biso   1.000  H
  H14      1.0000 0.45530  0.36810  0.53530  Biso   1.000  H
  H15      1.0000 0.95530  0.13190  0.03530  Biso   1.000  H
  H16      1.0000 0.54470  0.63190  0.46470  Biso   1.000  H
  C25      1.0000 0.93640  0.75390  0.84530  Biso   1.000  C
  C26      1.0000 0.56360  0.25390  0.65470  Biso   1.000  C
  C27      1.0000 0.06360  0.24610  0.15470  Biso   1.000  C
  C28      1.0000 0.43640  0.74610  0.34530  Biso   1.000  C
  C29      1.0000 0.91330  0.59890  0.79250  Biso   1.000  C
  C30      1.0000 0.58670  0.09890  0.70750  Biso   1.000  C
  C31      1.0000 0.08670  0.40110  0.20750  Biso   1.000  C
  C32      1.0000 0.41330  0.90110  0.29250  Biso   1.000  C
  H17      1.0000 0.84990  0.58920  0.73740  Biso   1.000  H
  H18      1.0000 0.65010  0.08920  0.76260  Biso   1.000  H
  H19      1.0000 0.15010  0.41080  0.26260  Biso   1.000  H
  H20      1.0000 0.34990  0.91080  0.23740  Biso   1.000  H
  N5       1.0000 0.99950  0.87440  0.63370  Biso   1.000  N
  N6       1.0000 0.50050  0.37440  0.86630  Biso   1.000  N
  N7       1.0000 0.00050  0.12560  0.36630  Biso   1.000  N
  N8       1.0000 0.49950  0.62560  0.13370  Biso   1.000  N
  C33      1.0000 0.10120  0.84160  0.69470  Biso   1.000  C
  C34      1.0000 0.39880  0.34160  0.80530  Biso   1.000  C
  C35      1.0000 0.89880  0.15840  0.30530  Biso   1.000  C
  C36      1.0000 0.60120  0.65840  0.19470  Biso   1.000  C
  H21      1.0000 0.12210  0.88650  0.75950  Biso   1.000  H
  H22      1.0000 0.37790  0.38650  0.74050  Biso   1.000  H
  H23      1.0000 0.87790  0.11350  0.24050  Biso   1.000  H
  H24      1.0000 0.62210  0.61350  0.25950  Biso   1.000  H
  C37      1.0000 0.17630  0.74400  0.66560  Biso   1.000  C
  C38      1.0000 0.32370  0.24400  0.83440  Biso   1.000  C
  C39      1.0000 0.82370  0.25600  0.33440  Biso   1.000  C
  C40      1.0000 0.67630  0.75600  0.16560  Biso   1.000  C
  H25      1.0000 0.24620  0.72400  0.71070  Biso   1.000  H
  H26      1.0000 0.25380  0.22400  0.78930  Biso   1.000  H
  H27      1.0000 0.75380  0.27600  0.28930  Biso   1.000  H
  H28      1.0000 0.74620  0.77600  0.21070  Biso   1.000  H
  C41      1.0000 0.14860  0.67480  0.56910  Biso   1.000  C
  C42      1.0000 0.35140  0.17480  0.93090  Biso   1.000  C
  C43      1.0000 0.85140  0.32520  0.43090  Biso   1.000  C
  C44      1.0000 0.64860  0.82520  0.06910  Biso   1.000  C
  C45      1.0000 0.04240  0.71170  0.50770  Biso   1.000  C
  C46      1.0000 0.45760  0.21170  0.99230  Biso   1.000  C
  C47      1.0000 0.95760  0.28830  0.49230  Biso   1.000  C
  C48      1.0000 0.54240  0.78830  0.00770  Biso   1.000  C
  H29      1.0000 0.01880  0.66870  0.44250  Biso   1.000  H
  H30      1.0000 0.48120  0.16870  0.05750  Biso   1.000  H
  H31      1.0000 0.98120  0.33130  0.55750  Biso   1.000  H
  H32      1.0000 0.51880  0.83130  0.94250  Biso   1.000  H
  C49      1.0000 0.97190  0.81000  0.54110  Biso   1.000  C
  C50      1.0000 0.52810  0.31000  0.95890  Biso   1.000  C
  C51      1.0000 0.02810  0.19000  0.45890  Biso   1.000  C
  C52      1.0000 0.47190  0.69000  0.04110  Biso   1.000  C
  H33      1.0000 0.90170  0.83290  0.49740  Biso   1.000  H
  H34      1.0000 0.59830  0.33290  0.00260  Biso   1.000  H
  H35      1.0000 0.09830  0.16710  0.50260  Biso   1.000  H
  H36      1.0000 0.40170  0.66710  0.99740  Biso   1.000  H
  C53      1.0000 0.22690  0.56670  0.53440  Biso   1.000  C
  C54      1.0000 0.27310  0.06670  0.96560  Biso   1.000  C
  C55      1.0000 0.77310  0.43330  0.46560  Biso   1.000  C
  C56      1.0000 0.72690  0.93330  0.03440  Biso   1.000  C
  H37      1.0000 0.20360  0.44820  0.52970  Biso   1.000  H
  H38      1.0000 0.29640  0.94820  0.97030  Biso   1.000  H
  H39      1.0000 0.79640  0.55180  0.47030  Biso   1.000  H
  H40      1.0000 0.70360  0.05180  0.02970  Biso   1.000  H
  H41      1.0000 0.29990  0.57640  0.58150  Biso   1.000  H
  H42      1.0000 0.20010  0.07640  0.91850  Biso   1.000  H
  H43      1.0000 0.70010  0.42360  0.41850  Biso   1.000  H
  H44      1.0000 0.79990  0.92360  0.08150  Biso   1.000  H
  H45      1.0000 0.22760  0.60620  0.46960  Biso   1.000  H
  H46      1.0000 0.27240  0.10620  0.03040  Biso   1.000  H
  H47      1.0000 0.77240  0.39380  0.53040  Biso   1.000  H
  H48      1.0000 0.72760  0.89380  0.96960  Biso   1.000  H
