data_image0
_cell_length_a       11.319
_cell_length_b       11.688
_cell_length_c       14.269
_cell_angle_alpha    85.768
_cell_angle_beta     84.525
_cell_angle_gamma    63.733

_symmetry_space_group_name_H-M    "P 1"
_symmetry_int_tables_number       1

loop_
  _symmetry_equiv_pos_as_xyz
  'x, y, z'

loop_
  _atom_site_label
  _atom_site_occupancy
  _atom_site_fract_x
  _atom_site_fract_y
  _atom_site_fract_z
  _atom_site_thermal_displace_type
  _atom_site_B_iso_or_equiv
  _atom_site_type_symbol
  Pb1      1.0000 0.07527  0.90639  0.24881  Biso   1.000  Pb
  Pb2      1.0000 0.92473  0.09361  0.75119  Biso   1.000  Pb
  Cu1      1.0000 0.00000  0.00000  0.00000  Biso   1.000  Cu
  Cu2      1.0000 0.00000  0.00000  0.50000  Biso   1.000  Cu
  O1       1.0000 0.12850  0.93780  0.89530  Biso   1.000  O
  O2       1.0000 0.87150  0.06220  0.10470  Biso   1.000  O
  O3       1.0000 0.12250  0.01730  0.07590  Biso   1.000  O
  O4       1.0000 0.87750  0.98270  0.92410  Biso   1.000  O
  O5       1.0000 0.92700  0.91630  0.42760  Biso   1.000  O
  O6       1.0000 0.07300  0.08370  0.57240  Biso   1.000  O
  O7       1.0000 0.03380  0.87870  0.60430  Biso   1.000  O
  O8       1.0000 0.96620  0.12130  0.39570  Biso   1.000  O
  O9       1.0000 0.21180  0.85580  0.38870  Biso   1.000  O
  O10      1.0000 0.78820  0.14420  0.61130  Biso   1.000  O
  O11      1.0000 0.07240  0.79110  0.10970  Biso   1.000  O
  O12      1.0000 0.92760  0.20890  0.89030  Biso   1.000  O
  O13      1.0000 0.30140  0.78320  0.18990  Biso   1.000  O
  O14      1.0000 0.69860  0.21680  0.81010  Biso   1.000  O
  O15      1.0000 0.13020  0.68920  0.30300  Biso   1.000  O
  O16      1.0000 0.86980  0.31080  0.69700  Biso   1.000  O
  C1       1.0000 0.24630  0.92450  0.89410  Biso   1.000  C
  C2       1.0000 0.75370  0.07550  0.10590  Biso   1.000  C
  C3       1.0000 0.30400  0.95370  0.96320  Biso   1.000  C
  C4       1.0000 0.69600  0.04630  0.03680  Biso   1.000  C
  H1       1.0000 0.39190  0.94370  0.95110  Biso   1.000  H
  H2       1.0000 0.60810  0.05630  0.04890  Biso   1.000  H
  C5       1.0000 0.23850  0.99730  0.05020  Biso   1.000  C
  C6       1.0000 0.76150  0.00270  0.94980  Biso   1.000  C
  C7       1.0000 0.92330  0.81250  0.45080  Biso   1.000  C
  C8       1.0000 0.07670  0.18750  0.54920  Biso   1.000  C
  C9       1.0000 0.97090  0.73670  0.53380  Biso   1.000  C
  C10      1.0000 0.02910  0.26330  0.46620  Biso   1.000  C
  H3       1.0000 0.96960  0.65580  0.54210  Biso   1.000  H
  H4       1.0000 0.03040  0.34420  0.45790  Biso   1.000  H
  C11      1.0000 0.01900  0.77850  0.60260  Biso   1.000  C
  C12      1.0000 0.98100  0.22150  0.39740  Biso   1.000  C
  C13      1.0000 0.33430  0.86030  0.80520  Biso   1.000  C
  C14      1.0000 0.66570  0.13970  0.19480  Biso   1.000  C
  C15      1.0000 0.32180  0.01490  0.12190  Biso   1.000  C
  C16      1.0000 0.67820  0.98510  0.87810  Biso   1.000  C
  H5       1.0000 0.39870  0.93060  0.13340  Biso   1.000  H
  H6       1.0000 0.60130  0.06940  0.86660  Biso   1.000  H
  C17      1.0000 0.86080  0.75960  0.38490  Biso   1.000  C
  C18      1.0000 0.13920  0.24040  0.61510  Biso   1.000  C
  H7       1.0000 0.92600  0.66930  0.37320  Biso   1.000  H
  H8       1.0000 0.07400  0.33070  0.62680  Biso   1.000  H
  C19      1.0000 0.07020  0.68910  0.68980  Biso   1.000  C
  C20      1.0000 0.92980  0.31090  0.31020  Biso   1.000  C
  O17      1.0000 0.37090  0.10250  0.08730  Biso   1.000  O
  O18      1.0000 0.62910  0.89750  0.91270  Biso   1.000  O
  O19      1.0000 0.24350  0.05180  0.20710  Biso   1.000  O
  O20      1.0000 0.75650  0.94820  0.79290  Biso   1.000  O
  C21      1.0000 0.27390  0.22460  0.06550  Biso   1.000  C
  C22      1.0000 0.72610  0.77540  0.93450  Biso   1.000  C
  H9       1.0000 0.22260  0.21960  0.01570  Biso   1.000  H
  H10      1.0000 0.77740  0.78040  0.98430  Biso   1.000  H
  H11      1.0000 0.31590  0.28020  0.04370  Biso   1.000  H
  H12      1.0000 0.68410  0.71980  0.95630  Biso   1.000  H
  H13      1.0000 0.21510  0.25960  0.12170  Biso   1.000  H
  H14      1.0000 0.78490  0.74040  0.87830  Biso   1.000  H
  C23      1.0000 0.31940  0.04910  0.28240  Biso   1.000  C
  C24      1.0000 0.68060  0.95090  0.71760  Biso   1.000  C
  H15      1.0000 0.35960  0.96260  0.31090  Biso   1.000  H
  H16      1.0000 0.64040  0.03740  0.68910  Biso   1.000  H
  H17      1.0000 0.26170  0.10890  0.33010  Biso   1.000  H
  H18      1.0000 0.73830  0.89110  0.66990  Biso   1.000  H
  H19      1.0000 0.38900  0.07380  0.25800  Biso   1.000  H
  H20      1.0000 0.61100  0.92620  0.74200  Biso   1.000  H
  O21      1.0000 0.84800  0.82520  0.29990  Biso   1.000  O
  O22      1.0000 0.15200  0.17480  0.70010  Biso   1.000  O
  O23      1.0000 0.75190  0.75580  0.42560  Biso   1.000  O
  O24      1.0000 0.24810  0.24420  0.57440  Biso   1.000  O
  C25      1.0000 0.65800  0.88100  0.44250  Biso   1.000  C
  C26      1.0000 0.34200  0.11900  0.55750  Biso   1.000  C
  H21      1.0000 0.68370  0.91320  0.49480  Biso   1.000  H
  H22      1.0000 0.31630  0.08680  0.50520  Biso   1.000  H
  H23      1.0000 0.57170  0.88200  0.45900  Biso   1.000  H
  H24      1.0000 0.42830  0.11800  0.54100  Biso   1.000  H
  H25      1.0000 0.65380  0.93470  0.38580  Biso   1.000  H
  H26      1.0000 0.34620  0.06530  0.61420  Biso   1.000  H
  C27      1.0000 0.81220  0.76890  0.22900  Biso   1.000  C
  C28      1.0000 0.18780  0.23110  0.77100  Biso   1.000  C
  H27      1.0000 0.86650  0.67630  0.23120  Biso   1.000  H
  H28      1.0000 0.13350  0.32370  0.76880  Biso   1.000  H
  H29      1.0000 0.82670  0.80430  0.16690  Biso   1.000  H
  H30      1.0000 0.17330  0.19570  0.83310  Biso   1.000  H
  H31      1.0000 0.71880  0.78750  0.24010  Biso   1.000  H
  H32      1.0000 0.28120  0.21250  0.75990  Biso   1.000  H
  C29      1.0000 0.34180  0.69420  0.13510  Biso   1.000  C
  C30      1.0000 0.65820  0.30580  0.86490  Biso   1.000  C
  C31      1.0000 0.28720  0.63320  0.08900  Biso   1.000  C
  C32      1.0000 0.71280  0.36680  0.91100  Biso   1.000  C
  H33      1.0000 0.34340  0.56050  0.05380  Biso   1.000  H
  H34      1.0000 0.65660  0.43950  0.94620  Biso   1.000  H
  C33      1.0000 0.14320  0.67740  0.09250  Biso   1.000  C
  C34      1.0000 0.85680  0.32260  0.90750  Biso   1.000  C
  C35      1.0000 0.30900  0.76040  0.40400  Biso   1.000  C
  C36      1.0000 0.69100  0.23960  0.59600  Biso   1.000  C
  C37      1.0000 0.30820  0.62150  0.39160  Biso   1.000  C
  C38      1.0000 0.69180  0.37850  0.60840  Biso   1.000  C
  H35      1.0000 0.37320  0.54760  0.42070  Biso   1.000  H
  H36      1.0000 0.62680  0.45240  0.57930  Biso   1.000  H
  C39      1.0000 0.22000  0.60770  0.34200  Biso   1.000  C
  C40      1.0000 0.78000  0.39230  0.65800  Biso   1.000  C
  C41      1.0000 0.51320  0.62570  0.15370  Biso   1.000  C
  C42      1.0000 0.48680  0.37430  0.84630  Biso   1.000  C
  C43      1.0000 0.11780  0.62780  0.00890  Biso   1.000  C
  C44      1.0000 0.88220  0.37220  0.99110  Biso   1.000  C
  C45      1.0000 0.38210  0.73640  0.49020  Biso   1.000  C
  C46      1.0000 0.61790  0.26360  0.50980  Biso   1.000  C
  C47      1.0000 0.24980  0.46500  0.32250  Biso   1.000  C
  C48      1.0000 0.75020  0.53500  0.67750  Biso   1.000  C
  F1       1.0000 0.25910  0.88060  0.73200  Biso   1.000  F
  F2       1.0000 0.74090  0.11940  0.26800  Biso   1.000  F
  F3       1.0000 0.41110  0.91230  0.77590  Biso   1.000  F
  F4       1.0000 0.58890  0.08770  0.22410  Biso   1.000  F
  F5       1.0000 0.40140  0.74580  0.81840  Biso   1.000  F
  F6       1.0000 0.59860  0.25420  0.18160  Biso   1.000  F
  F7       1.0000 0.98240  0.65090  0.72530  Biso   1.000  F
  F8       1.0000 0.01760  0.34910  0.27470  Biso   1.000  F
  F9       1.0000 0.08500  0.74420  0.75660  Biso   1.000  F
  F10      1.0000 0.91500  0.25580  0.24340  Biso   1.000  F
  F11      1.0000 0.17300  0.60900  0.67090  Biso   1.000  F
  F12      1.0000 0.82700  0.39100  0.32910  Biso   1.000  F
  F13      1.0000 0.18690  0.51260  0.98460  Biso   1.000  F
  F14      1.0000 0.81310  0.48740  0.01540  Biso   1.000  F
  F15      1.0000 0.03120  0.69630  0.95890  Biso   1.000  F
  F16      1.0000 0.96880  0.30370  0.04110  Biso   1.000  F
  F17      1.0000 0.02600  0.58400  0.06520  Biso   1.000  F
  F18      1.0000 0.97400  0.41600  0.93480  Biso   1.000  F
  F19      1.0000 0.33900  0.66600  0.54360  Biso   1.000  F
  F20      1.0000 0.66100  0.33400  0.45640  Biso   1.000  F
  F21      1.0000 0.33920  0.84900  0.53120  Biso   1.000  F
  F22      1.0000 0.66080  0.15100  0.46880  Biso   1.000  F
  F23      1.0000 0.50130  0.67600  0.47480  Biso   1.000  F
  F24      1.0000 0.49870  0.32400  0.52520  Biso   1.000  F
  F25      1.0000 0.16800  0.45890  0.39720  Biso   1.000  F
  F26      1.0000 0.83200  0.54110  0.60280  Biso   1.000  F
  F27      1.0000 0.23800  0.41900  0.25590  Biso   1.000  F
  F28      1.0000 0.76200  0.58100  0.74410  Biso   1.000  F
  F29      1.0000 0.37000  0.41600  0.34190  Biso   1.000  F
  F30      1.0000 0.63000  0.58400  0.65810  Biso   1.000  F
  F31      1.0000 0.55870  0.69190  0.11330  Biso   1.000  F
  F32      1.0000 0.44130  0.30810  0.88670  Biso   1.000  F
  F33      1.0000 0.52700  0.55400  0.10100  Biso   1.000  F
  F34      1.0000 0.47300  0.44600  0.89900  Biso   1.000  F
  F35      1.0000 0.56700  0.53300  0.18700  Biso   1.000  F
  F36      1.0000 0.43300  0.46700  0.81300  Biso   1.000  F
