data_image0
_cell_length_a       6.0249
_cell_length_b       16.66
_cell_length_c       26.145
_cell_angle_alpha    90
_cell_angle_beta     90
_cell_angle_gamma    90

_symmetry_space_group_name_H-M    "P 1"
_symmetry_int_tables_number       1

loop_
  _symmetry_equiv_pos_as_xyz
  'x, y, z'

loop_
  _atom_site_label
  _atom_site_occupancy
  _atom_site_fract_x
  _atom_site_fract_y
  _atom_site_fract_z
  _atom_site_thermal_displace_type
  _atom_site_B_iso_or_equiv
  _atom_site_type_symbol
  C1       1.0000 0.12470  0.31370  0.41120  Biso   1.000  C
  C2       1.0000 0.37530  0.68630  0.91120  Biso   1.000  C
  C3       1.0000 0.87530  0.81370  0.08880  Biso   1.000  C
  C4       1.0000 0.62470  0.18630  0.58880  Biso   1.000  C
  C5       1.0000 0.18030  0.38490  0.43590  Biso   1.000  C
  C6       1.0000 0.31970  0.61510  0.93590  Biso   1.000  C
  C7       1.0000 0.81970  0.88490  0.06410  Biso   1.000  C
  C8       1.0000 0.68030  0.11510  0.56410  Biso   1.000  C
  H1       1.0000 0.30710  0.41220  0.42540  Biso   1.000  H
  H2       1.0000 0.19290  0.58780  0.92540  Biso   1.000  H
  H3       1.0000 0.69290  0.91220  0.07460  Biso   1.000  H
  H4       1.0000 0.80710  0.08780  0.57460  Biso   1.000  H
  C9       1.0000 0.05800  0.41600  0.47440  Biso   1.000  C
  C10      1.0000 0.44200  0.58400  0.97440  Biso   1.000  C
  C11      1.0000 0.94200  0.91600  0.02560  Biso   1.000  C
  C12      1.0000 0.55800  0.08400  0.52560  Biso   1.000  C
  H5       1.0000 0.10070  0.46320  0.49060  Biso   1.000  H
  H6       1.0000 0.39930  0.53680  0.99060  Biso   1.000  H
  H7       1.0000 0.89930  0.96320  0.00940  Biso   1.000  H
  H8       1.0000 0.60070  0.03680  0.50940  Biso   1.000  H
  C13      1.0000 0.86400  0.37540  0.48970  Biso   1.000  C
  C14      1.0000 0.63600  0.62460  0.98970  Biso   1.000  C
  C15      1.0000 0.13600  0.87540  0.01030  Biso   1.000  C
  C16      1.0000 0.36400  0.12460  0.51030  Biso   1.000  C
  H9       1.0000 0.77910  0.39590  0.51640  Biso   1.000  H
  H10      1.0000 0.72090  0.60410  0.01640  Biso   1.000  H
  H11      1.0000 0.22090  0.89590  0.98360  Biso   1.000  H
  H12      1.0000 0.27910  0.10410  0.48360  Biso   1.000  H
  C17      1.0000 0.79610  0.30500  0.46530  Biso   1.000  C
  C18      1.0000 0.70390  0.69500  0.96530  Biso   1.000  C
  C19      1.0000 0.20390  0.80500  0.03470  Biso   1.000  C
  C20      1.0000 0.29610  0.19500  0.53470  Biso   1.000  C
  H13      1.0000 0.66700  0.27860  0.47510  Biso   1.000  H
  H14      1.0000 0.83300  0.72140  0.97510  Biso   1.000  H
  H15      1.0000 0.33300  0.77860  0.02490  Biso   1.000  H
  H16      1.0000 0.16700  0.22140  0.52490  Biso   1.000  H
  C21      1.0000 0.92850  0.27550  0.42560  Biso   1.000  C
  C22      1.0000 0.57150  0.72450  0.92560  Biso   1.000  C
  C23      1.0000 0.07150  0.77550  0.07440  Biso   1.000  C
  C24      1.0000 0.42850  0.22450  0.57440  Biso   1.000  C
  H17      1.0000 0.88470  0.22930  0.40840  Biso   1.000  H
  H18      1.0000 0.61530  0.77070  0.90840  Biso   1.000  H
  H19      1.0000 0.11530  0.72930  0.09160  Biso   1.000  H
  H20      1.0000 0.38470  0.27070  0.59160  Biso   1.000  H
  C25      1.0000 0.26490  0.28160  0.36720  Biso   1.000  C
  C26      1.0000 0.23510  0.71840  0.86720  Biso   1.000  C
  C27      1.0000 0.73510  0.78160  0.13280  Biso   1.000  C
  C28      1.0000 0.76490  0.21840  0.63280  Biso   1.000  C
  H21      1.0000 0.40080  0.31380  0.36520  Biso   1.000  H
  H22      1.0000 0.09920  0.68620  0.86520  Biso   1.000  H
  H23      1.0000 0.59920  0.81380  0.13480  Biso   1.000  H
  H24      1.0000 0.90080  0.18620  0.63480  Biso   1.000  H
  C29      1.0000 0.33190  0.19270  0.37220  Biso   1.000  C
  C30      1.0000 0.16810  0.80730  0.87220  Biso   1.000  C
  C31      1.0000 0.66810  0.69270  0.12780  Biso   1.000  C
  C32      1.0000 0.83190  0.30730  0.62780  Biso   1.000  C
  H25      1.0000 0.41430  0.18520  0.40320  Biso   1.000  H
  H26      1.0000 0.08570  0.81480  0.90320  Biso   1.000  H
  H27      1.0000 0.58570  0.68520  0.09680  Biso   1.000  H
  H28      1.0000 0.91430  0.31480  0.59680  Biso   1.000  H
  H29      1.0000 0.42210  0.17760  0.34350  Biso   1.000  H
  H30      1.0000 0.07790  0.82240  0.84350  Biso   1.000  H
  H31      1.0000 0.57790  0.67760  0.15650  Biso   1.000  H
  H32      1.0000 0.92210  0.32240  0.65650  Biso   1.000  H
  H33      1.0000 0.20090  0.15990  0.37300  Biso   1.000  H
  H34      1.0000 0.29910  0.84010  0.87300  Biso   1.000  H
  H35      1.0000 0.79910  0.65990  0.12700  Biso   1.000  H
  H36      1.0000 0.70090  0.34010  0.62700  Biso   1.000  H
  C33      1.0000 0.44470  0.20240  0.09220  Biso   1.000  C
  C34      1.0000 0.05530  0.79760  0.59220  Biso   1.000  C
  C35      1.0000 0.55530  0.70240  0.40780  Biso   1.000  C
  C36      1.0000 0.94470  0.29760  0.90780  Biso   1.000  C
  C37      1.0000 0.32030  0.13310  0.07760  Biso   1.000  C
  C38      1.0000 0.17970  0.86690  0.57760  Biso   1.000  C
  C39      1.0000 0.67970  0.63310  0.42240  Biso   1.000  C
  C40      1.0000 0.82030  0.36690  0.92240  Biso   1.000  C
  H37      1.0000 0.19770  0.11710  0.09660  Biso   1.000  H
  H38      1.0000 0.30230  0.88290  0.59660  Biso   1.000  H
  H39      1.0000 0.80230  0.61710  0.40340  Biso   1.000  H
  H40      1.0000 0.69770  0.38290  0.90340  Biso   1.000  H
  C41      1.0000 0.38500  0.08950  0.03400  Biso   1.000  C
  C42      1.0000 0.11500  0.91050  0.53400  Biso   1.000  C
  C43      1.0000 0.61500  0.58950  0.46600  Biso   1.000  C
  C44      1.0000 0.88500  0.41050  0.96600  Biso   1.000  C
  H41      1.0000 0.30090  0.04620  0.02270  Biso   1.000  H
  H42      1.0000 0.19910  0.95380  0.52270  Biso   1.000  H
  H43      1.0000 0.69910  0.54620  0.47730  Biso   1.000  H
  H44      1.0000 0.80090  0.45380  0.97730  Biso   1.000  H
  C45      1.0000 0.57500  0.11170  0.00840  Biso   1.000  C
  C46      1.0000 0.92500  0.88830  0.50840  Biso   1.000  C
  C47      1.0000 0.42500  0.61170  0.49160  Biso   1.000  C
  C48      1.0000 0.07500  0.38830  0.99160  Biso   1.000  C
  H45      1.0000 0.62360  0.08060  0.98110  Biso   1.000  H
  H46      1.0000 0.87640  0.91940  0.48110  Biso   1.000  H
  H47      1.0000 0.37640  0.58060  0.51890  Biso   1.000  H
  H48      1.0000 0.12360  0.41940  0.01890  Biso   1.000  H
  C49      1.0000 0.69600  0.17930  0.02230  Biso   1.000  C
  C50      1.0000 0.80400  0.82070  0.52230  Biso   1.000  C
  C51      1.0000 0.30400  0.67930  0.47770  Biso   1.000  C
  C52      1.0000 0.19600  0.32070  0.97770  Biso   1.000  C
  H49      1.0000 0.82080  0.19440  0.00380  Biso   1.000  H
  H50      1.0000 0.67920  0.80560  0.50380  Biso   1.000  H
  H51      1.0000 0.17920  0.69440  0.49620  Biso   1.000  H
  H52      1.0000 0.32080  0.30560  0.99620  Biso   1.000  H
  C53      1.0000 0.62560  0.22370  0.06420  Biso   1.000  C
  C54      1.0000 0.87440  0.77630  0.56420  Biso   1.000  C
  C55      1.0000 0.37440  0.72370  0.43580  Biso   1.000  C
  C56      1.0000 0.12560  0.27630  0.93580  Biso   1.000  C
  H53      1.0000 0.70490  0.26940  0.07340  Biso   1.000  H
  H54      1.0000 0.79510  0.73060  0.57340  Biso   1.000  H
  H55      1.0000 0.29510  0.76940  0.42660  Biso   1.000  H
  H56      1.0000 0.20490  0.23060  0.92660  Biso   1.000  H
  C57      1.0000 0.37250  0.25060  0.13740  Biso   1.000  C
  C58      1.0000 0.12750  0.74940  0.63740  Biso   1.000  C
  C59      1.0000 0.62750  0.75060  0.36260  Biso   1.000  C
  C60      1.0000 0.87250  0.24940  0.86260  Biso   1.000  C
  H57      1.0000 0.49520  0.28560  0.14780  Biso   1.000  H
  H58      1.0000 0.00480  0.71440  0.64780  Biso   1.000  H
  H59      1.0000 0.50480  0.78560  0.35220  Biso   1.000  H
  H60      1.0000 0.99520  0.21440  0.85220  Biso   1.000  H
  C61      1.0000 0.17100  0.30320  0.12380  Biso   1.000  C
  C62      1.0000 0.32900  0.69680  0.62380  Biso   1.000  C
  C63      1.0000 0.82900  0.80320  0.37620  Biso   1.000  C
  C64      1.0000 0.67100  0.19680  0.87620  Biso   1.000  C
  H61      1.0000 0.04110  0.28250  0.14040  Biso   1.000  H
  H62      1.0000 0.45890  0.71750  0.64040  Biso   1.000  H
  H63      1.0000 0.95890  0.78250  0.35960  Biso   1.000  H
  H64      1.0000 0.54110  0.21750  0.85960  Biso   1.000  H
  H65      1.0000 0.14900  0.30270  0.08740  Biso   1.000  H
  H66      1.0000 0.35100  0.69730  0.58740  Biso   1.000  H
  H67      1.0000 0.85100  0.80270  0.41260  Biso   1.000  H
  H68      1.0000 0.64900  0.19730  0.91260  Biso   1.000  H
  H69      1.0000 0.19750  0.35730  0.13500  Biso   1.000  H
  H70      1.0000 0.30250  0.64270  0.63500  Biso   1.000  H
  H71      1.0000 0.80250  0.85730  0.36500  Biso   1.000  H
  H72      1.0000 0.69750  0.14270  0.86500  Biso   1.000  H
  Cu1      1.0000 0.24053  0.24874  0.25184  Biso   1.000  Cu
  Cu2      1.0000 0.25947  0.75126  0.75184  Biso   1.000  Cu
  Cu3      1.0000 0.75947  0.74874  0.24816  Biso   1.000  Cu
  Cu4      1.0000 0.74053  0.25126  0.74816  Biso   1.000  Cu
  Cu5      1.0000 0.39793  0.48709  0.23473  Biso   1.000  Cu
  Cu6      1.0000 0.10207  0.51291  0.73473  Biso   1.000  Cu
  Cu7      1.0000 0.60207  0.98709  0.26527  Biso   1.000  Cu
  Cu8      1.0000 0.89793  0.01291  0.76527  Biso   1.000  Cu
  Cu9      1.0000 0.10394  0.00444  0.26618  Biso   1.000  Cu
  Cu10     1.0000 0.39606  0.99556  0.76618  Biso   1.000  Cu
  Cu11     1.0000 0.89606  0.50444  0.23382  Biso   1.000  Cu
  Cu12     1.0000 0.60394  0.49556  0.73382  Biso   1.000  Cu
  N1       1.0000 0.13100  0.29560  0.31790  Biso   1.000  N
  N2       1.0000 0.36900  0.70440  0.81790  Biso   1.000  N
  N3       1.0000 0.86900  0.79560  0.18210  Biso   1.000  N
  N4       1.0000 0.63100  0.20440  0.68210  Biso   1.000  N
  H73      1.0000 0.11880  0.34900  0.31350  Biso   1.000  H
  H74      1.0000 0.38120  0.65100  0.81350  Biso   1.000  H
  H75      1.0000 0.88120  0.84900  0.18650  Biso   1.000  H
  H76      1.0000 0.61880  0.15100  0.68650  Biso   1.000  H
  H77      1.0000 0.99310  0.27660  0.32330  Biso   1.000  H
  H78      1.0000 0.50690  0.72340  0.82330  Biso   1.000  H
  H79      1.0000 0.00690  0.77660  0.17670  Biso   1.000  H
  H80      1.0000 0.49310  0.22340  0.67670  Biso   1.000  H
  N5       1.0000 0.30340  0.20200  0.18190  Biso   1.000  N
  N6       1.0000 0.19660  0.79800  0.68190  Biso   1.000  N
  N7       1.0000 0.69660  0.70200  0.31810  Biso   1.000  N
  N8       1.0000 0.80340  0.29800  0.81810  Biso   1.000  N
  H81      1.0000 0.40920  0.16450  0.18630  Biso   1.000  H
  H82      1.0000 0.09080  0.83550  0.68630  Biso   1.000  H
  H83      1.0000 0.59080  0.66450  0.31370  Biso   1.000  H
  H84      1.0000 0.90920  0.33550  0.81370  Biso   1.000  H
  H85      1.0000 0.17970  0.17560  0.17240  Biso   1.000  H
  H86      1.0000 0.32030  0.82440  0.67240  Biso   1.000  H
  H87      1.0000 0.82030  0.67560  0.32760  Biso   1.000  H
  H88      1.0000 0.67970  0.32440  0.82760  Biso   1.000  H
  N9       1.0000 0.45360  0.34160  0.24250  Biso   1.000  N
  N10      1.0000 0.04640  0.65840  0.74250  Biso   1.000  N
  N11      1.0000 0.54640  0.84160  0.25750  Biso   1.000  N
  N12      1.0000 0.95360  0.15840  0.75750  Biso   1.000  N
  N13      1.0000 0.64580  0.33420  0.23890  Biso   1.000  N
  N14      1.0000 0.85420  0.66580  0.73890  Biso   1.000  N
  N15      1.0000 0.35420  0.83420  0.26110  Biso   1.000  N
  N16      1.0000 0.14580  0.16580  0.76110  Biso   1.000  N
  N17      1.0000 0.83180  0.33110  0.23340  Biso   1.000  N
  N18      1.0000 0.66820  0.66890  0.73340  Biso   1.000  N
  N19      1.0000 0.16820  0.83110  0.26660  Biso   1.000  N
  N20      1.0000 0.33180  0.16890  0.76660  Biso   1.000  N
  N21      1.0000 0.65230  0.50750  0.28200  Biso   1.000  N
  N22      1.0000 0.84770  0.49250  0.78200  Biso   1.000  N
  N23      1.0000 0.34770  0.00750  0.21800  Biso   1.000  N
  N24      1.0000 0.15230  0.99250  0.71800  Biso   1.000  N
  N25      1.0000 0.66530  0.47040  0.32420  Biso   1.000  N
  N26      1.0000 0.83470  0.52960  0.82420  Biso   1.000  N
  N27      1.0000 0.33470  0.97040  0.17580  Biso   1.000  N
  N28      1.0000 0.16530  0.02960  0.67580  Biso   1.000  N
  N29      1.0000 0.68220  0.43560  0.36010  Biso   1.000  N
  N30      1.0000 0.81780  0.56440  0.86010  Biso   1.000  N
  N31      1.0000 0.31780  0.93560  0.13990  Biso   1.000  N
  N32      1.0000 0.18220  0.06440  0.63990  Biso   1.000  N
  N33      1.0000 0.63630  0.50120  0.18450  Biso   1.000  N
  N34      1.0000 0.86370  0.49880  0.68450  Biso   1.000  N
  N35      1.0000 0.36370  0.00120  0.31550  Biso   1.000  N
  N36      1.0000 0.13630  0.99880  0.81550  Biso   1.000  N
  N37      1.0000 0.66160  0.50410  0.13840  Biso   1.000  N
  N38      1.0000 0.83840  0.49590  0.63840  Biso   1.000  N
  N39      1.0000 0.33840  0.00410  0.36160  Biso   1.000  N
  N40      1.0000 0.16160  0.99590  0.86160  Biso   1.000  N
  N41      1.0000 0.67460  0.51060  0.09700  Biso   1.000  N
  N42      1.0000 0.82540  0.48940  0.59700  Biso   1.000  N
  N43      1.0000 0.32540  0.01060  0.40300  Biso   1.000  N
  N44      1.0000 0.17460  0.98940  0.90300  Biso   1.000  N
  N45      1.0000 0.13800  0.48340  0.28570  Biso   1.000  N
  N46      1.0000 0.36200  0.51660  0.78570  Biso   1.000  N
  N47      1.0000 0.86200  0.98340  0.21430  Biso   1.000  N
  N48      1.0000 0.63800  0.01660  0.71430  Biso   1.000  N
  N49      1.0000 0.12310  0.47650  0.33170  Biso   1.000  N
  N50      1.0000 0.37690  0.52350  0.83170  Biso   1.000  N
  N51      1.0000 0.87690  0.97650  0.16830  Biso   1.000  N
  N52      1.0000 0.62310  0.02350  0.66830  Biso   1.000  N
  N53      1.0000 0.10990  0.46620  0.37370  Biso   1.000  N
  N54      1.0000 0.39010  0.53380  0.87370  Biso   1.000  N
  N55      1.0000 0.89010  0.96620  0.12630  Biso   1.000  N
  N56      1.0000 0.60990  0.03380  0.62630  Biso   1.000  N
  N57      1.0000 0.15200  0.49130  0.18720  Biso   1.000  N
  N58      1.0000 0.34800  0.50870  0.68720  Biso   1.000  N
  N59      1.0000 0.84800  0.99130  0.31280  Biso   1.000  N
  N60      1.0000 0.65200  0.00870  0.81280  Biso   1.000  N
  N61      1.0000 0.15610  0.52200  0.14560  Biso   1.000  N
  N62      1.0000 0.34390  0.47800  0.64560  Biso   1.000  N
  N63      1.0000 0.84390  0.02200  0.35440  Biso   1.000  N
  N64      1.0000 0.65610  0.97800  0.85440  Biso   1.000  N
  N65      1.0000 0.17280  0.55070  0.10520  Biso   1.000  N
  N66      1.0000 0.32720  0.44930  0.60520  Biso   1.000  N
  N67      1.0000 0.82720  0.05070  0.39480  Biso   1.000  N
  N68      1.0000 0.67280  0.94930  0.89480  Biso   1.000  N
  N69      1.0000 0.04910  0.15060  0.26040  Biso   1.000  N
  N70      1.0000 0.45090  0.84940  0.76040  Biso   1.000  N
  N71      1.0000 0.95090  0.65060  0.23960  Biso   1.000  N
  N72      1.0000 0.54910  0.34940  0.73960  Biso   1.000  N
  N73      1.0000 0.84560  0.15940  0.26500  Biso   1.000  N
  N74      1.0000 0.65440  0.84060  0.76500  Biso   1.000  N
  N75      1.0000 0.15440  0.65940  0.23500  Biso   1.000  N
  N76      1.0000 0.34560  0.34060  0.73500  Biso   1.000  N
  N77      1.0000 0.65390  0.15820  0.26780  Biso   1.000  N
  N78      1.0000 0.84610  0.84180  0.76780  Biso   1.000  N
  N79      1.0000 0.34610  0.65820  0.23220  Biso   1.000  N
  N80      1.0000 0.15390  0.34180  0.73220  Biso   1.000  N
