data_image0
_cell_length_a       11.8718
_cell_length_b       19.8063
_cell_length_c       14.98
_cell_angle_alpha    90
_cell_angle_beta     108.163
_cell_angle_gamma    90

_symmetry_space_group_name_H-M    "P 1"
_symmetry_int_tables_number       1

loop_
  _symmetry_equiv_pos_as_xyz
  'x, y, z'

loop_
  _atom_site_label
  _atom_site_occupancy
  _atom_site_fract_x
  _atom_site_fract_y
  _atom_site_fract_z
  _atom_site_thermal_displace_type
  _atom_site_B_iso_or_equiv
  _atom_site_type_symbol
  Pb1      1.0000 0.50000  0.50767  0.25000  Biso   1.000  Pb
  Pb2      1.0000 0.00000  0.00767  0.25000  Biso   1.000  Pb
  Pb3      1.0000 0.50000  0.49233  0.75000  Biso   1.000  Pb
  Pb4      1.0000 1.00000  0.99233  0.75000  Biso   1.000  Pb
  Cu1      1.0000 0.50000  0.50000  0.00000  Biso   1.000  Cu
  Cu2      1.0000 0.50000  0.50000  0.50000  Biso   1.000  Cu
  Cu3      1.0000 0.00000  0.00000  0.00000  Biso   1.000  Cu
  Cu4      1.0000 0.00000  0.00000  0.50000  Biso   1.000  Cu
  O1       1.0000 0.41500  0.55263  0.06640  Biso   1.000  O
  O2       1.0000 0.58500  0.55263  0.43360  Biso   1.000  O
  O3       1.0000 0.91500  0.05263  0.06640  Biso   1.000  O
  O4       1.0000 0.08500  0.05263  0.43360  Biso   1.000  O
  O5       1.0000 0.58500  0.44737  0.93360  Biso   1.000  O
  O6       1.0000 0.41500  0.44737  0.56640  Biso   1.000  O
  O7       1.0000 0.08500  0.94737  0.93360  Biso   1.000  O
  O8       1.0000 0.91500  0.94737  0.56640  Biso   1.000  O
  O9       1.0000 0.35950  0.46338  0.91350  Biso   1.000  O
  O10      1.0000 0.64050  0.46338  0.58650  Biso   1.000  O
  O11      1.0000 0.85950  0.96338  0.91350  Biso   1.000  O
  O12      1.0000 0.14050  0.96338  0.58650  Biso   1.000  O
  O13      1.0000 0.64050  0.53662  0.08650  Biso   1.000  O
  O14      1.0000 0.35950  0.53662  0.41350  Biso   1.000  O
  O15      1.0000 0.14050  0.03662  0.08650  Biso   1.000  O
  O16      1.0000 0.85950  0.03662  0.41350  Biso   1.000  O
  O17      1.0000 0.29430  0.45597  0.20820  Biso   1.000  O
  O18      1.0000 0.70570  0.45597  0.29180  Biso   1.000  O
  O19      1.0000 0.79430  0.95597  0.20820  Biso   1.000  O
  O20      1.0000 0.20570  0.95597  0.29180  Biso   1.000  O
  O21      1.0000 0.70570  0.54403  0.79180  Biso   1.000  O
  O22      1.0000 0.29430  0.54403  0.70820  Biso   1.000  O
  O23      1.0000 0.20570  0.04403  0.79180  Biso   1.000  O
  O24      1.0000 0.79430  0.04403  0.70820  Biso   1.000  O
  O25      1.0000 0.48730  0.41137  0.13930  Biso   1.000  O
  O26      1.0000 0.51270  0.41137  0.36070  Biso   1.000  O
  O27      1.0000 0.98730  0.91137  0.13930  Biso   1.000  O
  O28      1.0000 0.01270  0.91137  0.36070  Biso   1.000  O
  O29      1.0000 0.51270  0.58863  0.86070  Biso   1.000  O
  O30      1.0000 0.48730  0.58863  0.63930  Biso   1.000  O
  O31      1.0000 0.01270  0.08863  0.86070  Biso   1.000  O
  O32      1.0000 0.98730  0.08863  0.63930  Biso   1.000  O
  C1       1.0000 0.30060  0.55740  0.04200  Biso   1.000  C
  C2       1.0000 0.69940  0.55740  0.45800  Biso   1.000  C
  C3       1.0000 0.80060  0.05740  0.04200  Biso   1.000  C
  C4       1.0000 0.19940  0.05740  0.45800  Biso   1.000  C
  C5       1.0000 0.69940  0.44260  0.95800  Biso   1.000  C
  C6       1.0000 0.30060  0.44260  0.54200  Biso   1.000  C
  C7       1.0000 0.19940  0.94260  0.95800  Biso   1.000  C
  C8       1.0000 0.80060  0.94260  0.54200  Biso   1.000  C
  C9       1.0000 0.22310  0.52180  0.97180  Biso   1.000  C
  C10      1.0000 0.77690  0.52180  0.52820  Biso   1.000  C
  C11      1.0000 0.72310  0.02180  0.97180  Biso   1.000  C
  C12      1.0000 0.27690  0.02180  0.52820  Biso   1.000  C
  C13      1.0000 0.77690  0.47820  0.02820  Biso   1.000  C
  C14      1.0000 0.22310  0.47820  0.47180  Biso   1.000  C
  C15      1.0000 0.27690  0.97820  0.02820  Biso   1.000  C
  C16      1.0000 0.72310  0.97820  0.47180  Biso   1.000  C
  H1       1.0000 0.14270  0.52880  0.96210  Biso   1.000  H
  H2       1.0000 0.85730  0.52880  0.53790  Biso   1.000  H
  H3       1.0000 0.64270  0.02880  0.96210  Biso   1.000  H
  H4       1.0000 0.35730  0.02880  0.53790  Biso   1.000  H
  H5       1.0000 0.85730  0.47120  0.03790  Biso   1.000  H
  H6       1.0000 0.14270  0.47120  0.46210  Biso   1.000  H
  H7       1.0000 0.35730  0.97120  0.03790  Biso   1.000  H
  H8       1.0000 0.64270  0.97120  0.46210  Biso   1.000  H
  C17      1.0000 0.25410  0.47550  0.91280  Biso   1.000  C
  C18      1.0000 0.74590  0.47550  0.58720  Biso   1.000  C
  C19      1.0000 0.75410  0.97550  0.91280  Biso   1.000  C
  C20      1.0000 0.24590  0.97550  0.58720  Biso   1.000  C
  C21      1.0000 0.74590  0.52450  0.08720  Biso   1.000  C
  C22      1.0000 0.25410  0.52450  0.41280  Biso   1.000  C
  C23      1.0000 0.24590  0.02450  0.08720  Biso   1.000  C
  C24      1.0000 0.75410  0.02450  0.41280  Biso   1.000  C
  C25      1.0000 0.26170  0.39810  0.18260  Biso   1.000  C
  C26      1.0000 0.73830  0.39810  0.31740  Biso   1.000  C
  C27      1.0000 0.76170  0.89810  0.18260  Biso   1.000  C
  C28      1.0000 0.23830  0.89810  0.31740  Biso   1.000  C
  C29      1.0000 0.73830  0.60190  0.81740  Biso   1.000  C
  C30      1.0000 0.26170  0.60190  0.68260  Biso   1.000  C
  C31      1.0000 0.23830  0.10190  0.81740  Biso   1.000  C
  C32      1.0000 0.76170  0.10190  0.68260  Biso   1.000  C
  C33      1.0000 0.31790  0.34840  0.14500  Biso   1.000  C
  C34      1.0000 0.68210  0.34840  0.35500  Biso   1.000  C
  C35      1.0000 0.81790  0.84840  0.14500  Biso   1.000  C
  C36      1.0000 0.18210  0.84840  0.35500  Biso   1.000  C
  C37      1.0000 0.68210  0.65160  0.85500  Biso   1.000  C
  C38      1.0000 0.31790  0.65160  0.64500  Biso   1.000  C
  C39      1.0000 0.18210  0.15160  0.85500  Biso   1.000  C
  C40      1.0000 0.81790  0.15160  0.64500  Biso   1.000  C
  H9       1.0000 0.28200  0.30630  0.13130  Biso   1.000  H
  H10      1.0000 0.71800  0.30630  0.36870  Biso   1.000  H
  H11      1.0000 0.78200  0.80630  0.13130  Biso   1.000  H
  H12      1.0000 0.21800  0.80630  0.36870  Biso   1.000  H
  H13      1.0000 0.71800  0.69370  0.86870  Biso   1.000  H
  H14      1.0000 0.28200  0.69370  0.63130  Biso   1.000  H
  H15      1.0000 0.21800  0.19370  0.86870  Biso   1.000  H
  H16      1.0000 0.78200  0.19370  0.63130  Biso   1.000  H
  C41      1.0000 0.42490  0.35910  0.12710  Biso   1.000  C
  C42      1.0000 0.57510  0.35910  0.37290  Biso   1.000  C
  C43      1.0000 0.92490  0.85910  0.12710  Biso   1.000  C
  C44      1.0000 0.07510  0.85910  0.37290  Biso   1.000  C
  C45      1.0000 0.57510  0.64090  0.87290  Biso   1.000  C
  C46      1.0000 0.42490  0.64090  0.62710  Biso   1.000  C
  C47      1.0000 0.07510  0.14090  0.87290  Biso   1.000  C
  C48      1.0000 0.92490  0.14090  0.62710  Biso   1.000  C
  C49      1.0000 0.25720  0.61200  0.09680  Biso   1.000  C
  C50      1.0000 0.74280  0.61200  0.40320  Biso   1.000  C
  C51      1.0000 0.75720  0.11200  0.09680  Biso   1.000  C
  C52      1.0000 0.24280  0.11200  0.40320  Biso   1.000  C
  C53      1.0000 0.74280  0.38800  0.90320  Biso   1.000  C
  C54      1.0000 0.25720  0.38800  0.59680  Biso   1.000  C
  C55      1.0000 0.24280  0.88800  0.90320  Biso   1.000  C
  C56      1.0000 0.75720  0.88800  0.59680  Biso   1.000  C
  C57      1.0000 0.15990  0.43750  0.84230  Biso   1.000  C
  C58      1.0000 0.84010  0.43750  0.65770  Biso   1.000  C
  C59      1.0000 0.65990  0.93750  0.84230  Biso   1.000  C
  C60      1.0000 0.34010  0.93750  0.65770  Biso   1.000  C
  C61      1.0000 0.84010  0.56250  0.15770  Biso   1.000  C
  C62      1.0000 0.15990  0.56250  0.34230  Biso   1.000  C
  C63      1.0000 0.34010  0.06250  0.15770  Biso   1.000  C
  C64      1.0000 0.65990  0.06250  0.34230  Biso   1.000  C
  H17      1.0000 0.15870  0.39170  0.86300  Biso   1.000  H
  H18      1.0000 0.84130  0.39170  0.63700  Biso   1.000  H
  H19      1.0000 0.65870  0.89170  0.86300  Biso   1.000  H
  H20      1.0000 0.34130  0.89170  0.63700  Biso   1.000  H
  H21      1.0000 0.84130  0.60830  0.13700  Biso   1.000  H
  H22      1.0000 0.15870  0.60830  0.36300  Biso   1.000  H
  H23      1.0000 0.34130  0.10830  0.13700  Biso   1.000  H
  H24      1.0000 0.65870  0.10830  0.36300  Biso   1.000  H
  H25      1.0000 0.17560  0.43790  0.78310  Biso   1.000  H
  H26      1.0000 0.82440  0.43790  0.71690  Biso   1.000  H
  H27      1.0000 0.67560  0.93790  0.78310  Biso   1.000  H
  H28      1.0000 0.32440  0.93790  0.71690  Biso   1.000  H
  H29      1.0000 0.82440  0.56210  0.21690  Biso   1.000  H
  H30      1.0000 0.17560  0.56210  0.28310  Biso   1.000  H
  H31      1.0000 0.32440  0.06210  0.21690  Biso   1.000  H
  H32      1.0000 0.67560  0.06210  0.28310  Biso   1.000  H
  H33      1.0000 0.08450  0.45830  0.83500  Biso   1.000  H
  H34      1.0000 0.91550  0.45830  0.66500  Biso   1.000  H
  H35      1.0000 0.58450  0.95830  0.83500  Biso   1.000  H
  H36      1.0000 0.41550  0.95830  0.66500  Biso   1.000  H
  H37      1.0000 0.91550  0.54170  0.16500  Biso   1.000  H
  H38      1.0000 0.08450  0.54170  0.33500  Biso   1.000  H
  H39      1.0000 0.41550  0.04170  0.16500  Biso   1.000  H
  H40      1.0000 0.58450  0.04170  0.33500  Biso   1.000  H
  C65      1.0000 0.14050  0.37840  0.19320  Biso   1.000  C
  C66      1.0000 0.85950  0.37840  0.30680  Biso   1.000  C
  C67      1.0000 0.64050  0.87840  0.19320  Biso   1.000  C
  C68      1.0000 0.35950  0.87840  0.30680  Biso   1.000  C
  C69      1.0000 0.85950  0.62160  0.80680  Biso   1.000  C
  C70      1.0000 0.14050  0.62160  0.69320  Biso   1.000  C
  C71      1.0000 0.35950  0.12160  0.80680  Biso   1.000  C
  C72      1.0000 0.64050  0.12160  0.69320  Biso   1.000  C
  C73      1.0000 0.46760  0.30040  0.08110  Biso   1.000  C
  C74      1.0000 0.53240  0.30040  0.41890  Biso   1.000  C
  C75      1.0000 0.96760  0.80040  0.08110  Biso   1.000  C
  C76      1.0000 0.03240  0.80040  0.41890  Biso   1.000  C
  C77      1.0000 0.53240  0.69960  0.91890  Biso   1.000  C
  C78      1.0000 0.46760  0.69960  0.58110  Biso   1.000  C
  C79      1.0000 0.03240  0.19960  0.91890  Biso   1.000  C
  C80      1.0000 0.96760  0.19960  0.58110  Biso   1.000  C
  O33      1.0000 0.33370  0.60828  0.19060  Biso   1.000  O
  O34      1.0000 0.66630  0.60828  0.30940  Biso   1.000  O
  O35      1.0000 0.83370  0.10828  0.19060  Biso   1.000  O
  O36      1.0000 0.16630  0.10828  0.30940  Biso   1.000  O
  O37      1.0000 0.66630  0.39172  0.80940  Biso   1.000  O
  O38      1.0000 0.33370  0.39172  0.69060  Biso   1.000  O
  O39      1.0000 0.16630  0.89172  0.80940  Biso   1.000  O
  O40      1.0000 0.83370  0.89172  0.69060  Biso   1.000  O
  C81      1.0000 0.26550  0.67780  0.04810  Biso   1.000  C
  C82      1.0000 0.73450  0.67780  0.45190  Biso   1.000  C
  C83      1.0000 0.76550  0.17780  0.04810  Biso   1.000  C
  C84      1.0000 0.23450  0.17780  0.45190  Biso   1.000  C
  C85      1.0000 0.73450  0.32220  0.95190  Biso   1.000  C
  C86      1.0000 0.26550  0.32220  0.54810  Biso   1.000  C
  C87      1.0000 0.23450  0.82220  0.95190  Biso   1.000  C
  C88      1.0000 0.76550  0.82220  0.54810  Biso   1.000  C
  H41      1.0000 0.23940  0.71410  0.07920  Biso   1.000  H
  H42      1.0000 0.76060  0.71410  0.42080  Biso   1.000  H
  H43      1.0000 0.73940  0.21410  0.07920  Biso   1.000  H
  H44      1.0000 0.26060  0.21410  0.42080  Biso   1.000  H
  H45      1.0000 0.76060  0.28590  0.92080  Biso   1.000  H
  H46      1.0000 0.23940  0.28590  0.57920  Biso   1.000  H
  H47      1.0000 0.26060  0.78590  0.92080  Biso   1.000  H
  H48      1.0000 0.73940  0.78590  0.57920  Biso   1.000  H
  H49      1.0000 0.21610  0.67550  0.98380  Biso   1.000  H
  H50      1.0000 0.78390  0.67550  0.51620  Biso   1.000  H
  H51      1.0000 0.71610  0.17550  0.98380  Biso   1.000  H
  H52      1.0000 0.28390  0.17550  0.51620  Biso   1.000  H
  H53      1.0000 0.78390  0.32450  0.01620  Biso   1.000  H
  H54      1.0000 0.21610  0.32450  0.48380  Biso   1.000  H
  H55      1.0000 0.28390  0.82450  0.01620  Biso   1.000  H
  H56      1.0000 0.71610  0.82450  0.48380  Biso   1.000  H
  H57      1.0000 0.34620  0.68540  0.05040  Biso   1.000  H
  H58      1.0000 0.65380  0.68540  0.44960  Biso   1.000  H
  H59      1.0000 0.84620  0.18540  0.05040  Biso   1.000  H
  H60      1.0000 0.15380  0.18540  0.44960  Biso   1.000  H
  H61      1.0000 0.65380  0.31460  0.94960  Biso   1.000  H
  H62      1.0000 0.34620  0.31460  0.55040  Biso   1.000  H
  H63      1.0000 0.15380  0.81460  0.94960  Biso   1.000  H
  H64      1.0000 0.84620  0.81460  0.55040  Biso   1.000  H
  C89      1.0000 0.12890  0.59920  0.09590  Biso   1.000  C
  C90      1.0000 0.87110  0.59920  0.40410  Biso   1.000  C
  C91      1.0000 0.62890  0.09920  0.09590  Biso   1.000  C
  C92      1.0000 0.37110  0.09920  0.40410  Biso   1.000  C
  C93      1.0000 0.87110  0.40080  0.90410  Biso   1.000  C
  C94      1.0000 0.12890  0.40080  0.59590  Biso   1.000  C
  C95      1.0000 0.37110  0.90080  0.90410  Biso   1.000  C
  C96      1.0000 0.62890  0.90080  0.59590  Biso   1.000  C
  H65      1.0000 0.12160  0.55370  0.11520  Biso   1.000  H
  H66      1.0000 0.87840  0.55370  0.38480  Biso   1.000  H
  H67      1.0000 0.62160  0.05370  0.11520  Biso   1.000  H
  H68      1.0000 0.37840  0.05370  0.38480  Biso   1.000  H
  H69      1.0000 0.87840  0.44630  0.88480  Biso   1.000  H
  H70      1.0000 0.12160  0.44630  0.61520  Biso   1.000  H
  H71      1.0000 0.37840  0.94630  0.88480  Biso   1.000  H
  H72      1.0000 0.62160  0.94630  0.61520  Biso   1.000  H
  H73      1.0000 0.07580  0.60610  0.03350  Biso   1.000  H
  H74      1.0000 0.92420  0.60610  0.46650  Biso   1.000  H
  H75      1.0000 0.57580  0.10610  0.03350  Biso   1.000  H
  H76      1.0000 0.42420  0.10610  0.46650  Biso   1.000  H
  H77      1.0000 0.92420  0.39390  0.96650  Biso   1.000  H
  H78      1.0000 0.07580  0.39390  0.53350  Biso   1.000  H
  H79      1.0000 0.42420  0.89390  0.96650  Biso   1.000  H
  H80      1.0000 0.57580  0.89390  0.53350  Biso   1.000  H
  H81      1.0000 0.10930  0.63000  0.13830  Biso   1.000  H
  H82      1.0000 0.89070  0.63000  0.36170  Biso   1.000  H
  H83      1.0000 0.60930  0.13000  0.13830  Biso   1.000  H
  H84      1.0000 0.39070  0.13000  0.36170  Biso   1.000  H
  H85      1.0000 0.89070  0.37000  0.86170  Biso   1.000  H
  H86      1.0000 0.10930  0.37000  0.63830  Biso   1.000  H
  H87      1.0000 0.39070  0.87000  0.86170  Biso   1.000  H
  H88      1.0000 0.60930  0.87000  0.63830  Biso   1.000  H
  C97      1.0000 0.34130  0.66640  0.24920  Biso   1.000  C
  C98      1.0000 0.65870  0.66640  0.25080  Biso   1.000  C
  C99      1.0000 0.84130  0.16640  0.24920  Biso   1.000  C
  C100     1.0000 0.15870  0.16640  0.25080  Biso   1.000  C
  C101     1.0000 0.65870  0.33360  0.75080  Biso   1.000  C
  C102     1.0000 0.34130  0.33360  0.74920  Biso   1.000  C
  C103     1.0000 0.15870  0.83360  0.75080  Biso   1.000  C
  C104     1.0000 0.84130  0.83360  0.74920  Biso   1.000  C
  H89      1.0000 0.37710  0.70300  0.22580  Biso   1.000  H
  H90      1.0000 0.62290  0.70300  0.27420  Biso   1.000  H
  H91      1.0000 0.87710  0.20300  0.22580  Biso   1.000  H
  H92      1.0000 0.12290  0.20300  0.27420  Biso   1.000  H
  H93      1.0000 0.62290  0.29700  0.77420  Biso   1.000  H
  H94      1.0000 0.37710  0.29700  0.72580  Biso   1.000  H
  H95      1.0000 0.12290  0.79700  0.77420  Biso   1.000  H
  H96      1.0000 0.87710  0.79700  0.72580  Biso   1.000  H
  H97      1.0000 0.38880  0.65580  0.31230  Biso   1.000  H
  H98      1.0000 0.61120  0.65580  0.18770  Biso   1.000  H
  H99      1.0000 0.88880  0.15580  0.31230  Biso   1.000  H
  H100     1.0000 0.11120  0.15580  0.18770  Biso   1.000  H
  H101     1.0000 0.61120  0.34420  0.68770  Biso   1.000  H
  H102     1.0000 0.38880  0.34420  0.81230  Biso   1.000  H
  H103     1.0000 0.11120  0.84420  0.68770  Biso   1.000  H
  H104     1.0000 0.88880  0.84420  0.81230  Biso   1.000  H
  H105     1.0000 0.26320  0.67930  0.24880  Biso   1.000  H
  H106     1.0000 0.73680  0.67930  0.25120  Biso   1.000  H
  H107     1.0000 0.76320  0.17930  0.24880  Biso   1.000  H
  H108     1.0000 0.23680  0.17930  0.25120  Biso   1.000  H
  H109     1.0000 0.73680  0.32070  0.75120  Biso   1.000  H
  H110     1.0000 0.26320  0.32070  0.74880  Biso   1.000  H
  H111     1.0000 0.23680  0.82070  0.75120  Biso   1.000  H
  H112     1.0000 0.76320  0.82070  0.74880  Biso   1.000  H
  F1       1.0000 0.44330  0.30710  0.99160  Biso   1.000  F
  F2       1.0000 0.55670  0.30710  0.50840  Biso   1.000  F
  F3       1.0000 0.94330  0.80710  0.99160  Biso   1.000  F
  F4       1.0000 0.05670  0.80710  0.50840  Biso   1.000  F
  F5       1.0000 0.55670  0.69290  0.00840  Biso   1.000  F
  F6       1.0000 0.44330  0.69290  0.49160  Biso   1.000  F
  F7       1.0000 0.05670  0.19290  0.00840  Biso   1.000  F
  F8       1.0000 0.94330  0.19290  0.49160  Biso   1.000  F
  F9       1.0000 0.06460  0.42733  0.16780  Biso   1.000  F
  F10      1.0000 0.93540  0.42733  0.33220  Biso   1.000  F
  F11      1.0000 0.56460  0.92733  0.16780  Biso   1.000  F
  F12      1.0000 0.43540  0.92733  0.33220  Biso   1.000  F
  F13      1.0000 0.93540  0.57267  0.83220  Biso   1.000  F
  F14      1.0000 0.06460  0.57267  0.66780  Biso   1.000  F
  F15      1.0000 0.43540  0.07267  0.83220  Biso   1.000  F
  F16      1.0000 0.56460  0.07267  0.66780  Biso   1.000  F
  F17      1.0000 0.09290  0.32480  0.14830  Biso   1.000  F
  F18      1.0000 0.90710  0.32480  0.35170  Biso   1.000  F
  F19      1.0000 0.59290  0.82480  0.14830  Biso   1.000  F
  F20      1.0000 0.40710  0.82480  0.35170  Biso   1.000  F
  F21      1.0000 0.90710  0.67520  0.85170  Biso   1.000  F
  F22      1.0000 0.09290  0.67520  0.64830  Biso   1.000  F
  F23      1.0000 0.40710  0.17520  0.85170  Biso   1.000  F
  F24      1.0000 0.59290  0.17520  0.64830  Biso   1.000  F
  F25      1.0000 0.15060  0.36620  0.28190  Biso   1.000  F
  F26      1.0000 0.84940  0.36620  0.21810  Biso   1.000  F
  F27      1.0000 0.65060  0.86620  0.28190  Biso   1.000  F
  F28      1.0000 0.34940  0.86620  0.21810  Biso   1.000  F
  F29      1.0000 0.84940  0.63380  0.71810  Biso   1.000  F
  F30      1.0000 0.15060  0.63380  0.78190  Biso   1.000  F
  F31      1.0000 0.34940  0.13380  0.71810  Biso   1.000  F
  F32      1.0000 0.65060  0.13380  0.78190  Biso   1.000  F
  F33      1.0000 0.58530  0.29630  0.11080  Biso   1.000  F
  F34      1.0000 0.41470  0.29630  0.38920  Biso   1.000  F
  F35      1.0000 0.08530  0.79630  0.11080  Biso   1.000  F
  F36      1.0000 0.91470  0.79630  0.38920  Biso   1.000  F
  F37      1.0000 0.41470  0.70370  0.88920  Biso   1.000  F
  F38      1.0000 0.58530  0.70370  0.61080  Biso   1.000  F
  F39      1.0000 0.91470  0.20370  0.88920  Biso   1.000  F
  F40      1.0000 0.08530  0.20370  0.61080  Biso   1.000  F
  F41      1.0000 0.43270  0.24160  0.09780  Biso   1.000  F
  F42      1.0000 0.56730  0.24160  0.40220  Biso   1.000  F
  F43      1.0000 0.93270  0.74160  0.09780  Biso   1.000  F
  F44      1.0000 0.06730  0.74160  0.40220  Biso   1.000  F
  F45      1.0000 0.56730  0.75840  0.90220  Biso   1.000  F
  F46      1.0000 0.43270  0.75840  0.59780  Biso   1.000  F
  F47      1.0000 0.06730  0.25840  0.90220  Biso   1.000  F
  F48      1.0000 0.93270  0.25840  0.59780  Biso   1.000  F
