data_image0
_cell_length_a       5.3821
_cell_length_b       12.563
_cell_length_c       13.8205
_cell_angle_alpha    90
_cell_angle_beta     101.267
_cell_angle_gamma    90

_symmetry_space_group_name_H-M    "P 1"
_symmetry_int_tables_number       1

loop_
  _symmetry_equiv_pos_as_xyz
  'x, y, z'

loop_
  _atom_site_label
  _atom_site_occupancy
  _atom_site_fract_x
  _atom_site_fract_y
  _atom_site_fract_z
  _atom_site_thermal_displace_type
  _atom_site_B_iso_or_equiv
  _atom_site_type_symbol
  Cu1      1.0000 0.00000  0.50000  0.00000  Biso   1.000  Cu
  Cu2      1.0000 0.00000  0.00000  0.50000  Biso   1.000  Cu
  O1       1.0000 0.04120  0.34677  0.00359  Biso   1.000  O
  O2       1.0000 0.95880  0.84677  0.49641  Biso   1.000  O
  O3       1.0000 0.95880  0.65323  0.99641  Biso   1.000  O
  O4       1.0000 0.04120  0.15323  0.50359  Biso   1.000  O
  O5       1.0000 0.75570  0.49770  0.08479  Biso   1.000  O
  O6       1.0000 0.24430  0.99770  0.41521  Biso   1.000  O
  O7       1.0000 0.24430  0.50230  0.91521  Biso   1.000  O
  O8       1.0000 0.75570  0.00230  0.58479  Biso   1.000  O
  O9       1.0000 0.32320  0.51857  0.15802  Biso   1.000  O
  O10      1.0000 0.67680  0.01857  0.34198  Biso   1.000  O
  O11      1.0000 0.67680  0.48143  0.84198  Biso   1.000  O
  O12      1.0000 0.32320  0.98143  0.65802  Biso   1.000  O
  O13      1.0000 0.39120  0.35072  0.22164  Biso   1.000  O
  O14      1.0000 0.60880  0.85072  0.27836  Biso   1.000  O
  O15      1.0000 0.60880  0.64928  0.77836  Biso   1.000  O
  O16      1.0000 0.39120  0.14928  0.72164  Biso   1.000  O
  C1       1.0000 0.92420  0.28594  0.05268  Biso   1.000  C
  C2       1.0000 0.07580  0.78594  0.44732  Biso   1.000  C
  C3       1.0000 0.07580  0.71406  0.94732  Biso   1.000  C
  C4       1.0000 0.92420  0.21406  0.55268  Biso   1.000  C
  C5       1.0000 0.74990  0.31103  0.10987  Biso   1.000  C
  C6       1.0000 0.25010  0.81103  0.39013  Biso   1.000  C
  C7       1.0000 0.25010  0.68897  0.89013  Biso   1.000  C
  C8       1.0000 0.74990  0.18897  0.60987  Biso   1.000  C
  H1       1.0000 0.67690  0.25640  0.14020  Biso   1.000  H
  H2       1.0000 0.32310  0.75640  0.35980  Biso   1.000  H
  H3       1.0000 0.32310  0.74360  0.85980  Biso   1.000  H
  H4       1.0000 0.67690  0.24360  0.64020  Biso   1.000  H
  C9       1.0000 0.67920  0.41656  0.12383  Biso   1.000  C
  C10      1.0000 0.32080  0.91656  0.37617  Biso   1.000  C
  C11      1.0000 0.32080  0.58344  0.87617  Biso   1.000  C
  C12      1.0000 0.67920  0.08344  0.62383  Biso   1.000  C
  C13      1.0000 0.98970  0.16804  0.04183  Biso   1.000  C
  C14      1.0000 0.01030  0.66804  0.45817  Biso   1.000  C
  C15      1.0000 0.01030  0.83196  0.95817  Biso   1.000  C
  C16      1.0000 0.98970  0.33196  0.54183  Biso   1.000  C
  C17      1.0000 0.50940  0.44223  0.19762  Biso   1.000  C
  C18      1.0000 0.49060  0.94223  0.30238  Biso   1.000  C
  C19      1.0000 0.49060  0.55777  0.80238  Biso   1.000  C
  C20      1.0000 0.50940  0.05777  0.69762  Biso   1.000  C
  H5       1.0000 0.61450  0.47130  0.25770  Biso   1.000  H
  H6       1.0000 0.38550  0.97130  0.24230  Biso   1.000  H
  H7       1.0000 0.38550  0.52870  0.74230  Biso   1.000  H
  H8       1.0000 0.61450  0.02870  0.75770  Biso   1.000  H
  F1       1.0000 0.23580  0.15233  0.05014  Biso   1.000  F
  F2       1.0000 0.76420  0.65233  0.44986  Biso   1.000  F
  F3       1.0000 0.76420  0.84767  0.94986  Biso   1.000  F
  F4       1.0000 0.23580  0.34767  0.55014  Biso   1.000  F
  F5       1.0000 0.88420  0.13283  0.95248  Biso   1.000  F
  F6       1.0000 0.11580  0.63283  0.54752  Biso   1.000  F
  F7       1.0000 0.11580  0.86717  0.04752  Biso   1.000  F
  F8       1.0000 0.88420  0.36717  0.45248  Biso   1.000  F
  F9       1.0000 0.91140  0.10600  0.10679  Biso   1.000  F
  F10      1.0000 0.08860  0.60600  0.39321  Biso   1.000  F
  F11      1.0000 0.08860  0.89400  0.89321  Biso   1.000  F
  F12      1.0000 0.91140  0.39400  0.60679  Biso   1.000  F
  C21      1.0000 0.39270  0.62623  0.18435  Biso   1.000  C
  C22      1.0000 0.60730  0.12623  0.31565  Biso   1.000  C
  C23      1.0000 0.60730  0.37377  0.81565  Biso   1.000  C
  C24      1.0000 0.39270  0.87377  0.68435  Biso   1.000  C
  H9       1.0000 0.24320  0.66970  0.17510  Biso   1.000  H
  H10      1.0000 0.75680  0.16970  0.32490  Biso   1.000  H
  H11      1.0000 0.75680  0.33030  0.82490  Biso   1.000  H
  H12      1.0000 0.24320  0.83030  0.67510  Biso   1.000  H
  H13      1.0000 0.50430  0.65220  0.14340  Biso   1.000  H
  H14      1.0000 0.49570  0.15220  0.35660  Biso   1.000  H
  H15      1.0000 0.49570  0.34780  0.85660  Biso   1.000  H
  H16      1.0000 0.50430  0.84780  0.64340  Biso   1.000  H
  H17      1.0000 0.47700  0.62900  0.25220  Biso   1.000  H
  H18      1.0000 0.52300  0.12900  0.24780  Biso   1.000  H
  H19      1.0000 0.52300  0.37100  0.74780  Biso   1.000  H
  H20      1.0000 0.47700  0.87100  0.75220  Biso   1.000  H
  C25      1.0000 0.26870  0.36682  0.30395  Biso   1.000  C
  C26      1.0000 0.73130  0.86682  0.19605  Biso   1.000  C
  C27      1.0000 0.73130  0.63318  0.69605  Biso   1.000  C
  C28      1.0000 0.26870  0.13318  0.80395  Biso   1.000  C
  H21      1.0000 0.14400  0.42210  0.28840  Biso   1.000  H
  H22      1.0000 0.85600  0.92210  0.21160  Biso   1.000  H
  H23      1.0000 0.85600  0.57790  0.71160  Biso   1.000  H
  H24      1.0000 0.14400  0.07790  0.78840  Biso   1.000  H
  H25      1.0000 0.39240  0.38720  0.36080  Biso   1.000  H
  H26      1.0000 0.60760  0.88720  0.13920  Biso   1.000  H
  H27      1.0000 0.60760  0.61280  0.63920  Biso   1.000  H
  H28      1.0000 0.39240  0.11280  0.86080  Biso   1.000  H
  H29      1.0000 0.18780  0.30200  0.31770  Biso   1.000  H
  H30      1.0000 0.81220  0.80200  0.18230  Biso   1.000  H
  H31      1.0000 0.81220  0.69800  0.68230  Biso   1.000  H
  H32      1.0000 0.18780  0.19800  0.81770  Biso   1.000  H
