data_image0
_cell_length_a       7.1631
_cell_length_b       8.3919
_cell_length_c       19.652
_cell_angle_alpha    90
_cell_angle_beta     90
_cell_angle_gamma    90

_symmetry_space_group_name_H-M    "P 1"
_symmetry_int_tables_number       1

loop_
  _symmetry_equiv_pos_as_xyz
  'x, y, z'

loop_
  _atom_site_label
  _atom_site_occupancy
  _atom_site_fract_x
  _atom_site_fract_y
  _atom_site_fract_z
  _atom_site_thermal_displace_type
  _atom_site_B_iso_or_equiv
  _atom_site_type_symbol
  Cu1      1.0000 0.30933  0.28137  0.27108  Biso   1.000  Cu
  Cu2      1.0000 0.19067  0.71863  0.77108  Biso   1.000  Cu
  Cu3      1.0000 0.80933  0.21863  0.72892  Biso   1.000  Cu
  Cu4      1.0000 0.69067  0.78137  0.22892  Biso   1.000  Cu
  O1       1.0000 0.34920  0.10340  0.32854  Biso   1.000  O
  O2       1.0000 0.15080  0.89660  0.82854  Biso   1.000  O
  O3       1.0000 0.84920  0.39660  0.67146  Biso   1.000  O
  O4       1.0000 0.65080  0.60340  0.17146  Biso   1.000  O
  N1       1.0000 0.19380  0.40350  0.34360  Biso   1.000  N
  N2       1.0000 0.30620  0.59650  0.84360  Biso   1.000  N
  N3       1.0000 0.69380  0.09650  0.65640  Biso   1.000  N
  N4       1.0000 0.80620  0.90350  0.15640  Biso   1.000  N
  N5       1.0000 0.25150  0.47720  0.21200  Biso   1.000  N
  N6       1.0000 0.24850  0.52280  0.71200  Biso   1.000  N
  N7       1.0000 0.75150  0.02280  0.78800  Biso   1.000  N
  N8       1.0000 0.74850  0.97720  0.28800  Biso   1.000  N
  H1       1.0000 0.35500  0.53300  0.21500  Biso   1.000  H
  H2       1.0000 0.14500  0.46700  0.71500  Biso   1.000  H
  H3       1.0000 0.85500  0.96700  0.78500  Biso   1.000  H
  H4       1.0000 0.64500  0.03300  0.28500  Biso   1.000  H
  N9       1.0000 0.36090  0.14670  0.19093  Biso   1.000  N
  N10      1.0000 0.13910  0.85330  0.69093  Biso   1.000  N
  N11      1.0000 0.86090  0.35330  0.80907  Biso   1.000  N
  N12      1.0000 0.63910  0.64670  0.30907  Biso   1.000  N
  N13      1.0000 0.36040  0.00720  0.19717  Biso   1.000  N
  N14      1.0000 0.13960  0.99280  0.69717  Biso   1.000  N
  N15      1.0000 0.86040  0.49280  0.80283  Biso   1.000  N
  N16      1.0000 0.63960  0.50720  0.30283  Biso   1.000  N
  N17      1.0000 0.36530  0.86960  0.20110  Biso   1.000  N
  N18      1.0000 0.13470  0.13040  0.70110  Biso   1.000  N
  N19      1.0000 0.86530  0.63040  0.79890  Biso   1.000  N
  N20      1.0000 0.63470  0.36960  0.29890  Biso   1.000  N
  C1       1.0000 0.28660  0.07840  0.39040  Biso   1.000  C
  C2       1.0000 0.21340  0.92160  0.89040  Biso   1.000  C
  C3       1.0000 0.78660  0.42160  0.60960  Biso   1.000  C
  C4       1.0000 0.71340  0.57840  0.10960  Biso   1.000  C
  C5       1.0000 0.31530  0.92740  0.42040  Biso   1.000  C
  C6       1.0000 0.18470  0.07260  0.92040  Biso   1.000  C
  C7       1.0000 0.81530  0.57260  0.57960  Biso   1.000  C
  C8       1.0000 0.68470  0.42740  0.07960  Biso   1.000  C
  H5       1.0000 0.37970  0.84950  0.39630  Biso   1.000  H
  H6       1.0000 0.12030  0.15050  0.89630  Biso   1.000  H
  H7       1.0000 0.87970  0.65050  0.60370  Biso   1.000  H
  H8       1.0000 0.62030  0.34950  0.10370  Biso   1.000  H
  C9       1.0000 0.25000  0.89320  0.48450  Biso   1.000  C
  C10      1.0000 0.25000  0.10680  0.98450  Biso   1.000  C
  C11      1.0000 0.75000  0.60680  0.51550  Biso   1.000  C
  C12      1.0000 0.75000  0.39320  0.01550  Biso   1.000  C
  H9       1.0000 0.27030  0.79240  0.50270  Biso   1.000  H
  H10      1.0000 0.22970  0.20760  0.00270  Biso   1.000  H
  H11      1.0000 0.77030  0.70760  0.49730  Biso   1.000  H
  H12      1.0000 0.72970  0.29240  0.99730  Biso   1.000  H
  C13      1.0000 0.15770  0.00180  0.52140  Biso   1.000  C
  C14      1.0000 0.34230  0.99820  0.02140  Biso   1.000  C
  C15      1.0000 0.65770  0.49820  0.47860  Biso   1.000  C
  C16      1.0000 0.84230  0.50180  0.97860  Biso   1.000  C
  H13      1.0000 0.11540  0.97620  0.56480  Biso   1.000  H
  H14      1.0000 0.38460  0.02380  0.06480  Biso   1.000  H
  H15      1.0000 0.61540  0.52380  0.43520  Biso   1.000  H
  H16      1.0000 0.88460  0.47620  0.93520  Biso   1.000  H
  C17      1.0000 0.12580  0.14870  0.49550  Biso   1.000  C
  C18      1.0000 0.37420  0.85130  0.99550  Biso   1.000  C
  C19      1.0000 0.62580  0.35130  0.50450  Biso   1.000  C
  C20      1.0000 0.87420  0.64870  0.00450  Biso   1.000  C
  H17      1.0000 0.06090  0.22310  0.52140  Biso   1.000  H
  H18      1.0000 0.43910  0.77690  0.02140  Biso   1.000  H
  H19      1.0000 0.56090  0.27690  0.47860  Biso   1.000  H
  H20      1.0000 0.93910  0.72310  0.97860  Biso   1.000  H
  C21      1.0000 0.19030  0.19210  0.42890  Biso   1.000  C
  C22      1.0000 0.30970  0.80790  0.92890  Biso   1.000  C
  C23      1.0000 0.69030  0.30790  0.57110  Biso   1.000  C
  C24      1.0000 0.80970  0.69210  0.07110  Biso   1.000  C
  C25      1.0000 0.15070  0.35020  0.40320  Biso   1.000  C
  C26      1.0000 0.34930  0.64980  0.90320  Biso   1.000  C
  C27      1.0000 0.65070  0.14980  0.59680  Biso   1.000  C
  C28      1.0000 0.84930  0.85020  0.09680  Biso   1.000  C
  H21      1.0000 0.08850  0.41970  0.43220  Biso   1.000  H
  H22      1.0000 0.41150  0.58030  0.93220  Biso   1.000  H
  H23      1.0000 0.58850  0.08030  0.56780  Biso   1.000  H
  H24      1.0000 0.91150  0.91970  0.06780  Biso   1.000  H
  C29      1.0000 0.14920  0.56790  0.32200  Biso   1.000  C
  C30      1.0000 0.35080  0.43210  0.82200  Biso   1.000  C
  C31      1.0000 0.64920  0.93210  0.67800  Biso   1.000  C
  C32      1.0000 0.85080  0.06790  0.17800  Biso   1.000  C
  H25      1.0000 0.25510  0.63730  0.33020  Biso   1.000  H
  H26      1.0000 0.24490  0.36270  0.83020  Biso   1.000  H
  H27      1.0000 0.75510  0.86270  0.66980  Biso   1.000  H
  H28      1.0000 0.74490  0.13730  0.16980  Biso   1.000  H
  H29      1.0000 0.04350  0.60800  0.34770  Biso   1.000  H
  H30      1.0000 0.45650  0.39200  0.84770  Biso   1.000  H
  H31      1.0000 0.54350  0.89200  0.65230  Biso   1.000  H
  H32      1.0000 0.95650  0.10800  0.15230  Biso   1.000  H
  C33      1.0000 0.10380  0.56470  0.24810  Biso   1.000  C
  C34      1.0000 0.39620  0.43530  0.74810  Biso   1.000  C
  C35      1.0000 0.60380  0.93530  0.75190  Biso   1.000  C
  C36      1.0000 0.89620  0.06470  0.25190  Biso   1.000  C
  H33      1.0000 0.98440  0.51270  0.24100  Biso   1.000  H
  H34      1.0000 0.51560  0.48730  0.74100  Biso   1.000  H
  H35      1.0000 0.48440  0.98730  0.75900  Biso   1.000  H
  H36      1.0000 0.01560  0.01270  0.25900  Biso   1.000  H
  H37      1.0000 0.09540  0.67260  0.23060  Biso   1.000  H
  H38      1.0000 0.40460  0.32740  0.73060  Biso   1.000  H
  H39      1.0000 0.59540  0.82740  0.76940  Biso   1.000  H
  H40      1.0000 0.90460  0.17260  0.26940  Biso   1.000  H
  C37      1.0000 0.20110  0.45600  0.14000  Biso   1.000  C
  C38      1.0000 0.29890  0.54400  0.64000  Biso   1.000  C
  C39      1.0000 0.70110  0.04400  0.86000  Biso   1.000  C
  C40      1.0000 0.79890  0.95600  0.36000  Biso   1.000  C
  H41      1.0000 0.09040  0.39200  0.13680  Biso   1.000  H
  H42      1.0000 0.40960  0.60800  0.63680  Biso   1.000  H
  H43      1.0000 0.59040  0.10800  0.86320  Biso   1.000  H
  H44      1.0000 0.90960  0.89200  0.36320  Biso   1.000  H
  H45      1.0000 0.30160  0.40390  0.11660  Biso   1.000  H
  H46      1.0000 0.19840  0.59610  0.61660  Biso   1.000  H
  H47      1.0000 0.80160  0.09610  0.88340  Biso   1.000  H
  H48      1.0000 0.69840  0.90390  0.38340  Biso   1.000  H
  H49      1.0000 0.17850  0.55820  0.11970  Biso   1.000  H
  H50      1.0000 0.32150  0.44180  0.61970  Biso   1.000  H
  H51      1.0000 0.67850  0.94180  0.88030  Biso   1.000  H
  H52      1.0000 0.82150  0.05820  0.38030  Biso   1.000  H
