data_image0
_cell_length_a       12.2342
_cell_length_b       25.093
_cell_length_c       19.6064
_cell_angle_alpha    90
_cell_angle_beta     104.225
_cell_angle_gamma    90

_symmetry_space_group_name_H-M    "P 1"
_symmetry_int_tables_number       1

loop_
  _symmetry_equiv_pos_as_xyz
  'x, y, z'

loop_
  _atom_site_label
  _atom_site_occupancy
  _atom_site_fract_x
  _atom_site_fract_y
  _atom_site_fract_z
  _atom_site_thermal_displace_type
  _atom_site_B_iso_or_equiv
  _atom_site_type_symbol
  Cu1      1.0000 0.58123  0.72198  0.96223  Biso   1.000  Cu
  Cu2      1.0000 0.08123  0.22198  0.96223  Biso   1.000  Cu
  Cu3      1.0000 0.41877  0.72198  0.53777  Biso   1.000  Cu
  Cu4      1.0000 0.91877  0.22198  0.53777  Biso   1.000  Cu
  Cu5      1.0000 0.41877  0.27802  0.03777  Biso   1.000  Cu
  Cu6      1.0000 0.91877  0.77802  0.03777  Biso   1.000  Cu
  Cu7      1.0000 0.58123  0.27802  0.46223  Biso   1.000  Cu
  Cu8      1.0000 0.08123  0.77802  0.46223  Biso   1.000  Cu
  O1       1.0000 0.58770  0.79103  0.91576  Biso   1.000  O
  O2       1.0000 0.08770  0.29103  0.91576  Biso   1.000  O
  O3       1.0000 0.41230  0.79103  0.58424  Biso   1.000  O
  O4       1.0000 0.91230  0.29103  0.58424  Biso   1.000  O
  O5       1.0000 0.41230  0.20897  0.08424  Biso   1.000  O
  O6       1.0000 0.91230  0.70897  0.08424  Biso   1.000  O
  O7       1.0000 0.58770  0.20897  0.41576  Biso   1.000  O
  O8       1.0000 0.08770  0.70897  0.41576  Biso   1.000  O
  O9       1.0000 0.77400  0.79649  0.94915  Biso   1.000  O
  O10      1.0000 0.27400  0.29649  0.94915  Biso   1.000  O
  O11      1.0000 0.22600  0.79649  0.55085  Biso   1.000  O
  O12      1.0000 0.72600  0.29649  0.55085  Biso   1.000  O
  O13      1.0000 0.22600  0.20351  0.05085  Biso   1.000  O
  O14      1.0000 0.72600  0.70351  0.05085  Biso   1.000  O
  O15      1.0000 0.77400  0.20351  0.44915  Biso   1.000  O
  O16      1.0000 0.27400  0.70351  0.44915  Biso   1.000  O
  C1       1.0000 0.68070  0.81517  0.92180  Biso   1.000  C
  C2       1.0000 0.18070  0.31517  0.92180  Biso   1.000  C
  C3       1.0000 0.31930  0.81517  0.57820  Biso   1.000  C
  C4       1.0000 0.81930  0.31517  0.57820  Biso   1.000  C
  C5       1.0000 0.31930  0.18483  0.07820  Biso   1.000  C
  C6       1.0000 0.81930  0.68483  0.07820  Biso   1.000  C
  C7       1.0000 0.68070  0.18483  0.42180  Biso   1.000  C
  C8       1.0000 0.18070  0.68483  0.42180  Biso   1.000  C
  C9       1.0000 0.67240  0.87153  0.89340  Biso   1.000  C
  C10      1.0000 0.17240  0.37153  0.89340  Biso   1.000  C
  C11      1.0000 0.32760  0.87153  0.60660  Biso   1.000  C
  C12      1.0000 0.82760  0.37153  0.60660  Biso   1.000  C
  C13      1.0000 0.32760  0.12847  0.10660  Biso   1.000  C
  C14      1.0000 0.82760  0.62847  0.10660  Biso   1.000  C
  C15      1.0000 0.67240  0.12847  0.39340  Biso   1.000  C
  C16      1.0000 0.17240  0.62847  0.39340  Biso   1.000  C
  C17      1.0000 0.56760  0.89690  0.87100  Biso   1.000  C
  C18      1.0000 0.06760  0.39690  0.87100  Biso   1.000  C
  C19      1.0000 0.43240  0.89690  0.62900  Biso   1.000  C
  C20      1.0000 0.93240  0.39690  0.62900  Biso   1.000  C
  C21      1.0000 0.43240  0.10310  0.12900  Biso   1.000  C
  C22      1.0000 0.93240  0.60310  0.12900  Biso   1.000  C
  C23      1.0000 0.56760  0.10310  0.37100  Biso   1.000  C
  C24      1.0000 0.06760  0.60310  0.37100  Biso   1.000  C
  H1       1.0000 0.50030  0.87830  0.87190  Biso   1.000  H
  H2       1.0000 0.00030  0.37830  0.87190  Biso   1.000  H
  H3       1.0000 0.49970  0.87830  0.62810  Biso   1.000  H
  H4       1.0000 0.99970  0.37830  0.62810  Biso   1.000  H
  H5       1.0000 0.49970  0.12170  0.12810  Biso   1.000  H
  H6       1.0000 0.99970  0.62170  0.12810  Biso   1.000  H
  H7       1.0000 0.50030  0.12170  0.37190  Biso   1.000  H
  H8       1.0000 0.00030  0.62170  0.37190  Biso   1.000  H
  C25      1.0000 0.56290  0.94890  0.84760  Biso   1.000  C
  C26      1.0000 0.06290  0.44890  0.84760  Biso   1.000  C
  C27      1.0000 0.43710  0.94890  0.65240  Biso   1.000  C
  C28      1.0000 0.93710  0.44890  0.65240  Biso   1.000  C
  C29      1.0000 0.43710  0.05110  0.15240  Biso   1.000  C
  C30      1.0000 0.93710  0.55110  0.15240  Biso   1.000  C
  C31      1.0000 0.56290  0.05110  0.34760  Biso   1.000  C
  C32      1.0000 0.06290  0.55110  0.34760  Biso   1.000  C
  H9       1.0000 0.49170  0.96580  0.83160  Biso   1.000  H
  H10      1.0000 0.99170  0.46580  0.83160  Biso   1.000  H
  H11      1.0000 0.50830  0.96580  0.66840  Biso   1.000  H
  H12      1.0000 0.00830  0.46580  0.66840  Biso   1.000  H
  H13      1.0000 0.50830  0.03420  0.16840  Biso   1.000  H
  H14      1.0000 0.00830  0.53420  0.16840  Biso   1.000  H
  H15      1.0000 0.49170  0.03420  0.33160  Biso   1.000  H
  H16      1.0000 0.99170  0.53420  0.33160  Biso   1.000  H
  C33      1.0000 0.66020  0.97683  0.84700  Biso   1.000  C
  C34      1.0000 0.16020  0.47683  0.84700  Biso   1.000  C
  C35      1.0000 0.33980  0.97683  0.65300  Biso   1.000  C
  C36      1.0000 0.83980  0.47683  0.65300  Biso   1.000  C
  C37      1.0000 0.33980  0.02317  0.15300  Biso   1.000  C
  C38      1.0000 0.83980  0.52317  0.15300  Biso   1.000  C
  C39      1.0000 0.66020  0.02317  0.34700  Biso   1.000  C
  C40      1.0000 0.16020  0.52317  0.34700  Biso   1.000  C
  C41      1.0000 0.76410  0.95160  0.86820  Biso   1.000  C
  C42      1.0000 0.26410  0.45160  0.86820  Biso   1.000  C
  C43      1.0000 0.23590  0.95160  0.63180  Biso   1.000  C
  C44      1.0000 0.73590  0.45160  0.63180  Biso   1.000  C
  C45      1.0000 0.23590  0.04840  0.13180  Biso   1.000  C
  C46      1.0000 0.73590  0.54840  0.13180  Biso   1.000  C
  C47      1.0000 0.76410  0.04840  0.36820  Biso   1.000  C
  C48      1.0000 0.26410  0.54840  0.36820  Biso   1.000  C
  H17      1.0000 0.83130  0.96990  0.86640  Biso   1.000  H
  H18      1.0000 0.33130  0.46990  0.86640  Biso   1.000  H
  H19      1.0000 0.16870  0.96990  0.63360  Biso   1.000  H
  H20      1.0000 0.66870  0.46990  0.63360  Biso   1.000  H
  H21      1.0000 0.16870  0.03010  0.13360  Biso   1.000  H
  H22      1.0000 0.66870  0.53010  0.13360  Biso   1.000  H
  H23      1.0000 0.83130  0.03010  0.36640  Biso   1.000  H
  H24      1.0000 0.33130  0.53010  0.36640  Biso   1.000  H
  C49      1.0000 0.76900  0.89900  0.89240  Biso   1.000  C
  C50      1.0000 0.26900  0.39900  0.89240  Biso   1.000  C
  C51      1.0000 0.23100  0.89900  0.60760  Biso   1.000  C
  C52      1.0000 0.73100  0.39900  0.60760  Biso   1.000  C
  C53      1.0000 0.23100  0.10100  0.10760  Biso   1.000  C
  C54      1.0000 0.73100  0.60100  0.10760  Biso   1.000  C
  C55      1.0000 0.76900  0.10100  0.39240  Biso   1.000  C
  C56      1.0000 0.26900  0.60100  0.39240  Biso   1.000  C
  H25      1.0000 0.84010  0.88210  0.90830  Biso   1.000  H
  H26      1.0000 0.34010  0.38210  0.90830  Biso   1.000  H
  H27      1.0000 0.15990  0.88210  0.59170  Biso   1.000  H
  H28      1.0000 0.65990  0.38210  0.59170  Biso   1.000  H
  H29      1.0000 0.15990  0.11790  0.09170  Biso   1.000  H
  H30      1.0000 0.65990  0.61790  0.09170  Biso   1.000  H
  H31      1.0000 0.84010  0.11790  0.40830  Biso   1.000  H
  H32      1.0000 0.34010  0.61790  0.40830  Biso   1.000  H
  N1       1.0000 0.65730  0.14311  0.79298  Biso   1.000  N
  N2       1.0000 0.15730  0.64311  0.79298  Biso   1.000  N
  N3       1.0000 0.34270  0.14311  0.70702  Biso   1.000  N
  N4       1.0000 0.84270  0.64311  0.70702  Biso   1.000  N
  N5       1.0000 0.34270  0.85689  0.20702  Biso   1.000  N
  N6       1.0000 0.84270  0.35689  0.20702  Biso   1.000  N
  N7       1.0000 0.65730  0.85689  0.29298  Biso   1.000  N
  N8       1.0000 0.15730  0.35689  0.29298  Biso   1.000  N
  C57      1.0000 0.65670  0.03420  0.82610  Biso   1.000  C
  C58      1.0000 0.15670  0.53420  0.82610  Biso   1.000  C
  C59      1.0000 0.34330  0.03420  0.67390  Biso   1.000  C
  C60      1.0000 0.84330  0.53420  0.67390  Biso   1.000  C
  C61      1.0000 0.34330  0.96580  0.17390  Biso   1.000  C
  C62      1.0000 0.84330  0.46580  0.17390  Biso   1.000  C
  C63      1.0000 0.65670  0.96580  0.32610  Biso   1.000  C
  C64      1.0000 0.15670  0.46580  0.32610  Biso   1.000  C
  C65      1.0000 0.70430  0.05300  0.77340  Biso   1.000  C
  C66      1.0000 0.20430  0.55300  0.77340  Biso   1.000  C
  C67      1.0000 0.29570  0.05300  0.72660  Biso   1.000  C
  C68      1.0000 0.79570  0.55300  0.72660  Biso   1.000  C
  C69      1.0000 0.29570  0.94700  0.22660  Biso   1.000  C
  C70      1.0000 0.79570  0.44700  0.22660  Biso   1.000  C
  C71      1.0000 0.70430  0.94700  0.27340  Biso   1.000  C
  C72      1.0000 0.20430  0.44700  0.27340  Biso   1.000  C
  C73      1.0000 0.70340  0.10740  0.75850  Biso   1.000  C
  C74      1.0000 0.20340  0.60740  0.75850  Biso   1.000  C
  C75      1.0000 0.29660  0.10740  0.74150  Biso   1.000  C
  C76      1.0000 0.79660  0.60740  0.74150  Biso   1.000  C
  C77      1.0000 0.29660  0.89260  0.24150  Biso   1.000  C
  C78      1.0000 0.79660  0.39260  0.24150  Biso   1.000  C
  C79      1.0000 0.70340  0.89260  0.25850  Biso   1.000  C
  C80      1.0000 0.20340  0.39260  0.25850  Biso   1.000  C
  C81      1.0000 0.61400  0.12614  0.84540  Biso   1.000  C
  C82      1.0000 0.11400  0.62614  0.84540  Biso   1.000  C
  C83      1.0000 0.38600  0.12614  0.65460  Biso   1.000  C
  C84      1.0000 0.88600  0.62614  0.65460  Biso   1.000  C
  C85      1.0000 0.38600  0.87386  0.15460  Biso   1.000  C
  C86      1.0000 0.88600  0.37386  0.15460  Biso   1.000  C
  C87      1.0000 0.61400  0.87386  0.34540  Biso   1.000  C
  C88      1.0000 0.11400  0.37386  0.34540  Biso   1.000  C
  C89      1.0000 0.60840  0.07190  0.86100  Biso   1.000  C
  C90      1.0000 0.10840  0.57190  0.86100  Biso   1.000  C
  C91      1.0000 0.39160  0.07190  0.63900  Biso   1.000  C
  C92      1.0000 0.89160  0.57190  0.63900  Biso   1.000  C
  C93      1.0000 0.39160  0.92810  0.13900  Biso   1.000  C
  C94      1.0000 0.89160  0.42810  0.13900  Biso   1.000  C
  C95      1.0000 0.60840  0.92810  0.36100  Biso   1.000  C
  C96      1.0000 0.10840  0.42810  0.36100  Biso   1.000  C
  C97      1.0000 0.53540  0.05510  0.90490  Biso   1.000  C
  C98      1.0000 0.03540  0.55510  0.90490  Biso   1.000  C
  C99      1.0000 0.46460  0.05510  0.59510  Biso   1.000  C
  C100     1.0000 0.96460  0.55510  0.59510  Biso   1.000  C
  C101     1.0000 0.46460  0.94490  0.09510  Biso   1.000  C
  C102     1.0000 0.96460  0.44490  0.09510  Biso   1.000  C
  C103     1.0000 0.53540  0.94490  0.40490  Biso   1.000  C
  C104     1.0000 0.03540  0.44490  0.40490  Biso   1.000  C
  N9       1.0000 0.48360  0.04590  0.94430  Biso   1.000  N
  N10      1.0000 0.98360  0.54590  0.94430  Biso   1.000  N
  N11      1.0000 0.51640  0.04590  0.55570  Biso   1.000  N
  N12      1.0000 0.01640  0.54590  0.55570  Biso   1.000  N
  N13      1.0000 0.51640  0.95410  0.05570  Biso   1.000  N
  N14      1.0000 0.01640  0.45410  0.05570  Biso   1.000  N
  N15      1.0000 0.48360  0.95410  0.44430  Biso   1.000  N
  N16      1.0000 0.98360  0.45410  0.44430  Biso   1.000  N
  C105     1.0000 0.91600  0.56140  0.57070  Biso   1.000  C
  C106     1.0000 0.41600  0.06140  0.57070  Biso   1.000  C
  C107     1.0000 0.08400  0.56140  0.92930  Biso   1.000  C
  C108     1.0000 0.58400  0.06140  0.92930  Biso   1.000  C
  C109     1.0000 0.08400  0.43860  0.42930  Biso   1.000  C
  C110     1.0000 0.58400  0.93860  0.42930  Biso   1.000  C
  C111     1.0000 0.91600  0.43860  0.07070  Biso   1.000  C
  C112     1.0000 0.41600  0.93860  0.07070  Biso   1.000  C
  N17      1.0000 0.94600  0.55270  0.52130  Biso   1.000  N
  N18      1.0000 0.44600  0.05270  0.52130  Biso   1.000  N
  N19      1.0000 0.05400  0.55270  0.97870  Biso   1.000  N
  N20      1.0000 0.55400  0.05270  0.97870  Biso   1.000  N
  N21      1.0000 0.05400  0.44730  0.47870  Biso   1.000  N
  N22      1.0000 0.55400  0.94730  0.47870  Biso   1.000  N
  N23      1.0000 0.94600  0.44730  0.02130  Biso   1.000  N
  N24      1.0000 0.44600  0.94730  0.02130  Biso   1.000  N
  C113     1.0000 0.73430  0.01260  0.72800  Biso   1.000  C
  C114     1.0000 0.23430  0.51260  0.72800  Biso   1.000  C
  C115     1.0000 0.26570  0.01260  0.77200  Biso   1.000  C
  C116     1.0000 0.76570  0.51260  0.77200  Biso   1.000  C
  C117     1.0000 0.26570  0.98740  0.27200  Biso   1.000  C
  C118     1.0000 0.76570  0.48740  0.27200  Biso   1.000  C
  C119     1.0000 0.73430  0.98740  0.22800  Biso   1.000  C
  C120     1.0000 0.23430  0.48740  0.22800  Biso   1.000  C
  N25      1.0000 0.76180  0.98170  0.69330  Biso   1.000  N
  N26      1.0000 0.26180  0.48170  0.69330  Biso   1.000  N
  N27      1.0000 0.23820  0.98170  0.80670  Biso   1.000  N
  N28      1.0000 0.73820  0.48170  0.80670  Biso   1.000  N
  N29      1.0000 0.23820  0.01830  0.30670  Biso   1.000  N
  N30      1.0000 0.73820  0.51830  0.30670  Biso   1.000  N
  N31      1.0000 0.76180  0.01830  0.19330  Biso   1.000  N
  N32      1.0000 0.26180  0.51830  0.19330  Biso   1.000  N
  C121     1.0000 0.71130  0.52200  0.75110  Biso   1.000  C
  C122     1.0000 0.21130  0.02200  0.75110  Biso   1.000  C
  C123     1.0000 0.28870  0.52200  0.74890  Biso   1.000  C
  C124     1.0000 0.78870  0.02200  0.74890  Biso   1.000  C
  C125     1.0000 0.28870  0.47800  0.24890  Biso   1.000  C
  C126     1.0000 0.78870  0.97800  0.24890  Biso   1.000  C
  C127     1.0000 0.71130  0.47800  0.25110  Biso   1.000  C
  C128     1.0000 0.21130  0.97800  0.25110  Biso   1.000  C
  N33      1.0000 0.64970  0.49770  0.77340  Biso   1.000  N
  N34      1.0000 0.14970  0.99770  0.77340  Biso   1.000  N
  N35      1.0000 0.35030  0.49770  0.72660  Biso   1.000  N
  N36      1.0000 0.85030  0.99770  0.72660  Biso   1.000  N
  N37      1.0000 0.35030  0.50230  0.22660  Biso   1.000  N
  N38      1.0000 0.85030  0.00230  0.22660  Biso   1.000  N
  N39      1.0000 0.64970  0.50230  0.27340  Biso   1.000  N
  N40      1.0000 0.14970  0.00230  0.27340  Biso   1.000  N
  N41      1.0000 0.85350  0.18281  0.60773  Biso   1.000  N
  N42      1.0000 0.35350  0.68281  0.60773  Biso   1.000  N
  N43      1.0000 0.14650  0.18281  0.89227  Biso   1.000  N
  N44      1.0000 0.64650  0.68281  0.89227  Biso   1.000  N
  N45      1.0000 0.14650  0.81719  0.39227  Biso   1.000  N
  N46      1.0000 0.64650  0.31719  0.39227  Biso   1.000  N
  N47      1.0000 0.85350  0.81719  0.10773  Biso   1.000  N
  N48      1.0000 0.35350  0.31719  0.10773  Biso   1.000  N
  C129     1.0000 0.75710  0.13162  0.70430  Biso   1.000  C
  C130     1.0000 0.25710  0.63162  0.70430  Biso   1.000  C
  C131     1.0000 0.24290  0.13162  0.79570  Biso   1.000  C
  C132     1.0000 0.74290  0.63162  0.79570  Biso   1.000  C
  C133     1.0000 0.24290  0.86838  0.29570  Biso   1.000  C
  C134     1.0000 0.74290  0.36838  0.29570  Biso   1.000  C
  C135     1.0000 0.75710  0.86838  0.20430  Biso   1.000  C
  C136     1.0000 0.25710  0.36838  0.20430  Biso   1.000  C
  C137     1.0000 0.81960  0.17750  0.72290  Biso   1.000  C
  C138     1.0000 0.31960  0.67750  0.72290  Biso   1.000  C
  C139     1.0000 0.18040  0.17750  0.77710  Biso   1.000  C
  C140     1.0000 0.68040  0.67750  0.77710  Biso   1.000  C
  C141     1.0000 0.18040  0.82250  0.27710  Biso   1.000  C
  C142     1.0000 0.68040  0.32250  0.27710  Biso   1.000  C
  C143     1.0000 0.81960  0.82250  0.22290  Biso   1.000  C
  C144     1.0000 0.31960  0.32250  0.22290  Biso   1.000  C
  H33      1.0000 0.83060  0.19170  0.76900  Biso   1.000  H
  H34      1.0000 0.33060  0.69170  0.76900  Biso   1.000  H
  H35      1.0000 0.16940  0.19170  0.73100  Biso   1.000  H
  H36      1.0000 0.66940  0.69170  0.73100  Biso   1.000  H
  H37      1.0000 0.16940  0.80830  0.23100  Biso   1.000  H
  H38      1.0000 0.66940  0.30830  0.23100  Biso   1.000  H
  H39      1.0000 0.83060  0.80830  0.26900  Biso   1.000  H
  H40      1.0000 0.33060  0.30830  0.26900  Biso   1.000  H
  C145     1.0000 0.86670  0.20290  0.67360  Biso   1.000  C
  C146     1.0000 0.36670  0.70290  0.67360  Biso   1.000  C
  C147     1.0000 0.13330  0.20290  0.82640  Biso   1.000  C
  C148     1.0000 0.63330  0.70290  0.82640  Biso   1.000  C
  C149     1.0000 0.13330  0.79710  0.32640  Biso   1.000  C
  C150     1.0000 0.63330  0.29710  0.32640  Biso   1.000  C
  C151     1.0000 0.86670  0.79710  0.17360  Biso   1.000  C
  C152     1.0000 0.36670  0.29710  0.17360  Biso   1.000  C
  H41      1.0000 0.90860  0.23480  0.68630  Biso   1.000  H
  H42      1.0000 0.40860  0.73480  0.68630  Biso   1.000  H
  H43      1.0000 0.09140  0.23480  0.81370  Biso   1.000  H
  H44      1.0000 0.59140  0.73480  0.81370  Biso   1.000  H
  H45      1.0000 0.09140  0.76520  0.31370  Biso   1.000  H
  H46      1.0000 0.59140  0.26520  0.31370  Biso   1.000  H
  H47      1.0000 0.90860  0.76520  0.18630  Biso   1.000  H
  H48      1.0000 0.40860  0.26520  0.18630  Biso   1.000  H
  C153     1.0000 0.79500  0.13767  0.59150  Biso   1.000  C
  C154     1.0000 0.29500  0.63767  0.59150  Biso   1.000  C
  C155     1.0000 0.20500  0.13767  0.90850  Biso   1.000  C
  C156     1.0000 0.70500  0.63767  0.90850  Biso   1.000  C
  C157     1.0000 0.20500  0.86233  0.40850  Biso   1.000  C
  C158     1.0000 0.70500  0.36233  0.40850  Biso   1.000  C
  C159     1.0000 0.79500  0.86233  0.09150  Biso   1.000  C
  C160     1.0000 0.29500  0.36233  0.09150  Biso   1.000  C
  H49      1.0000 0.78570  0.12330  0.54560  Biso   1.000  H
  H50      1.0000 0.28570  0.62330  0.54560  Biso   1.000  H
  H51      1.0000 0.21430  0.12330  0.95440  Biso   1.000  H
  H52      1.0000 0.71430  0.62330  0.95440  Biso   1.000  H
  H53      1.0000 0.21430  0.87670  0.45440  Biso   1.000  H
  H54      1.0000 0.71430  0.37670  0.45440  Biso   1.000  H
  H55      1.0000 0.78570  0.87670  0.04560  Biso   1.000  H
  H56      1.0000 0.28570  0.37670  0.04560  Biso   1.000  H
  C161     1.0000 0.74790  0.11112  0.63840  Biso   1.000  C
  C162     1.0000 0.24790  0.61112  0.63840  Biso   1.000  C
  C163     1.0000 0.25210  0.11112  0.86160  Biso   1.000  C
  C164     1.0000 0.75210  0.61112  0.86160  Biso   1.000  C
  C165     1.0000 0.25210  0.88888  0.36160  Biso   1.000  C
  C166     1.0000 0.75210  0.38888  0.36160  Biso   1.000  C
  C167     1.0000 0.74790  0.88888  0.13840  Biso   1.000  C
  C168     1.0000 0.24790  0.38888  0.13840  Biso   1.000  C
  H57      1.0000 0.70890  0.07850  0.62510  Biso   1.000  H
  H58      1.0000 0.20890  0.57850  0.62510  Biso   1.000  H
  H59      1.0000 0.29110  0.07850  0.87490  Biso   1.000  H
  H60      1.0000 0.79110  0.57850  0.87490  Biso   1.000  H
  H61      1.0000 0.29110  0.92150  0.37490  Biso   1.000  H
  H62      1.0000 0.79110  0.42150  0.37490  Biso   1.000  H
  H63      1.0000 0.70890  0.92150  0.12510  Biso   1.000  H
  H64      1.0000 0.20890  0.42150  0.12510  Biso   1.000  H
  N49      1.0000 0.49060  0.23824  0.97150  Biso   1.000  N
  N50      1.0000 0.99060  0.73824  0.97150  Biso   1.000  N
  N51      1.0000 0.50940  0.23824  0.52850  Biso   1.000  N
  N52      1.0000 0.00940  0.73824  0.52850  Biso   1.000  N
  N53      1.0000 0.50940  0.76176  0.02850  Biso   1.000  N
  N54      1.0000 0.00940  0.26176  0.02850  Biso   1.000  N
  N55      1.0000 0.49060  0.76176  0.47150  Biso   1.000  N
  N56      1.0000 0.99060  0.26176  0.47150  Biso   1.000  N
  C169     1.0000 0.57340  0.16770  0.88730  Biso   1.000  C
  C170     1.0000 0.07340  0.66770  0.88730  Biso   1.000  C
  C171     1.0000 0.42660  0.16770  0.61270  Biso   1.000  C
  C172     1.0000 0.92660  0.66770  0.61270  Biso   1.000  C
  C173     1.0000 0.42660  0.83230  0.11270  Biso   1.000  C
  C174     1.0000 0.92660  0.33230  0.11270  Biso   1.000  C
  C175     1.0000 0.57340  0.83230  0.38730  Biso   1.000  C
  C176     1.0000 0.07340  0.33230  0.38730  Biso   1.000  C
  C177     1.0000 0.49250  0.20430  0.85790  Biso   1.000  C
  C178     1.0000 0.99250  0.70430  0.85790  Biso   1.000  C
  C179     1.0000 0.50750  0.20430  0.64210  Biso   1.000  C
  C180     1.0000 0.00750  0.70430  0.64210  Biso   1.000  C
  C181     1.0000 0.50750  0.79570  0.14210  Biso   1.000  C
  C182     1.0000 0.00750  0.29570  0.14210  Biso   1.000  C
  C183     1.0000 0.49250  0.79570  0.35790  Biso   1.000  C
  C184     1.0000 0.99250  0.29570  0.35790  Biso   1.000  C
  H65      1.0000 0.46300  0.20600  0.80840  Biso   1.000  H
  H66      1.0000 0.96300  0.70600  0.80840  Biso   1.000  H
  H67      1.0000 0.53700  0.20600  0.69160  Biso   1.000  H
  H68      1.0000 0.03700  0.70600  0.69160  Biso   1.000  H
  H69      1.0000 0.53700  0.79400  0.19160  Biso   1.000  H
  H70      1.0000 0.03700  0.29400  0.19160  Biso   1.000  H
  H71      1.0000 0.46300  0.79400  0.30840  Biso   1.000  H
  H72      1.0000 0.96300  0.29400  0.30840  Biso   1.000  H
  C185     1.0000 0.45480  0.23890  0.90280  Biso   1.000  C
  C186     1.0000 0.95480  0.73890  0.90280  Biso   1.000  C
  C187     1.0000 0.54520  0.23890  0.59720  Biso   1.000  C
  C188     1.0000 0.04520  0.73890  0.59720  Biso   1.000  C
  C189     1.0000 0.54520  0.76110  0.09720  Biso   1.000  C
  C190     1.0000 0.04520  0.26110  0.09720  Biso   1.000  C
  C191     1.0000 0.45480  0.76110  0.40280  Biso   1.000  C
  C192     1.0000 0.95480  0.26110  0.40280  Biso   1.000  C
  H73      1.0000 0.39950  0.26460  0.88230  Biso   1.000  H
  H74      1.0000 0.89950  0.76460  0.88230  Biso   1.000  H
  H75      1.0000 0.60050  0.26460  0.61770  Biso   1.000  H
  H76      1.0000 0.10050  0.76460  0.61770  Biso   1.000  H
  H77      1.0000 0.60050  0.73540  0.11770  Biso   1.000  H
  H78      1.0000 0.10050  0.23540  0.11770  Biso   1.000  H
  H79      1.0000 0.39950  0.73540  0.38230  Biso   1.000  H
  H80      1.0000 0.89950  0.23540  0.38230  Biso   1.000  H
  C193     1.0000 0.57270  0.20390  0.99940  Biso   1.000  C
  C194     1.0000 0.07270  0.70390  0.99940  Biso   1.000  C
  C195     1.0000 0.42730  0.20390  0.50060  Biso   1.000  C
  C196     1.0000 0.92730  0.70390  0.50060  Biso   1.000  C
  C197     1.0000 0.42730  0.79610  0.00060  Biso   1.000  C
  C198     1.0000 0.92730  0.29610  0.00060  Biso   1.000  C
  C199     1.0000 0.57270  0.79610  0.49940  Biso   1.000  C
  C200     1.0000 0.07270  0.29610  0.49940  Biso   1.000  C
  H81      1.0000 0.60240  0.20420  0.04890  Biso   1.000  H
  H82      1.0000 0.10240  0.70420  0.04890  Biso   1.000  H
  H83      1.0000 0.39760  0.20420  0.45110  Biso   1.000  H
  H84      1.0000 0.89760  0.70420  0.45110  Biso   1.000  H
  H85      1.0000 0.39760  0.79580  0.95110  Biso   1.000  H
  H86      1.0000 0.89760  0.29580  0.95110  Biso   1.000  H
  H87      1.0000 0.60240  0.79580  0.54890  Biso   1.000  H
  H88      1.0000 0.10240  0.29580  0.54890  Biso   1.000  H
  C201     1.0000 0.61640  0.16830  0.96010  Biso   1.000  C
  C202     1.0000 0.11640  0.66830  0.96010  Biso   1.000  C
  C203     1.0000 0.38360  0.16830  0.53990  Biso   1.000  C
  C204     1.0000 0.88360  0.66830  0.53990  Biso   1.000  C
  C205     1.0000 0.38360  0.83170  0.03990  Biso   1.000  C
  C206     1.0000 0.88360  0.33170  0.03990  Biso   1.000  C
  C207     1.0000 0.61640  0.83170  0.46010  Biso   1.000  C
  C208     1.0000 0.11640  0.33170  0.46010  Biso   1.000  C
  H89      1.0000 0.67500  0.14460  0.98200  Biso   1.000  H
  H90      1.0000 0.17500  0.64460  0.98200  Biso   1.000  H
  H91      1.0000 0.32500  0.14460  0.51800  Biso   1.000  H
  H92      1.0000 0.82500  0.64460  0.51800  Biso   1.000  H
  H93      1.0000 0.32500  0.85540  0.01800  Biso   1.000  H
  H94      1.0000 0.82500  0.35540  0.01800  Biso   1.000  H
  H95      1.0000 0.67500  0.85540  0.48200  Biso   1.000  H
  H96      1.0000 0.17500  0.35540  0.48200  Biso   1.000  H
  O17      1.0000 0.51110  0.65241  0.98411  Biso   1.000  O
  O18      1.0000 0.01110  0.15241  0.98411  Biso   1.000  O
  O19      1.0000 0.48890  0.65241  0.51589  Biso   1.000  O
  O20      1.0000 0.98890  0.15241  0.51589  Biso   1.000  O
  O21      1.0000 0.48890  0.34759  0.01589  Biso   1.000  O
  O22      1.0000 0.98890  0.84759  0.01589  Biso   1.000  O
  O23      1.0000 0.51110  0.34759  0.48411  Biso   1.000  O
  O24      1.0000 0.01110  0.84759  0.48411  Biso   1.000  O
  O25      1.0000 0.35520  0.60978  0.93840  Biso   1.000  O
  O26      1.0000 0.85520  0.10978  0.93840  Biso   1.000  O
  O27      1.0000 0.64480  0.60978  0.56160  Biso   1.000  O
  O28      1.0000 0.14480  0.10978  0.56160  Biso   1.000  O
  O29      1.0000 0.64480  0.39022  0.06160  Biso   1.000  O
  O30      1.0000 0.14480  0.89022  0.06160  Biso   1.000  O
  O31      1.0000 0.35520  0.39022  0.43840  Biso   1.000  O
  O32      1.0000 0.85520  0.89022  0.43840  Biso   1.000  O
  O33      1.0000 0.38700  0.68789  0.89820  Biso   1.000  O
  O34      1.0000 0.88700  0.18789  0.89820  Biso   1.000  O
  O35      1.0000 0.61300  0.68789  0.60180  Biso   1.000  O
  O36      1.0000 0.11300  0.18789  0.60180  Biso   1.000  O
  O37      1.0000 0.61300  0.31211  0.10180  Biso   1.000  O
  O38      1.0000 0.11300  0.81211  0.10180  Biso   1.000  O
  O39      1.0000 0.38700  0.31211  0.39820  Biso   1.000  O
  O40      1.0000 0.88700  0.81211  0.39820  Biso   1.000  O
  N57      1.0000 0.41470  0.64998  0.93900  Biso   1.000  N
  N58      1.0000 0.91470  0.14998  0.93900  Biso   1.000  N
  N59      1.0000 0.58530  0.64998  0.56100  Biso   1.000  N
  N60      1.0000 0.08530  0.14998  0.56100  Biso   1.000  N
  N61      1.0000 0.58530  0.35002  0.06100  Biso   1.000  N
  N62      1.0000 0.08530  0.85002  0.06100  Biso   1.000  N
  N63      1.0000 0.41470  0.35002  0.43900  Biso   1.000  N
  N64      1.0000 0.91470  0.85002  0.43900  Biso   1.000  N
  O41      1.0000 0.27870  0.85540  0.86350  Biso   1.000  O
  O42      1.0000 0.77870  0.35540  0.86350  Biso   1.000  O
  O43      1.0000 0.72130  0.85540  0.63650  Biso   1.000  O
  O44      1.0000 0.22130  0.35540  0.63650  Biso   1.000  O
  O45      1.0000 0.72130  0.14460  0.13650  Biso   1.000  O
  O46      1.0000 0.22130  0.64460  0.13650  Biso   1.000  O
  O47      1.0000 0.27870  0.14460  0.36350  Biso   1.000  O
  O48      1.0000 0.77870  0.64460  0.36350  Biso   1.000  O
  O49      1.0000 0.09110  0.80930  0.76610  Biso   1.000  O
  O50      1.0000 0.59110  0.30930  0.76610  Biso   1.000  O
  O51      1.0000 0.90890  0.80930  0.73390  Biso   1.000  O
  O52      1.0000 0.40890  0.30930  0.73390  Biso   1.000  O
  O53      1.0000 0.90890  0.19070  0.23390  Biso   1.000  O
  O54      1.0000 0.40890  0.69070  0.23390  Biso   1.000  O
  O55      1.0000 0.09110  0.19070  0.26610  Biso   1.000  O
  O56      1.0000 0.59110  0.69070  0.26610  Biso   1.000  O
  C209     1.0000 0.46810  0.46530  0.53960  Biso   1.000  C
  C210     1.0000 0.96810  0.96530  0.53960  Biso   1.000  C
  C211     1.0000 0.53190  0.46530  0.96040  Biso   1.000  C
  C212     1.0000 0.03190  0.96530  0.96040  Biso   1.000  C
  C213     1.0000 0.53190  0.53470  0.46040  Biso   1.000  C
  C214     1.0000 0.03190  0.03470  0.46040  Biso   1.000  C
  C215     1.0000 0.46810  0.53470  0.03960  Biso   1.000  C
  C216     1.0000 0.96810  0.03470  0.03960  Biso   1.000  C
  H97      1.0000 0.42500  0.44590  0.49830  Biso   1.000  H
  H98      1.0000 0.92500  0.94590  0.49830  Biso   1.000  H
  H99      1.0000 0.57500  0.44590  0.00170  Biso   1.000  H
  H100     1.0000 0.07500  0.94590  0.00170  Biso   1.000  H
  H101     1.0000 0.57500  0.55410  0.50170  Biso   1.000  H
  H102     1.0000 0.07500  0.05410  0.50170  Biso   1.000  H
  H103     1.0000 0.42500  0.55410  0.99830  Biso   1.000  H
  H104     1.0000 0.92500  0.05410  0.99830  Biso   1.000  H
  H105     1.0000 0.49050  0.44060  0.57940  Biso   1.000  H
  H106     1.0000 0.99050  0.94060  0.57940  Biso   1.000  H
  H107     1.0000 0.50950  0.44060  0.92060  Biso   1.000  H
  H108     1.0000 0.00950  0.94060  0.92060  Biso   1.000  H
  H109     1.0000 0.50950  0.55940  0.42060  Biso   1.000  H
  H110     1.0000 0.00950  0.05940  0.42060  Biso   1.000  H
  H111     1.0000 0.49050  0.55940  0.07940  Biso   1.000  H
  H112     1.0000 0.99050  0.05940  0.07940  Biso   1.000  H
  H113     1.0000 0.53560  0.48080  0.52910  Biso   1.000  H
  H114     1.0000 0.03560  0.98080  0.52910  Biso   1.000  H
  H115     1.0000 0.46440  0.48080  0.97090  Biso   1.000  H
  H116     1.0000 0.96440  0.98080  0.97090  Biso   1.000  H
  H117     1.0000 0.46440  0.51920  0.47090  Biso   1.000  H
  H118     1.0000 0.96440  0.01920  0.47090  Biso   1.000  H
  H119     1.0000 0.53560  0.51920  0.02910  Biso   1.000  H
  H120     1.0000 0.03560  0.01920  0.02910  Biso   1.000  H
  O57      1.0000 0.39920  0.50710  0.55730  Biso   1.000  O
  O58      1.0000 0.89920  0.00710  0.55730  Biso   1.000  O
  O59      1.0000 0.60080  0.50710  0.94270  Biso   1.000  O
  O60      1.0000 0.10080  0.00710  0.94270  Biso   1.000  O
  O61      1.0000 0.60080  0.49290  0.44270  Biso   1.000  O
  O62      1.0000 0.10080  0.99290  0.44270  Biso   1.000  O
  O63      1.0000 0.39920  0.49290  0.05730  Biso   1.000  O
  O64      1.0000 0.89920  0.99290  0.05730  Biso   1.000  O
  H121     1.0000 0.33090  0.49840  0.54390  Biso   1.000  H
  H122     1.0000 0.83090  0.99840  0.54390  Biso   1.000  H
  H123     1.0000 0.66910  0.49840  0.95610  Biso   1.000  H
  H124     1.0000 0.16910  0.99840  0.95610  Biso   1.000  H
  H125     1.0000 0.66910  0.50160  0.45610  Biso   1.000  H
  H126     1.0000 0.16910  0.00160  0.45610  Biso   1.000  H
  H127     1.0000 0.33090  0.50160  0.04390  Biso   1.000  H
  H128     1.0000 0.83090  0.00160  0.04390  Biso   1.000  H
  C217     1.0000 0.28470  0.80560  0.82610  Biso   1.000  C
  C218     1.0000 0.78470  0.30560  0.82610  Biso   1.000  C
  C219     1.0000 0.71530  0.80560  0.67390  Biso   1.000  C
  C220     1.0000 0.21530  0.30560  0.67390  Biso   1.000  C
  C221     1.0000 0.71530  0.19440  0.17390  Biso   1.000  C
  C222     1.0000 0.21530  0.69440  0.17390  Biso   1.000  C
  C223     1.0000 0.28470  0.19440  0.32610  Biso   1.000  C
  C224     1.0000 0.78470  0.69440  0.32610  Biso   1.000  C
  H129     1.0000 0.26650  0.77530  0.85370  Biso   1.000  H
  H130     1.0000 0.76650  0.27530  0.85370  Biso   1.000  H
  H131     1.0000 0.73350  0.77530  0.64630  Biso   1.000  H
  H132     1.0000 0.23350  0.27530  0.64630  Biso   1.000  H
  H133     1.0000 0.73350  0.22470  0.14630  Biso   1.000  H
  H134     1.0000 0.23350  0.72470  0.14630  Biso   1.000  H
  H135     1.0000 0.26650  0.22470  0.35370  Biso   1.000  H
  H136     1.0000 0.76650  0.72470  0.35370  Biso   1.000  H
  H137     1.0000 0.36220  0.80050  0.82040  Biso   1.000  H
  H138     1.0000 0.86220  0.30050  0.82040  Biso   1.000  H
  H139     1.0000 0.63780  0.80050  0.67960  Biso   1.000  H
  H140     1.0000 0.13780  0.30050  0.67960  Biso   1.000  H
  H141     1.0000 0.63780  0.19950  0.17960  Biso   1.000  H
  H142     1.0000 0.13780  0.69950  0.17960  Biso   1.000  H
  H143     1.0000 0.36220  0.19950  0.32040  Biso   1.000  H
  H144     1.0000 0.86220  0.69950  0.32040  Biso   1.000  H
  C225     1.0000 0.20260  0.80690  0.75470  Biso   1.000  C
  C226     1.0000 0.70260  0.30690  0.75470  Biso   1.000  C
  C227     1.0000 0.79740  0.80690  0.74530  Biso   1.000  C
  C228     1.0000 0.29740  0.30690  0.74530  Biso   1.000  C
  C229     1.0000 0.79740  0.19310  0.24530  Biso   1.000  C
  C230     1.0000 0.29740  0.69310  0.24530  Biso   1.000  C
  C231     1.0000 0.20260  0.19310  0.25470  Biso   1.000  C
  C232     1.0000 0.70260  0.69310  0.25470  Biso   1.000  C
  H145     1.0000 0.21670  0.83850  0.72790  Biso   1.000  H
  H146     1.0000 0.71670  0.33850  0.72790  Biso   1.000  H
  H147     1.0000 0.78330  0.83850  0.77210  Biso   1.000  H
  H148     1.0000 0.28330  0.33850  0.77210  Biso   1.000  H
  H149     1.0000 0.78330  0.16150  0.27210  Biso   1.000  H
  H150     1.0000 0.28330  0.66150  0.27210  Biso   1.000  H
  H151     1.0000 0.21670  0.16150  0.22790  Biso   1.000  H
  H152     1.0000 0.71670  0.66150  0.22790  Biso   1.000  H
  H153     1.0000 0.21100  0.77450  0.72760  Biso   1.000  H
  H154     1.0000 0.71100  0.27450  0.72760  Biso   1.000  H
  H155     1.0000 0.78900  0.77450  0.77240  Biso   1.000  H
  H156     1.0000 0.28900  0.27450  0.77240  Biso   1.000  H
  H157     1.0000 0.78900  0.22550  0.27240  Biso   1.000  H
  H158     1.0000 0.28900  0.72550  0.27240  Biso   1.000  H
  H159     1.0000 0.21100  0.22550  0.22760  Biso   1.000  H
  H160     1.0000 0.71100  0.72550  0.22760  Biso   1.000  H
  C233     1.0000 0.07540  0.85890  0.80140  Biso   1.000  C
  C234     1.0000 0.57540  0.35890  0.80140  Biso   1.000  C
  C235     1.0000 0.92460  0.85890  0.69860  Biso   1.000  C
  C236     1.0000 0.42460  0.35890  0.69860  Biso   1.000  C
  C237     1.0000 0.92460  0.14110  0.19860  Biso   1.000  C
  C238     1.0000 0.42460  0.64110  0.19860  Biso   1.000  C
  C239     1.0000 0.07540  0.14110  0.30140  Biso   1.000  C
  C240     1.0000 0.57540  0.64110  0.30140  Biso   1.000  C
  H161     1.0000 0.99830  0.86080  0.80880  Biso   1.000  H
  H162     1.0000 0.49830  0.36080  0.80880  Biso   1.000  H
  H163     1.0000 0.00170  0.86080  0.69120  Biso   1.000  H
  H164     1.0000 0.50170  0.36080  0.69120  Biso   1.000  H
  H165     1.0000 0.00170  0.13920  0.19120  Biso   1.000  H
  H166     1.0000 0.50170  0.63920  0.19120  Biso   1.000  H
  H167     1.0000 0.99830  0.13920  0.30880  Biso   1.000  H
  H168     1.0000 0.49830  0.63920  0.30880  Biso   1.000  H
  H169     1.0000 0.08700  0.89000  0.77290  Biso   1.000  H
  H170     1.0000 0.58700  0.39000  0.77290  Biso   1.000  H
  H171     1.0000 0.91300  0.89000  0.72710  Biso   1.000  H
  H172     1.0000 0.41300  0.39000  0.72710  Biso   1.000  H
  H173     1.0000 0.91300  0.11000  0.22710  Biso   1.000  H
  H174     1.0000 0.41300  0.61000  0.22710  Biso   1.000  H
  H175     1.0000 0.08700  0.11000  0.27290  Biso   1.000  H
  H176     1.0000 0.58700  0.61000  0.27290  Biso   1.000  H
  C241     1.0000 0.16490  0.85830  0.87310  Biso   1.000  C
  C242     1.0000 0.66490  0.35830  0.87310  Biso   1.000  C
  C243     1.0000 0.83510  0.85830  0.62690  Biso   1.000  C
  C244     1.0000 0.33510  0.35830  0.62690  Biso   1.000  C
  C245     1.0000 0.83510  0.14170  0.12690  Biso   1.000  C
  C246     1.0000 0.33510  0.64170  0.12690  Biso   1.000  C
  C247     1.0000 0.16490  0.14170  0.37310  Biso   1.000  C
  C248     1.0000 0.66490  0.64170  0.37310  Biso   1.000  C
  H177     1.0000 0.15700  0.89110  0.89970  Biso   1.000  H
  H178     1.0000 0.65700  0.39110  0.89970  Biso   1.000  H
  H179     1.0000 0.84300  0.89110  0.60030  Biso   1.000  H
  H180     1.0000 0.34300  0.39110  0.60030  Biso   1.000  H
  H181     1.0000 0.84300  0.10890  0.10030  Biso   1.000  H
  H182     1.0000 0.34300  0.60890  0.10030  Biso   1.000  H
  H183     1.0000 0.15700  0.10890  0.39970  Biso   1.000  H
  H184     1.0000 0.65700  0.60890  0.39970  Biso   1.000  H
  H185     1.0000 0.15110  0.82730  0.90100  Biso   1.000  H
  H186     1.0000 0.65110  0.32730  0.90100  Biso   1.000  H
  H187     1.0000 0.84890  0.82730  0.59900  Biso   1.000  H
  H188     1.0000 0.34890  0.32730  0.59900  Biso   1.000  H
  H189     1.0000 0.84890  0.17270  0.09900  Biso   1.000  H
  H190     1.0000 0.34890  0.67270  0.09900  Biso   1.000  H
  H191     1.0000 0.15110  0.17270  0.40100  Biso   1.000  H
  H192     1.0000 0.65110  0.67270  0.40100  Biso   1.000  H
