data_image0
_cell_length_a       12.717
_cell_length_b       7.9163
_cell_length_c       14.981
_cell_angle_alpha    90
_cell_angle_beta     111.136
_cell_angle_gamma    90

_symmetry_space_group_name_H-M    "P 1"
_symmetry_int_tables_number       1

loop_
  _symmetry_equiv_pos_as_xyz
  'x, y, z'

loop_
  _atom_site_label
  _atom_site_occupancy
  _atom_site_fract_x
  _atom_site_fract_y
  _atom_site_fract_z
  _atom_site_thermal_displace_type
  _atom_site_B_iso_or_equiv
  _atom_site_type_symbol
  Cu1      1.0000 0.87299  0.82181  0.20354  Biso   1.000  Cu
  Cu2      1.0000 0.12701  0.32181  0.29646  Biso   1.000  Cu
  Cu3      1.0000 0.12701  0.17819  0.79646  Biso   1.000  Cu
  Cu4      1.0000 0.87299  0.67819  0.70354  Biso   1.000  Cu
  Cl1      1.0000 0.69341  0.90570  0.94706  Biso   1.000  Cl
  Cl2      1.0000 0.30659  0.40570  0.55294  Biso   1.000  Cl
  Cl3      1.0000 0.30659  0.09430  0.05294  Biso   1.000  Cl
  Cl4      1.0000 0.69341  0.59430  0.44706  Biso   1.000  Cl
  N1       1.0000 0.78440  0.61810  0.14890  Biso   1.000  N
  N2       1.0000 0.21560  0.11810  0.35110  Biso   1.000  N
  N3       1.0000 0.21560  0.38190  0.85110  Biso   1.000  N
  N4       1.0000 0.78440  0.88190  0.64890  Biso   1.000  N
  N5       1.0000 0.74610  0.87220  0.24750  Biso   1.000  N
  N6       1.0000 0.25390  0.37220  0.25250  Biso   1.000  N
  N7       1.0000 0.25390  0.12780  0.75250  Biso   1.000  N
  N8       1.0000 0.74610  0.62780  0.74750  Biso   1.000  N
  H1       1.0000 0.76600  0.85200  0.29700  Biso   1.000  H
  H2       1.0000 0.23400  0.35200  0.20300  Biso   1.000  H
  H3       1.0000 0.23400  0.14800  0.70300  Biso   1.000  H
  H4       1.0000 0.76600  0.64800  0.79700  Biso   1.000  H
  O1       1.0000 0.94030  0.04400  0.23610  Biso   1.000  O
  O2       1.0000 0.05970  0.54400  0.26390  Biso   1.000  O
  O3       1.0000 0.05970  0.95600  0.76390  Biso   1.000  O
  O4       1.0000 0.94030  0.45600  0.73610  Biso   1.000  O
  O5       1.0000 0.99550  0.26840  0.32860  Biso   1.000  O
  O6       1.0000 0.00450  0.76840  0.17140  Biso   1.000  O
  O7       1.0000 0.00450  0.73160  0.67140  Biso   1.000  O
  O8       1.0000 0.99550  0.23160  0.82860  Biso   1.000  O
  O9       1.0000 0.78500  0.94300  0.02390  Biso   1.000  O
  O10      1.0000 0.21500  0.44300  0.47610  Biso   1.000  O
  O11      1.0000 0.21500  0.05700  0.97610  Biso   1.000  O
  O12      1.0000 0.78500  0.55700  0.52390  Biso   1.000  O
  O13      1.0000 0.77580  0.77100  0.94360  Biso   1.000  O
  O14      1.0000 0.22420  0.27100  0.55640  Biso   1.000  O
  O15      1.0000 0.22420  0.22900  0.05640  Biso   1.000  O
  O16      1.0000 0.77580  0.72900  0.44360  Biso   1.000  O
  O17      1.0000 0.73900  0.95900  0.87900  Biso   1.000  O
  O18      1.0000 0.26100  0.45900  0.62100  Biso   1.000  O
  O19      1.0000 0.26100  0.04100  0.12100  Biso   1.000  O
  O20      1.0000 0.73900  0.54100  0.37900  Biso   1.000  O
  O21      1.0000 0.60630  0.01500  0.93800  Biso   1.000  O
  O22      1.0000 0.39370  0.51500  0.56200  Biso   1.000  O
  O23      1.0000 0.39370  0.98500  0.06200  Biso   1.000  O
  O24      1.0000 0.60630  0.48500  0.43800  Biso   1.000  O
  O25      1.0000 0.74470  0.95600  0.04430  Biso   1.000  O
  O26      1.0000 0.25530  0.45600  0.45570  Biso   1.000  O
  O27      1.0000 0.25530  0.04400  0.95570  Biso   1.000  O
  O28      1.0000 0.74470  0.54400  0.54430  Biso   1.000  O
  O29      1.0000 0.65950  0.74610  0.92990  Biso   1.000  O
  O30      1.0000 0.34050  0.24610  0.57010  Biso   1.000  O
  O31      1.0000 0.34050  0.25390  0.07010  Biso   1.000  O
  O32      1.0000 0.65950  0.75390  0.42990  Biso   1.000  O
  O33      1.0000 0.67780  0.00800  0.87490  Biso   1.000  O
  O34      1.0000 0.32220  0.50800  0.62510  Biso   1.000  O
  O35      1.0000 0.32220  0.99200  0.12510  Biso   1.000  O
  O36      1.0000 0.67780  0.49200  0.37490  Biso   1.000  O
  O37      1.0000 0.59730  0.84400  0.94400  Biso   1.000  O
  O38      1.0000 0.40270  0.34400  0.55600  Biso   1.000  O
  O39      1.0000 0.40270  0.15600  0.05600  Biso   1.000  O
  O40      1.0000 0.59730  0.65600  0.44400  Biso   1.000  O
  O41      1.0000 0.96880  0.78510  0.88630  Biso   1.000  O
  O42      1.0000 0.03120  0.28510  0.61370  Biso   1.000  O
  O43      1.0000 0.03120  0.21490  0.11370  Biso   1.000  O
  O44      1.0000 0.96880  0.71490  0.38630  Biso   1.000  O
  H5       1.0000 0.94320  0.82430  0.93290  Biso   1.000  H
  H6       1.0000 0.05680  0.32430  0.56710  Biso   1.000  H
  H7       1.0000 0.05680  0.17570  0.06710  Biso   1.000  H
  H8       1.0000 0.94320  0.67570  0.43290  Biso   1.000  H
  H9       1.0000 0.92190  0.69310  0.85530  Biso   1.000  H
  H10      1.0000 0.07810  0.19310  0.64470  Biso   1.000  H
  H11      1.0000 0.07810  0.30690  0.14470  Biso   1.000  H
  H12      1.0000 0.92190  0.80690  0.35530  Biso   1.000  H
  C1       1.0000 0.81510  0.48620  0.10810  Biso   1.000  C
  C2       1.0000 0.18490  0.98620  0.39190  Biso   1.000  C
  C3       1.0000 0.18490  0.51380  0.89190  Biso   1.000  C
  C4       1.0000 0.81510  0.01380  0.60810  Biso   1.000  C
  H13      1.0000 0.88780  0.48410  0.10710  Biso   1.000  H
  H14      1.0000 0.11220  0.98410  0.39290  Biso   1.000  H
  H15      1.0000 0.11220  0.51590  0.89290  Biso   1.000  H
  H16      1.0000 0.88780  0.01590  0.60710  Biso   1.000  H
  C5       1.0000 0.74500  0.35510  0.06800  Biso   1.000  C
  C6       1.0000 0.25500  0.85510  0.43200  Biso   1.000  C
  C7       1.0000 0.25500  0.64490  0.93200  Biso   1.000  C
  C8       1.0000 0.74500  0.14490  0.56800  Biso   1.000  C
  H17      1.0000 0.76890  0.26640  0.03930  Biso   1.000  H
  H18      1.0000 0.23110  0.76640  0.46070  Biso   1.000  H
  H19      1.0000 0.23110  0.73360  0.96070  Biso   1.000  H
  H20      1.0000 0.76890  0.23360  0.53930  Biso   1.000  H
  C9       1.0000 0.63770  0.35620  0.07060  Biso   1.000  C
  C10      1.0000 0.36230  0.85620  0.42940  Biso   1.000  C
  C11      1.0000 0.36230  0.64380  0.92940  Biso   1.000  C
  C12      1.0000 0.63770  0.14380  0.57060  Biso   1.000  C
  H21      1.0000 0.58830  0.26740  0.04440  Biso   1.000  H
  H22      1.0000 0.41170  0.76740  0.45560  Biso   1.000  H
  H23      1.0000 0.41170  0.73260  0.95560  Biso   1.000  H
  H24      1.0000 0.58830  0.23260  0.54440  Biso   1.000  H
  C13      1.0000 0.60520  0.49000  0.11250  Biso   1.000  C
  C14      1.0000 0.39480  0.99000  0.38750  Biso   1.000  C
  C15      1.0000 0.39480  0.51000  0.88750  Biso   1.000  C
  C16      1.0000 0.60520  0.01000  0.61250  Biso   1.000  C
  H25      1.0000 0.53340  0.49260  0.11560  Biso   1.000  H
  H26      1.0000 0.46660  0.99260  0.38440  Biso   1.000  H
  H27      1.0000 0.46660  0.50740  0.88440  Biso   1.000  H
  H28      1.0000 0.53340  0.00740  0.61560  Biso   1.000  H
  C17      1.0000 0.67930  0.62060  0.15010  Biso   1.000  C
  C18      1.0000 0.32070  0.12060  0.34990  Biso   1.000  C
  C19      1.0000 0.32070  0.37940  0.84990  Biso   1.000  C
  C20      1.0000 0.67930  0.87940  0.65010  Biso   1.000  C
  C21      1.0000 0.64610  0.77730  0.18840  Biso   1.000  C
  C22      1.0000 0.35390  0.27730  0.31160  Biso   1.000  C
  C23      1.0000 0.35390  0.22270  0.81160  Biso   1.000  C
  C24      1.0000 0.64610  0.72270  0.68840  Biso   1.000  C
  H29      1.0000 0.60030  0.84750  0.13560  Biso   1.000  H
  H30      1.0000 0.39970  0.34750  0.36440  Biso   1.000  H
  H31      1.0000 0.39970  0.15250  0.86440  Biso   1.000  H
  H32      1.0000 0.60030  0.65250  0.63560  Biso   1.000  H
  H33      1.0000 0.60130  0.74780  0.22650  Biso   1.000  H
  H34      1.0000 0.39870  0.24780  0.27350  Biso   1.000  H
  H35      1.0000 0.39870  0.25220  0.77350  Biso   1.000  H
  H36      1.0000 0.60130  0.75220  0.72650  Biso   1.000  H
  C25      1.0000 0.72570  0.05230  0.26030  Biso   1.000  C
  C26      1.0000 0.27430  0.55230  0.23970  Biso   1.000  C
  C27      1.0000 0.27430  0.94770  0.73970  Biso   1.000  C
  C28      1.0000 0.72570  0.44770  0.76030  Biso   1.000  C
  H37      1.0000 0.70920  0.10710  0.19810  Biso   1.000  H
  H38      1.0000 0.29080  0.60710  0.30190  Biso   1.000  H
  H39      1.0000 0.29080  0.89290  0.80190  Biso   1.000  H
  H40      1.0000 0.70920  0.39290  0.69810  Biso   1.000  H
  C29      1.0000 0.62500  0.08420  0.29010  Biso   1.000  C
  C30      1.0000 0.37500  0.58420  0.20990  Biso   1.000  C
  C31      1.0000 0.37500  0.91580  0.70990  Biso   1.000  C
  C32      1.0000 0.62500  0.41580  0.79010  Biso   1.000  C
  H41      1.0000 0.55900  0.03320  0.24440  Biso   1.000  H
  H42      1.0000 0.44100  0.53320  0.25560  Biso   1.000  H
  H43      1.0000 0.44100  0.96680  0.75560  Biso   1.000  H
  H44      1.0000 0.55900  0.46680  0.74440  Biso   1.000  H
  H45      1.0000 0.61320  0.20360  0.29250  Biso   1.000  H
  H46      1.0000 0.38680  0.70360  0.20750  Biso   1.000  H
  H47      1.0000 0.38680  0.79640  0.70750  Biso   1.000  H
  H48      1.0000 0.61320  0.29640  0.79250  Biso   1.000  H
  H49      1.0000 0.63910  0.03590  0.35210  Biso   1.000  H
  H50      1.0000 0.36090  0.53590  0.14790  Biso   1.000  H
  H51      1.0000 0.36090  0.96410  0.64790  Biso   1.000  H
  H52      1.0000 0.63910  0.46410  0.85210  Biso   1.000  H
  C33      1.0000 0.83040  0.13420  0.32870  Biso   1.000  C
  C34      1.0000 0.16960  0.63420  0.17130  Biso   1.000  C
  C35      1.0000 0.16960  0.86580  0.67130  Biso   1.000  C
  C36      1.0000 0.83040  0.36580  0.82870  Biso   1.000  C
  H53      1.0000 0.85560  0.06950  0.38770  Biso   1.000  H
  H54      1.0000 0.14440  0.56950  0.11230  Biso   1.000  H
  H55      1.0000 0.14440  0.93050  0.61230  Biso   1.000  H
  H56      1.0000 0.85560  0.43050  0.88770  Biso   1.000  H
  H57      1.0000 0.81060  0.24620  0.34390  Biso   1.000  H
  H58      1.0000 0.18940  0.74620  0.15610  Biso   1.000  H
  H59      1.0000 0.18940  0.75380  0.65610  Biso   1.000  H
  H60      1.0000 0.81060  0.25380  0.84390  Biso   1.000  H
  C37      1.0000 0.92830  0.15110  0.29460  Biso   1.000  C
  C38      1.0000 0.07170  0.65110  0.20540  Biso   1.000  C
  C39      1.0000 0.07170  0.84890  0.70540  Biso   1.000  C
  C40      1.0000 0.92830  0.34890  0.79460  Biso   1.000  C
  H61      1.0000 0.88300  0.22340  0.24160  Biso   1.000  H
  H62      1.0000 0.11700  0.72340  0.25840  Biso   1.000  H
  H63      1.0000 0.11700  0.77660  0.75840  Biso   1.000  H
  H64      1.0000 0.88300  0.27660  0.74160  Biso   1.000  H
