data_image0
_cell_length_a       13.265
_cell_length_b       5.036
_cell_length_c       9.571
_cell_angle_alpha    90
_cell_angle_beta     97.55
_cell_angle_gamma    90

_symmetry_space_group_name_H-M    "P 1"
_symmetry_int_tables_number       1

loop_
  _symmetry_equiv_pos_as_xyz
  'x, y, z'

loop_
  _atom_site_label
  _atom_site_occupancy
  _atom_site_fract_x
  _atom_site_fract_y
  _atom_site_fract_z
  _atom_site_thermal_displace_type
  _atom_site_B_iso_or_equiv
  _atom_site_type_symbol
  Cu1      1.0000 0.49395  0.67414  0.24963  Biso   1.000  Cu
  Cu2      1.0000 0.50605  0.17414  0.75037  Biso   1.000  Cu
  S1       1.0000 0.14482  0.35518  0.08266  Biso   1.000  S
  S2       1.0000 0.85518  0.85518  0.91734  Biso   1.000  S
  S3       1.0000 0.83059  0.10823  0.44365  Biso   1.000  S
  S4       1.0000 0.16941  0.60823  0.55635  Biso   1.000  S
  O1       1.0000 0.45970  0.88140  0.07960  Biso   1.000  O
  O2       1.0000 0.54030  0.38140  0.92040  Biso   1.000  O
  O3       1.0000 0.36760  0.87590  0.86810  Biso   1.000  O
  O4       1.0000 0.63240  0.37590  0.13190  Biso   1.000  O
  O5       1.0000 0.52950  0.46870  0.42190  Biso   1.000  O
  O6       1.0000 0.47050  0.96870  0.57810  Biso   1.000  O
  O7       1.0000 0.63480  0.47760  0.62230  Biso   1.000  O
  O8       1.0000 0.36520  0.97760  0.37770  Biso   1.000  O
  C1       1.0000 0.39120  0.78680  0.98580  Biso   1.000  C
  C2       1.0000 0.60880  0.28680  0.01420  Biso   1.000  C
  C3       1.0000 0.33520  0.54050  0.03020  Biso   1.000  C
  C4       1.0000 0.66480  0.04050  0.96980  Biso   1.000  C
  C5       1.0000 0.23010  0.62980  0.06100  Biso   1.000  C
  C6       1.0000 0.76990  0.12980  0.93900  Biso   1.000  C
  C7       1.0000 0.11080  0.26530  0.90220  Biso   1.000  C
  C8       1.0000 0.88920  0.76530  0.09780  Biso   1.000  C
  C9       1.0000 0.60840  0.55530  0.50020  Biso   1.000  C
  C10      1.0000 0.39160  0.05530  0.49980  Biso   1.000  C
  C11      1.0000 0.67280  0.75250  0.42940  Biso   1.000  C
  C12      1.0000 0.32720  0.25250  0.57060  Biso   1.000  C
  C13      1.0000 0.74400  0.91750  0.53420  Biso   1.000  C
  C14      1.0000 0.25600  0.41750  0.46580  Biso   1.000  C
  C15      1.0000 0.90630  0.24930  0.59150  Biso   1.000  C
  C16      1.0000 0.09370  0.74930  0.40850  Biso   1.000  C
  N1       1.0000 0.39350  0.41150  0.15690  Biso   1.000  N
  N2       1.0000 0.60650  0.91150  0.84310  Biso   1.000  N
  N3       1.0000 0.60100  0.92400  0.33620  Biso   1.000  N
  N4       1.0000 0.39900  0.42400  0.66380  Biso   1.000  N
