data_image0
_cell_length_a       4.9305
_cell_length_b       7.9365
_cell_length_c       8.493
_cell_angle_alpha    68.909
_cell_angle_beta     83.968
_cell_angle_gamma    86.088

_symmetry_space_group_name_H-M    "P 1"
_symmetry_int_tables_number       1

loop_
  _symmetry_equiv_pos_as_xyz
  'x, y, z'

loop_
  _atom_site_label
  _atom_site_occupancy
  _atom_site_fract_x
  _atom_site_fract_y
  _atom_site_fract_z
  _atom_site_thermal_displace_type
  _atom_site_B_iso_or_equiv
  _atom_site_type_symbol
  Cu1      1.0000 0.50000  0.00000  0.50000  Biso   1.000  Cu
  N1       1.0000 0.45570  0.69630  0.22940  Biso   1.000  N
  N2       1.0000 0.54430  0.30370  0.77060  Biso   1.000  N
  O1       1.0000 0.33060  0.76670  0.60690  Biso   1.000  O
  O2       1.0000 0.66940  0.23330  0.39310  Biso   1.000  O
  N3       1.0000 0.97470  0.47620  0.07940  Biso   1.000  N
  N4       1.0000 0.02530  0.52380  0.92060  Biso   1.000  N
  C1       1.0000 0.14810  0.55240  0.15550  Biso   1.000  C
  C2       1.0000 0.85190  0.44760  0.84450  Biso   1.000  C
  C3       1.0000 0.37030  0.67650  0.09530  Biso   1.000  C
  C4       1.0000 0.62970  0.32350  0.90470  Biso   1.000  C
  O3       1.0000 0.76060  0.91770  0.73413  Biso   1.000  O
  O4       1.0000 0.23940  0.08230  0.26587  Biso   1.000  O
  O5       1.0000 0.78360  0.89240  0.99603  Biso   1.000  O
  O6       1.0000 0.21640  0.10760  0.00397  Biso   1.000  O
  O7       1.0000 0.28920  0.58710  0.36868  Biso   1.000  O
  O8       1.0000 0.71080  0.41290  0.63132  Biso   1.000  O
  N5       1.0000 0.67120  0.85540  0.89020  Biso   1.000  N
  N6       1.0000 0.32880  0.14460  0.10980  Biso   1.000  N
  N7       1.0000 0.45920  0.74900  0.92650  Biso   1.000  N
  N8       1.0000 0.54080  0.25100  0.07350  Biso   1.000  N
  O9       1.0000 0.22580  0.11330  0.62415  Biso   1.000  O
  O10      1.0000 0.77420  0.88670  0.37585  Biso   1.000  O
  N9       1.0000 0.10550  0.50160  0.31930  Biso   1.000  N
  N10      1.0000 0.89450  0.49840  0.68070  Biso   1.000  N
  H1       1.0000 0.31800  0.74200  0.70000  Biso   1.000  H
  H2       1.0000 0.68200  0.25800  0.30000  Biso   1.000  H
  H3       1.0000 0.29700  0.16500  0.67900  Biso   1.000  H
  H4       1.0000 0.70300  0.83500  0.32100  Biso   1.000  H
  H5       1.0000 0.10400  0.05400  0.67800  Biso   1.000  H
  H6       1.0000 0.89600  0.94600  0.32200  Biso   1.000  H
  H7       1.0000 0.19900  0.73500  0.58200  Biso   1.000  H
  H8       1.0000 0.80100  0.26500  0.41800  Biso   1.000  H
