data_image0
_cell_length_a       6.0255
_cell_length_b       16.659
_cell_length_c       26.139
_cell_angle_alpha    90
_cell_angle_beta     90
_cell_angle_gamma    90

_symmetry_space_group_name_H-M    "P 1"
_symmetry_int_tables_number       1

loop_
  _symmetry_equiv_pos_as_xyz
  'x, y, z'

loop_
  _atom_site_label
  _atom_site_occupancy
  _atom_site_fract_x
  _atom_site_fract_y
  _atom_site_fract_z
  _atom_site_thermal_displace_type
  _atom_site_B_iso_or_equiv
  _atom_site_type_symbol
  C1       1.0000 0.37570  0.18760  0.08760  Biso   1.000  C
  C2       1.0000 0.12430  0.81240  0.58760  Biso   1.000  C
  C3       1.0000 0.62430  0.68760  0.41240  Biso   1.000  C
  C4       1.0000 0.87570  0.31240  0.91240  Biso   1.000  C
  C5       1.0000 0.31230  0.11460  0.06390  Biso   1.000  C
  C6       1.0000 0.18770  0.88540  0.56390  Biso   1.000  C
  C7       1.0000 0.68770  0.61460  0.43610  Biso   1.000  C
  C8       1.0000 0.81230  0.38540  0.93610  Biso   1.000  C
  H1       1.0000 0.18750  0.08620  0.07440  Biso   1.000  H
  H2       1.0000 0.31250  0.91380  0.57440  Biso   1.000  H
  H3       1.0000 0.81250  0.58620  0.42560  Biso   1.000  H
  H4       1.0000 0.68750  0.41380  0.92560  Biso   1.000  H
  C9       1.0000 0.44700  0.08720  0.02370  Biso   1.000  C
  C10      1.0000 0.05300  0.91280  0.52370  Biso   1.000  C
  C11      1.0000 0.55300  0.58720  0.47630  Biso   1.000  C
  C12      1.0000 0.94700  0.41280  0.97630  Biso   1.000  C
  H5       1.0000 0.40380  0.04130  0.00600  Biso   1.000  H
  H6       1.0000 0.09620  0.95870  0.50600  Biso   1.000  H
  H7       1.0000 0.59620  0.54130  0.49400  Biso   1.000  H
  H8       1.0000 0.90380  0.45870  0.99400  Biso   1.000  H
  C13      1.0000 0.63500  0.12420  0.00970  Biso   1.000  C
  C14      1.0000 0.86500  0.87580  0.50970  Biso   1.000  C
  C15      1.0000 0.36500  0.62420  0.49030  Biso   1.000  C
  C16      1.0000 0.13500  0.37580  0.99030  Biso   1.000  C
  H9       1.0000 0.71980  0.10340  0.98310  Biso   1.000  H
  H10      1.0000 0.78020  0.89660  0.48310  Biso   1.000  H
  H11      1.0000 0.28020  0.60340  0.51690  Biso   1.000  H
  H12      1.0000 0.21980  0.39660  0.01690  Biso   1.000  H
  C17      1.0000 0.70400  0.19430  0.03490  Biso   1.000  C
  C18      1.0000 0.79600  0.80570  0.53490  Biso   1.000  C
  C19      1.0000 0.29600  0.69430  0.46510  Biso   1.000  C
  C20      1.0000 0.20400  0.30570  0.96510  Biso   1.000  C
  H13      1.0000 0.83610  0.21970  0.02600  Biso   1.000  H
  H14      1.0000 0.66390  0.78030  0.52600  Biso   1.000  H
  H15      1.0000 0.16390  0.71970  0.47400  Biso   1.000  H
  H16      1.0000 0.33610  0.28030  0.97400  Biso   1.000  H
  C21      1.0000 0.56950  0.22490  0.07370  Biso   1.000  C
  C22      1.0000 0.93050  0.77510  0.57370  Biso   1.000  C
  C23      1.0000 0.43050  0.72490  0.42630  Biso   1.000  C
  C24      1.0000 0.06950  0.27510  0.92630  Biso   1.000  C
  H17      1.0000 0.61200  0.27160  0.09050  Biso   1.000  H
  H18      1.0000 0.88800  0.72840  0.59050  Biso   1.000  H
  H19      1.0000 0.38800  0.77160  0.40950  Biso   1.000  H
  H20      1.0000 0.11200  0.22840  0.90950  Biso   1.000  H
  C25      1.0000 0.23130  0.21650  0.13280  Biso   1.000  C
  C26      1.0000 0.26870  0.78350  0.63280  Biso   1.000  C
  C27      1.0000 0.76870  0.71650  0.36720  Biso   1.000  C
  C28      1.0000 0.73130  0.28350  0.86720  Biso   1.000  C
  H21      1.0000 0.09470  0.18470  0.13510  Biso   1.000  H
  H22      1.0000 0.40530  0.81530  0.63510  Biso   1.000  H
  H23      1.0000 0.90530  0.68470  0.36490  Biso   1.000  H
  H24      1.0000 0.59470  0.31530  0.86490  Biso   1.000  H
  C29      1.0000 0.17680  0.30580  0.12610  Biso   1.000  C
  C30      1.0000 0.32320  0.69420  0.62610  Biso   1.000  C
  C31      1.0000 0.82320  0.80580  0.37390  Biso   1.000  C
  C32      1.0000 0.67680  0.19420  0.87390  Biso   1.000  C
  H25      1.0000 0.04940  0.31920  0.14640  Biso   1.000  H
  H26      1.0000 0.45060  0.68080  0.64640  Biso   1.000  H
  H27      1.0000 0.95060  0.81920  0.35360  Biso   1.000  H
  H28      1.0000 0.54940  0.18080  0.85360  Biso   1.000  H
  H29      1.0000 0.14580  0.31660  0.09070  Biso   1.000  H
  H30      1.0000 0.35420  0.68340  0.59070  Biso   1.000  H
  H31      1.0000 0.85420  0.81660  0.40930  Biso   1.000  H
  H32      1.0000 0.64580  0.18340  0.90930  Biso   1.000  H
  H33      1.0000 0.30120  0.33760  0.13690  Biso   1.000  H
  H34      1.0000 0.19880  0.66240  0.63690  Biso   1.000  H
  H35      1.0000 0.69880  0.83760  0.36310  Biso   1.000  H
  H36      1.0000 0.80120  0.16240  0.86310  Biso   1.000  H
  C33      1.0000 0.05530  0.29890  0.40780  Biso   1.000  C
  C34      1.0000 0.44470  0.70110  0.90780  Biso   1.000  C
  C35      1.0000 0.94470  0.79890  0.09220  Biso   1.000  C
  C36      1.0000 0.55530  0.20110  0.59220  Biso   1.000  C
  C37      1.0000 0.86800  0.27660  0.43480  Biso   1.000  C
  C38      1.0000 0.63200  0.72340  0.93480  Biso   1.000  C
  C39      1.0000 0.13200  0.77660  0.06520  Biso   1.000  C
  C40      1.0000 0.36800  0.22340  0.56520  Biso   1.000  C
  H37      1.0000 0.78710  0.23190  0.42460  Biso   1.000  H
  H38      1.0000 0.71290  0.76810  0.92460  Biso   1.000  H
  H39      1.0000 0.21290  0.73190  0.07540  Biso   1.000  H
  H40      1.0000 0.28710  0.26810  0.57540  Biso   1.000  H
  C41      1.0000 0.80060  0.31950  0.47610  Biso   1.000  C
  C42      1.0000 0.69940  0.68050  0.97610  Biso   1.000  C
  C43      1.0000 0.19940  0.81950  0.02390  Biso   1.000  C
  C44      1.0000 0.30060  0.18050  0.52390  Biso   1.000  C
  H41      1.0000 0.67530  0.30380  0.49430  Biso   1.000  H
  H42      1.0000 0.82470  0.69620  0.99430  Biso   1.000  H
  H43      1.0000 0.32470  0.80380  0.00570  Biso   1.000  H
  H44      1.0000 0.17530  0.19620  0.50570  Biso   1.000  H
  C45      1.0000 0.92000  0.38720  0.49120  Biso   1.000  C
  C46      1.0000 0.58000  0.61280  0.99120  Biso   1.000  C
  C47      1.0000 0.08000  0.88720  0.00880  Biso   1.000  C
  C48      1.0000 0.42000  0.11280  0.50880  Biso   1.000  C
  H45      1.0000 0.87440  0.41650  0.51950  Biso   1.000  H
  H46      1.0000 0.62560  0.58350  0.01950  Biso   1.000  H
  H47      1.0000 0.12560  0.91650  0.98050  Biso   1.000  H
  H48      1.0000 0.37440  0.08350  0.48050  Biso   1.000  H
  C49      1.0000 0.10600  0.41100  0.46440  Biso   1.000  C
  C50      1.0000 0.39400  0.58900  0.96440  Biso   1.000  C
  C51      1.0000 0.89400  0.91100  0.03560  Biso   1.000  C
  C52      1.0000 0.60600  0.08900  0.53560  Biso   1.000  C
  H49      1.0000 0.18600  0.45630  0.47410  Biso   1.000  H
  H50      1.0000 0.31400  0.54370  0.97410  Biso   1.000  H
  H51      1.0000 0.81400  0.95630  0.02590  Biso   1.000  H
  H52      1.0000 0.68600  0.04370  0.52590  Biso   1.000  H
  C53      1.0000 0.17020  0.36460  0.42210  Biso   1.000  C
  C54      1.0000 0.32980  0.63540  0.92210  Biso   1.000  C
  C55      1.0000 0.82980  0.86460  0.07790  Biso   1.000  C
  C56      1.0000 0.67020  0.13540  0.57790  Biso   1.000  C
  H53      1.0000 0.29520  0.37950  0.40350  Biso   1.000  H
  H54      1.0000 0.20480  0.62050  0.90350  Biso   1.000  H
  H55      1.0000 0.70480  0.87950  0.09650  Biso   1.000  H
  H56      1.0000 0.79520  0.12050  0.59650  Biso   1.000  H
  C57      1.0000 0.13220  0.24770  0.36270  Biso   1.000  C
  C58      1.0000 0.36780  0.75230  0.86270  Biso   1.000  C
  C59      1.0000 0.86780  0.74770  0.13730  Biso   1.000  C
  C60      1.0000 0.63220  0.25230  0.63730  Biso   1.000  C
  H57      1.0000 0.00920  0.21240  0.35300  Biso   1.000  H
  H58      1.0000 0.49080  0.78760  0.85300  Biso   1.000  H
  H59      1.0000 0.99080  0.71240  0.14700  Biso   1.000  H
  H60      1.0000 0.50920  0.28760  0.64700  Biso   1.000  H
  C61      1.0000 0.33200  0.19560  0.37390  Biso   1.000  C
  C62      1.0000 0.16800  0.80440  0.87390  Biso   1.000  C
  C63      1.0000 0.66800  0.69560  0.12610  Biso   1.000  C
  C64      1.0000 0.83200  0.30440  0.62610  Biso   1.000  C
  H61      1.0000 0.29510  0.14040  0.36730  Biso   1.000  H
  H62      1.0000 0.20490  0.85960  0.86730  Biso   1.000  H
  H63      1.0000 0.70490  0.64040  0.13270  Biso   1.000  H
  H64      1.0000 0.79510  0.35960  0.63270  Biso   1.000  H
  H65      1.0000 0.37360  0.20170  0.40910  Biso   1.000  H
  H66      1.0000 0.12640  0.79830  0.90910  Biso   1.000  H
  H67      1.0000 0.62640  0.70170  0.09090  Biso   1.000  H
  H68      1.0000 0.87360  0.29830  0.59090  Biso   1.000  H
  H69      1.0000 0.45290  0.21140  0.35230  Biso   1.000  H
  H70      1.0000 0.04710  0.78860  0.85230  Biso   1.000  H
  H71      1.0000 0.54710  0.71140  0.14770  Biso   1.000  H
  H72      1.0000 0.95290  0.28860  0.64770  Biso   1.000  H
  Cu1      1.0000 0.25864  0.25169  0.24819  Biso   1.000  Cu
  Cu2      1.0000 0.24136  0.74831  0.74819  Biso   1.000  Cu
  Cu3      1.0000 0.74136  0.75169  0.25181  Biso   1.000  Cu
  Cu4      1.0000 0.75864  0.24831  0.75181  Biso   1.000  Cu
  Cu5      1.0000 0.10355  0.01308  0.26523  Biso   1.000  Cu
  Cu6      1.0000 0.39645  0.98692  0.76523  Biso   1.000  Cu
  Cu7      1.0000 0.89645  0.51308  0.23477  Biso   1.000  Cu
  Cu8      1.0000 0.60355  0.48692  0.73477  Biso   1.000  Cu
  Cu9      1.0000 0.39632  0.49585  0.23390  Biso   1.000  Cu
  Cu10     1.0000 0.10368  0.50415  0.73390  Biso   1.000  Cu
  Cu11     1.0000 0.60368  0.99585  0.26610  Biso   1.000  Cu
  Cu12     1.0000 0.89632  0.00415  0.76610  Biso   1.000  Cu
  N1       1.0000 0.37080  0.20540  0.18060  Biso   1.000  N
  N2       1.0000 0.12920  0.79460  0.68060  Biso   1.000  N
  N3       1.0000 0.62920  0.70540  0.31940  Biso   1.000  N
  N4       1.0000 0.87080  0.29460  0.81940  Biso   1.000  N
  H73      1.0000 0.50520  0.22690  0.17440  Biso   1.000  H
  H74      1.0000 0.99480  0.77310  0.67440  Biso   1.000  H
  H75      1.0000 0.49480  0.72690  0.32560  Biso   1.000  H
  H76      1.0000 0.00520  0.27310  0.82560  Biso   1.000  H
  H77      1.0000 0.39110  0.15230  0.18510  Biso   1.000  H
  H78      1.0000 0.10890  0.84770  0.68510  Biso   1.000  H
  H79      1.0000 0.60890  0.65230  0.31490  Biso   1.000  H
  H80      1.0000 0.89110  0.34770  0.81490  Biso   1.000  H
  N5       1.0000 0.19130  0.29810  0.31670  Biso   1.000  N
  N6       1.0000 0.30870  0.70190  0.81670  Biso   1.000  N
  N7       1.0000 0.80870  0.79810  0.18330  Biso   1.000  N
  N8       1.0000 0.69130  0.20190  0.68330  Biso   1.000  N
  H81      1.0000 0.31010  0.32760  0.32570  Biso   1.000  H
  H82      1.0000 0.18990  0.67240  0.82570  Biso   1.000  H
  H83      1.0000 0.68990  0.82760  0.17430  Biso   1.000  H
  H84      1.0000 0.81010  0.17240  0.67430  Biso   1.000  H
  H85      1.0000 0.07850  0.33270  0.31220  Biso   1.000  H
  H86      1.0000 0.42150  0.66730  0.81220  Biso   1.000  H
  H87      1.0000 0.92150  0.83270  0.18780  Biso   1.000  H
  H88      1.0000 0.57850  0.16730  0.68780  Biso   1.000  H
  N9       1.0000 0.66460  0.16920  0.26720  Biso   1.000  N
  N10      1.0000 0.83540  0.83080  0.76720  Biso   1.000  N
  N11      1.0000 0.33540  0.66920  0.23280  Biso   1.000  N
  N12      1.0000 0.16460  0.33080  0.73280  Biso   1.000  N
  N13      1.0000 0.86100  0.16640  0.26130  Biso   1.000  N
  N14      1.0000 0.63900  0.83360  0.76130  Biso   1.000  N
  N15      1.0000 0.13900  0.66640  0.23870  Biso   1.000  N
  N16      1.0000 0.36100  0.33360  0.73870  Biso   1.000  N
  N17      1.0000 0.05340  0.15850  0.25550  Biso   1.000  N
  N18      1.0000 0.44660  0.84150  0.75550  Biso   1.000  N
  N19      1.0000 0.94660  0.65850  0.24450  Biso   1.000  N
  N20      1.0000 0.55340  0.34150  0.74450  Biso   1.000  N
  N21      1.0000 0.35650  0.01500  0.21430  Biso   1.000  N
  N22      1.0000 0.14350  0.98500  0.71430  Biso   1.000  N
  N23      1.0000 0.64350  0.51500  0.28570  Biso   1.000  N
  N24      1.0000 0.85650  0.48500  0.78570  Biso   1.000  N
  N25      1.0000 0.31820  0.02030  0.16880  Biso   1.000  N
  N26      1.0000 0.18180  0.97970  0.66880  Biso   1.000  N
  N27      1.0000 0.68180  0.52030  0.33120  Biso   1.000  N
  N28      1.0000 0.81820  0.47970  0.83120  Biso   1.000  N
  N29      1.0000 0.29110  0.02630  0.12760  Biso   1.000  N
  N30      1.0000 0.20890  0.97370  0.62760  Biso   1.000  N
  N31      1.0000 0.70890  0.52630  0.37240  Biso   1.000  N
  N32      1.0000 0.79110  0.47370  0.87240  Biso   1.000  N
  N33      1.0000 0.35440  0.00950  0.31380  Biso   1.000  N
  N34      1.0000 0.14560  0.99050  0.81380  Biso   1.000  N
  N35      1.0000 0.64560  0.50950  0.18620  Biso   1.000  N
  N36      1.0000 0.85440  0.49050  0.68620  Biso   1.000  N
  N37      1.0000 0.34390  0.97630  0.35510  Biso   1.000  N
  N38      1.0000 0.15610  0.02370  0.85510  Biso   1.000  N
  N39      1.0000 0.65610  0.47630  0.14490  Biso   1.000  N
  N40      1.0000 0.84390  0.52370  0.64490  Biso   1.000  N
  N41      1.0000 0.34140  0.94930  0.39520  Biso   1.000  N
  N42      1.0000 0.15860  0.05070  0.89520  Biso   1.000  N
  N43      1.0000 0.65860  0.44930  0.10480  Biso   1.000  N
  N44      1.0000 0.84140  0.55070  0.60480  Biso   1.000  N
  N45      1.0000 0.85160  0.99340  0.21650  Biso   1.000  N
  N46      1.0000 0.64840  0.00660  0.71650  Biso   1.000  N
  N47      1.0000 0.14840  0.49340  0.28350  Biso   1.000  N
  N48      1.0000 0.35160  0.50660  0.78350  Biso   1.000  N
  N49      1.0000 0.83750  0.03070  0.17670  Biso   1.000  N
  N50      1.0000 0.66250  0.96930  0.67670  Biso   1.000  N
  N51      1.0000 0.16250  0.53070  0.32330  Biso   1.000  N
  N52      1.0000 0.33750  0.46930  0.82330  Biso   1.000  N
  N53      1.0000 0.82960  0.06570  0.13890  Biso   1.000  N
  N54      1.0000 0.67040  0.93430  0.63890  Biso   1.000  N
  N55      1.0000 0.17040  0.56570  0.36110  Biso   1.000  N
  N56      1.0000 0.32960  0.43430  0.86110  Biso   1.000  N
  N57      1.0000 0.84990  0.99680  0.31370  Biso   1.000  N
  N58      1.0000 0.65010  0.00320  0.81370  Biso   1.000  N
  N59      1.0000 0.15010  0.49680  0.18630  Biso   1.000  N
  N60      1.0000 0.34990  0.50320  0.68630  Biso   1.000  N
  N61      1.0000 0.83380  0.97860  0.35880  Biso   1.000  N
  N62      1.0000 0.66620  0.02140  0.85880  Biso   1.000  N
  N63      1.0000 0.16620  0.47860  0.14120  Biso   1.000  N
  N64      1.0000 0.33380  0.52140  0.64120  Biso   1.000  N
  N65      1.0000 0.80740  0.96310  0.39890  Biso   1.000  N
  N66      1.0000 0.69260  0.03690  0.89890  Biso   1.000  N
  N67      1.0000 0.19260  0.46310  0.10110  Biso   1.000  N
  N68      1.0000 0.30740  0.53690  0.60110  Biso   1.000  N
  N69      1.0000 0.45420  0.34870  0.23890  Biso   1.000  N
  N70      1.0000 0.04580  0.65130  0.73890  Biso   1.000  N
  N71      1.0000 0.54580  0.84870  0.26110  Biso   1.000  N
  N72      1.0000 0.95420  0.15130  0.76110  Biso   1.000  N
  N73      1.0000 0.65380  0.34110  0.23500  Biso   1.000  N
  N74      1.0000 0.84620  0.65890  0.73500  Biso   1.000  N
  N75      1.0000 0.34620  0.84110  0.26500  Biso   1.000  N
  N76      1.0000 0.15380  0.15890  0.76500  Biso   1.000  N
  N77      1.0000 0.84130  0.34040  0.23290  Biso   1.000  N
  N78      1.0000 0.65870  0.65960  0.73290  Biso   1.000  N
  N79      1.0000 0.15870  0.84040  0.26710  Biso   1.000  N
  N80      1.0000 0.34130  0.15960  0.76710  Biso   1.000  N
