data_image0
_cell_length_a       12.3784
_cell_length_b       5.9718
_cell_length_c       15.209
_cell_angle_alpha    90
_cell_angle_beta     91.924
_cell_angle_gamma    90

_symmetry_space_group_name_H-M    "P 1"
_symmetry_int_tables_number       1

loop_
  _symmetry_equiv_pos_as_xyz
  'x, y, z'

loop_
  _atom_site_label
  _atom_site_occupancy
  _atom_site_fract_x
  _atom_site_fract_y
  _atom_site_fract_z
  _atom_site_thermal_displace_type
  _atom_site_B_iso_or_equiv
  _atom_site_type_symbol
  Cu1      1.0000 0.50000  0.50000  0.50000  Biso   1.000  Cu
  Cu2      1.0000 0.00000  0.00000  0.00000  Biso   1.000  Cu
  Cu3      1.0000 0.13525  0.94326  0.36060  Biso   1.000  Cu
  Cu4      1.0000 0.36475  0.44326  0.13940  Biso   1.000  Cu
  Cu5      1.0000 0.86475  0.05674  0.63940  Biso   1.000  Cu
  Cu6      1.0000 0.63525  0.55674  0.86060  Biso   1.000  Cu
  V1       1.0000 0.76709  0.29365  0.45348  Biso   1.000  V
  V2       1.0000 0.73291  0.79365  0.04652  Biso   1.000  V
  V3       1.0000 0.23291  0.70635  0.54652  Biso   1.000  V
  V4       1.0000 0.26709  0.20635  0.95348  Biso   1.000  V
  V5       1.0000 0.89147  0.80022  0.42543  Biso   1.000  V
  V6       1.0000 0.60853  0.30022  0.07457  Biso   1.000  V
  V7       1.0000 0.10853  0.19978  0.57457  Biso   1.000  V
  V8       1.0000 0.39147  0.69978  0.92543  Biso   1.000  V
  O1       1.0000 0.63568  0.30160  0.44016  Biso   1.000  O
  O2       1.0000 0.86432  0.80160  0.05984  Biso   1.000  O
  O3       1.0000 0.36432  0.69840  0.55984  Biso   1.000  O
  O4       1.0000 0.13568  0.19840  0.94016  Biso   1.000  O
  O5       1.0000 0.20015  0.72100  0.43951  Biso   1.000  O
  O6       1.0000 0.29985  0.22100  0.06049  Biso   1.000  O
  O7       1.0000 0.79985  0.27900  0.56049  Biso   1.000  O
  O8       1.0000 0.70015  0.77900  0.93951  Biso   1.000  O
  O9       1.0000 0.81790  0.54760  0.40571  Biso   1.000  O
  O10      1.0000 0.68210  0.04760  0.09429  Biso   1.000  O
  O11      1.0000 0.18210  0.45240  0.59429  Biso   1.000  O
  O12      1.0000 0.31790  0.95240  0.90571  Biso   1.000  O
  O13      1.0000 0.81386  0.04850  0.39874  Biso   1.000  O
  O14      1.0000 0.68614  0.54850  0.10126  Biso   1.000  O
  O15      1.0000 0.18614  0.95150  0.60126  Biso   1.000  O
  O16      1.0000 0.31386  0.45150  0.89874  Biso   1.000  O
  O17      1.0000 0.07050  0.18730  0.47157  Biso   1.000  O
  O18      1.0000 0.42950  0.68730  0.02843  Biso   1.000  O
  O19      1.0000 0.92950  0.81270  0.52843  Biso   1.000  O
  O20      1.0000 0.57050  0.31270  0.97157  Biso   1.000  O
  O21      1.0000 0.99879  0.79470  0.36043  Biso   1.000  O
  O22      1.0000 0.50121  0.29470  0.13957  Biso   1.000  O
  O23      1.0000 0.00121  0.20530  0.63957  Biso   1.000  O
  O24      1.0000 0.49879  0.70530  0.86043  Biso   1.000  O
  N1       1.0000 0.39308  0.31530  0.42944  Biso   1.000  N
  N2       1.0000 0.10692  0.81530  0.07056  Biso   1.000  N
  N3       1.0000 0.60692  0.68470  0.57056  Biso   1.000  N
  N4       1.0000 0.89308  0.18470  0.92944  Biso   1.000  N
  N5       1.0000 0.32417  0.14740  0.43966  Biso   1.000  N
  N6       1.0000 0.17583  0.64740  0.06034  Biso   1.000  N
  N7       1.0000 0.67583  0.85260  0.56034  Biso   1.000  N
  N8       1.0000 0.82417  0.35260  0.93966  Biso   1.000  N
  N9       1.0000 0.27118  0.12130  0.36326  Biso   1.000  N
  N10      1.0000 0.22882  0.62130  0.13674  Biso   1.000  N
  N11      1.0000 0.72882  0.87870  0.63674  Biso   1.000  N
  N12      1.0000 0.77118  0.37870  0.86326  Biso   1.000  N
  N13      1.0000 0.30341  0.26820  0.30263  Biso   1.000  N
  N14      1.0000 0.19659  0.76820  0.19737  Biso   1.000  N
  N15      1.0000 0.69659  0.73180  0.69737  Biso   1.000  N
  N16      1.0000 0.80341  0.23180  0.80263  Biso   1.000  N
  N17      1.0000 0.50092  0.67130  0.38354  Biso   1.000  N
  N18      1.0000 0.99908  0.17130  0.11646  Biso   1.000  N
  N19      1.0000 0.49908  0.32870  0.61646  Biso   1.000  N
  N20      1.0000 0.00092  0.82870  0.88354  Biso   1.000  N
  N21      1.0000 0.43553  0.64570  0.23494  Biso   1.000  N
  N22      1.0000 0.06447  0.14570  0.26506  Biso   1.000  N
  N23      1.0000 0.56447  0.35430  0.76506  Biso   1.000  N
  N24      1.0000 0.93553  0.85430  0.73494  Biso   1.000  N
  C1       1.0000 0.37890  0.38530  0.34635  Biso   1.000  C
  C2       1.0000 0.12110  0.88530  0.15365  Biso   1.000  C
  C3       1.0000 0.62110  0.61470  0.65365  Biso   1.000  C
  C4       1.0000 0.87890  0.11470  0.84635  Biso   1.000  C
  C5       1.0000 0.44060  0.57760  0.31835  Biso   1.000  C
  C6       1.0000 0.05940  0.07760  0.18165  Biso   1.000  C
  C7       1.0000 0.55940  0.42240  0.68165  Biso   1.000  C
  C8       1.0000 0.94060  0.92240  0.81835  Biso   1.000  C
  C9       1.0000 0.49440  0.82590  0.21520  Biso   1.000  C
  C10      1.0000 0.00560  0.32590  0.28480  Biso   1.000  C
  C11      1.0000 0.50560  0.17410  0.78480  Biso   1.000  C
  C12      1.0000 0.99440  0.67410  0.71520  Biso   1.000  C
  H1       1.0000 0.49210  0.88040  0.15790  Biso   1.000  H
  H2       1.0000 0.00790  0.38040  0.34210  Biso   1.000  H
  H3       1.0000 0.50790  0.11960  0.84210  Biso   1.000  H
  H4       1.0000 0.99210  0.61960  0.65790  Biso   1.000  H
  C13      1.0000 0.55830  0.93180  0.27820  Biso   1.000  C
  C14      1.0000 0.94170  0.43180  0.22180  Biso   1.000  C
  C15      1.0000 0.44170  0.06820  0.72180  Biso   1.000  C
  C16      1.0000 0.05830  0.56820  0.77820  Biso   1.000  C
  H5       1.0000 0.59870  0.05710  0.26390  Biso   1.000  H
  H6       1.0000 0.90130  0.55710  0.23610  Biso   1.000  H
  H7       1.0000 0.40130  0.94290  0.73610  Biso   1.000  H
  H8       1.0000 0.09870  0.44290  0.76390  Biso   1.000  H
  C17      1.0000 0.56140  0.84940  0.36280  Biso   1.000  C
  C18      1.0000 0.93860  0.34940  0.13720  Biso   1.000  C
  C19      1.0000 0.43860  0.15060  0.63720  Biso   1.000  C
  C20      1.0000 0.06140  0.65060  0.86280  Biso   1.000  C
  H9       1.0000 0.60560  0.91720  0.40580  Biso   1.000  H
  H10      1.0000 0.89440  0.41720  0.09420  Biso   1.000  H
  H11      1.0000 0.39440  0.08280  0.59420  Biso   1.000  H
  H12      1.0000 0.10560  0.58280  0.90580  Biso   1.000  H
