data_image0
_cell_length_a       24.655
_cell_length_b       7.697
_cell_length_c       12.378
_cell_angle_alpha    90
_cell_angle_beta     87.34
_cell_angle_gamma    90

_symmetry_space_group_name_H-M    "P 1"
_symmetry_int_tables_number       1

loop_
  _symmetry_equiv_pos_as_xyz
  'x, y, z'

loop_
  _atom_site_label
  _atom_site_occupancy
  _atom_site_fract_x
  _atom_site_fract_y
  _atom_site_fract_z
  _atom_site_thermal_displace_type
  _atom_site_B_iso_or_equiv
  _atom_site_type_symbol
  Cu1      1.0000 0.96210  0.89370  0.53160  Biso   1.000  Cu
  Cu2      1.0000 0.53790  0.39370  0.96840  Biso   1.000  Cu
  Cu3      1.0000 0.03790  0.10630  0.46840  Biso   1.000  Cu
  Cu4      1.0000 0.46210  0.60630  0.03160  Biso   1.000  Cu
  O1       1.0000 0.98540  0.74010  0.41220  Biso   1.000  O
  O2       1.0000 0.51460  0.24010  0.08780  Biso   1.000  O
  O3       1.0000 0.01460  0.25990  0.58780  Biso   1.000  O
  O4       1.0000 0.48540  0.75990  0.91220  Biso   1.000  O
  O5       1.0000 0.95140  0.06830  0.64530  Biso   1.000  O
  O6       1.0000 0.54860  0.56830  0.85470  Biso   1.000  O
  O7       1.0000 0.04860  0.93170  0.35470  Biso   1.000  O
  O8       1.0000 0.45140  0.43170  0.14530  Biso   1.000  O
  C1       1.0000 0.02410  0.79040  0.35080  Biso   1.000  C
  C2       1.0000 0.47590  0.29040  0.14920  Biso   1.000  C
  C3       1.0000 0.97590  0.20960  0.64920  Biso   1.000  C
  C4       1.0000 0.52410  0.70960  0.85080  Biso   1.000  C
  C5       1.0000 0.04210  0.66880  0.26000  Biso   1.000  C
  C6       1.0000 0.45790  0.16880  0.24000  Biso   1.000  C
  C7       1.0000 0.95790  0.33120  0.74000  Biso   1.000  C
  C8       1.0000 0.54210  0.83120  0.76000  Biso   1.000  C
  N1       1.0000 0.05110  0.49070  0.29440  Biso   1.000  N
  N2       1.0000 0.44890  0.99070  0.20560  Biso   1.000  N
  N3       1.0000 0.94890  0.50930  0.70560  Biso   1.000  N
  N4       1.0000 0.55110  0.00930  0.79440  Biso   1.000  N
  S1       1.0000 0.10510  0.45000  0.35840  Biso   1.000  S
  S2       1.0000 0.39490  0.95000  0.14160  Biso   1.000  S
  S3       1.0000 0.89490  0.55000  0.64160  Biso   1.000  S
  S4       1.0000 0.60510  0.05000  0.85840  Biso   1.000  S
  O9       1.0000 0.11550  0.58120  0.43520  Biso   1.000  O
  O10      1.0000 0.38450  0.08120  0.06480  Biso   1.000  O
  O11      1.0000 0.88450  0.41880  0.56480  Biso   1.000  O
  O12      1.0000 0.61550  0.91880  0.93520  Biso   1.000  O
  O13      1.0000 0.10020  0.27430  0.39640  Biso   1.000  O
  O14      1.0000 0.39980  0.77430  0.10360  Biso   1.000  O
  O15      1.0000 0.89980  0.72570  0.60360  Biso   1.000  O
  O16      1.0000 0.60020  0.22570  0.89640  Biso   1.000  O
  C9       1.0000 0.15770  0.45040  0.25720  Biso   1.000  C
  C10      1.0000 0.34230  0.95040  0.24280  Biso   1.000  C
  C11      1.0000 0.84230  0.54960  0.74280  Biso   1.000  C
  C12      1.0000 0.65770  0.04960  0.75720  Biso   1.000  C
  C13      1.0000 0.20720  0.51670  0.28400  Biso   1.000  C
  C14      1.0000 0.29280  0.01670  0.21600  Biso   1.000  C
  C15      1.0000 0.79280  0.48330  0.71600  Biso   1.000  C
  C16      1.0000 0.70720  0.98330  0.78400  Biso   1.000  C
  C17      1.0000 0.25130  0.49760  0.20490  Biso   1.000  C
  C18      1.0000 0.24870  0.99760  0.29510  Biso   1.000  C
  C19      1.0000 0.74870  0.50240  0.79510  Biso   1.000  C
  C20      1.0000 0.75130  0.00240  0.70490  Biso   1.000  C
  C21      1.0000 0.24470  0.42580  0.11170  Biso   1.000  C
  C22      1.0000 0.25530  0.92580  0.38830  Biso   1.000  C
  C23      1.0000 0.75530  0.57420  0.88830  Biso   1.000  C
  C24      1.0000 0.74470  0.07420  0.61170  Biso   1.000  C
  C25      1.0000 0.19450  0.36380  0.08570  Biso   1.000  C
  C26      1.0000 0.30550  0.86380  0.41430  Biso   1.000  C
  C27      1.0000 0.80550  0.63620  0.91430  Biso   1.000  C
  C28      1.0000 0.69450  0.13620  0.58570  Biso   1.000  C
  C29      1.0000 0.14990  0.37770  0.15930  Biso   1.000  C
  C30      1.0000 0.35010  0.87770  0.34070  Biso   1.000  C
  C31      1.0000 0.85010  0.62230  0.84070  Biso   1.000  C
  C32      1.0000 0.64990  0.12230  0.65930  Biso   1.000  C
  C33      1.0000 0.29220  0.40430  0.02830  Biso   1.000  C
  C34      1.0000 0.20780  0.90430  0.47170  Biso   1.000  C
  C35      1.0000 0.70780  0.59570  0.97170  Biso   1.000  C
  C36      1.0000 0.79220  0.09570  0.52830  Biso   1.000  C
  O17      1.0000 0.01770  0.78190  0.61480  Biso   1.000  O
  O18      1.0000 0.48230  0.28190  0.88520  Biso   1.000  O
  O19      1.0000 0.98230  0.21810  0.38520  Biso   1.000  O
  O20      1.0000 0.51770  0.71810  0.11480  Biso   1.000  O
  O21      1.0000 0.91710  0.02770  0.43570  Biso   1.000  O
  O22      1.0000 0.58290  0.52770  0.06430  Biso   1.000  O
  O23      1.0000 0.08290  0.97230  0.56430  Biso   1.000  O
  O24      1.0000 0.41710  0.47230  0.93570  Biso   1.000  O
  C37      1.0000 0.06510  0.83850  0.61360  Biso   1.000  C
  C38      1.0000 0.43490  0.33850  0.88640  Biso   1.000  C
  C39      1.0000 0.93490  0.16150  0.38640  Biso   1.000  C
  C40      1.0000 0.56510  0.66150  0.11360  Biso   1.000  C
  C41      1.0000 0.10720  0.74240  0.67550  Biso   1.000  C
  C42      1.0000 0.39280  0.24240  0.82450  Biso   1.000  C
  C43      1.0000 0.89280  0.25760  0.32450  Biso   1.000  C
  C44      1.0000 0.60720  0.75760  0.17550  Biso   1.000  C
  N5       1.0000 0.08820  0.56470  0.70100  Biso   1.000  N
  N6       1.0000 0.41180  0.06470  0.79900  Biso   1.000  N
  N7       1.0000 0.91180  0.43530  0.29900  Biso   1.000  N
  N8       1.0000 0.58820  0.93530  0.20100  Biso   1.000  N
  S5       1.0000 0.12830  0.44830  0.77150  Biso   1.000  S
  S6       1.0000 0.37170  0.94830  0.72850  Biso   1.000  S
  S7       1.0000 0.87170  0.55170  0.22850  Biso   1.000  S
  S8       1.0000 0.62830  0.05170  0.27150  Biso   1.000  S
  O25      1.0000 0.10410  0.27990  0.77920  Biso   1.000  O
  O26      1.0000 0.39590  0.77990  0.72080  Biso   1.000  O
  O27      1.0000 0.89590  0.72010  0.22080  Biso   1.000  O
  O28      1.0000 0.60410  0.22010  0.27920  Biso   1.000  O
  O29      1.0000 0.13820  0.54090  0.86670  Biso   1.000  O
  O30      1.0000 0.36180  0.04090  0.63330  Biso   1.000  O
  O31      1.0000 0.86180  0.45910  0.13330  Biso   1.000  O
  O32      1.0000 0.63820  0.95910  0.36670  Biso   1.000  O
  C45      1.0000 0.18980  0.43040  0.69570  Biso   1.000  C
  C46      1.0000 0.31020  0.93040  0.80430  Biso   1.000  C
  C47      1.0000 0.81020  0.56960  0.30430  Biso   1.000  C
  C48      1.0000 0.68980  0.06960  0.19570  Biso   1.000  C
  C49      1.0000 0.23590  0.52010  0.72610  Biso   1.000  C
  C50      1.0000 0.26410  0.02010  0.77390  Biso   1.000  C
  C51      1.0000 0.76410  0.47990  0.27390  Biso   1.000  C
  C52      1.0000 0.73590  0.97990  0.22610  Biso   1.000  C
  C53      1.0000 0.28322  0.50860  0.66160  Biso   1.000  C
  C54      1.0000 0.21678  0.00860  0.83840  Biso   1.000  C
  C55      1.0000 0.71678  0.49140  0.33840  Biso   1.000  C
  C56      1.0000 0.78322  0.99140  0.16160  Biso   1.000  C
  C57      1.0000 0.28570  0.41690  0.56780  Biso   1.000  C
  C58      1.0000 0.21430  0.91690  0.93220  Biso   1.000  C
  C59      1.0000 0.71430  0.58310  0.43220  Biso   1.000  C
  C60      1.0000 0.78570  0.08310  0.06780  Biso   1.000  C
  C61      1.0000 0.23870  0.32970  0.53650  Biso   1.000  C
  C62      1.0000 0.26130  0.82970  0.96350  Biso   1.000  C
  C63      1.0000 0.76130  0.67030  0.46350  Biso   1.000  C
  C64      1.0000 0.73870  0.17030  0.03650  Biso   1.000  C
  C65      1.0000 0.19110  0.33540  0.60120  Biso   1.000  C
  C66      1.0000 0.30890  0.83540  0.89880  Biso   1.000  C
  C67      1.0000 0.80890  0.66460  0.39880  Biso   1.000  C
  C68      1.0000 0.69110  0.16460  0.10120  Biso   1.000  C
  C69      1.0000 0.33670  0.40380  0.49570  Biso   1.000  C
  C70      1.0000 0.16330  0.90380  0.00430  Biso   1.000  C
  C71      1.0000 0.66330  0.59620  0.50430  Biso   1.000  C
  C72      1.0000 0.83670  0.09620  0.99570  Biso   1.000  C
  H1       1.0000 0.07930  0.71270  0.22270  Biso   1.000  H
  H2       1.0000 0.42070  0.21270  0.27730  Biso   1.000  H
  H3       1.0000 0.92070  0.28730  0.77730  Biso   1.000  H
  H4       1.0000 0.57930  0.78730  0.72270  Biso   1.000  H
  H5       1.0000 0.01390  0.66150  0.20140  Biso   1.000  H
  H6       1.0000 0.48610  0.16150  0.29860  Biso   1.000  H
  H7       1.0000 0.98610  0.33850  0.79860  Biso   1.000  H
  H8       1.0000 0.51390  0.83850  0.70140  Biso   1.000  H
  H9       1.0000 0.02060  0.45810  0.34100  Biso   1.000  H
  H10      1.0000 0.47940  0.95810  0.15900  Biso   1.000  H
  H11      1.0000 0.97940  0.54190  0.65900  Biso   1.000  H
  H12      1.0000 0.52060  0.04190  0.84100  Biso   1.000  H
  H13      1.0000 0.21500  0.53650  0.35800  Biso   1.000  H
  H14      1.0000 0.28500  0.03650  0.14200  Biso   1.000  H
  H15      1.0000 0.78500  0.46350  0.64200  Biso   1.000  H
  H16      1.0000 0.71500  0.96350  0.85800  Biso   1.000  H
  H17      1.0000 0.28810  0.54090  0.22220  Biso   1.000  H
  H18      1.0000 0.21190  0.04090  0.27780  Biso   1.000  H
  H19      1.0000 0.71190  0.45910  0.77780  Biso   1.000  H
  H20      1.0000 0.78810  0.95910  0.72220  Biso   1.000  H
  H21      1.0000 0.18990  0.30840  0.01360  Biso   1.000  H
  H22      1.0000 0.31010  0.80840  0.48640  Biso   1.000  H
  H23      1.0000 0.81010  0.69160  0.98640  Biso   1.000  H
  H24      1.0000 0.68990  0.19160  0.51360  Biso   1.000  H
  H25      1.0000 0.11160  0.34380  0.12750  Biso   1.000  H
  H26      1.0000 0.38840  0.84380  0.37250  Biso   1.000  H
  H27      1.0000 0.88840  0.65620  0.87250  Biso   1.000  H
  H28      1.0000 0.61160  0.15620  0.62750  Biso   1.000  H
  H29      1.0000 0.28260  0.46350  0.95000  Biso   1.000  H
  H30      1.0000 0.21740  0.96350  0.55000  Biso   1.000  H
  H31      1.0000 0.71740  0.53650  0.05000  Biso   1.000  H
  H32      1.0000 0.78260  0.03650  0.45000  Biso   1.000  H
  H33      1.0000 0.32510  0.46220  0.05600  Biso   1.000  H
  H34      1.0000 0.17490  0.96220  0.44400  Biso   1.000  H
  H35      1.0000 0.67490  0.53780  0.94400  Biso   1.000  H
  H36      1.0000 0.82510  0.03780  0.55600  Biso   1.000  H
  H37      1.0000 0.29970  0.27777  0.01730  Biso   1.000  H
  H38      1.0000 0.20030  0.77777  0.48270  Biso   1.000  H
  H39      1.0000 0.70030  0.72223  0.98270  Biso   1.000  H
  H40      1.0000 0.79970  0.22223  0.51730  Biso   1.000  H
  H41      1.0000 0.11060  0.80310  0.74500  Biso   1.000  H
  H42      1.0000 0.38940  0.30310  0.75500  Biso   1.000  H
  H43      1.0000 0.88940  0.19690  0.25500  Biso   1.000  H
  H44      1.0000 0.61060  0.69690  0.24500  Biso   1.000  H
  H45      1.0000 0.13770  0.74060  0.62850  Biso   1.000  H
  H46      1.0000 0.36230  0.24060  0.87150  Biso   1.000  H
  H47      1.0000 0.86230  0.25940  0.37150  Biso   1.000  H
  H48      1.0000 0.63770  0.75940  0.12850  Biso   1.000  H
  H49      1.0000 0.07510  0.50310  0.63920  Biso   1.000  H
  H50      1.0000 0.42490  0.00310  0.86080  Biso   1.000  H
  H51      1.0000 0.92490  0.49690  0.36080  Biso   1.000  H
  H52      1.0000 0.57510  0.99690  0.13920  Biso   1.000  H
  H53      1.0000 0.23140  0.56470  0.79920  Biso   1.000  H
  H54      1.0000 0.26860  0.06470  0.70080  Biso   1.000  H
  H55      1.0000 0.76860  0.43530  0.20080  Biso   1.000  H
  H56      1.0000 0.73140  0.93530  0.29920  Biso   1.000  H
  H57      1.0000 0.31650  0.56970  0.68480  Biso   1.000  H
  H58      1.0000 0.18350  0.06970  0.81520  Biso   1.000  H
  H59      1.0000 0.68350  0.43030  0.31520  Biso   1.000  H
  H60      1.0000 0.81650  0.93030  0.18480  Biso   1.000  H
  H61      1.0000 0.24080  0.27600  0.46330  Biso   1.000  H
  H62      1.0000 0.25920  0.77600  0.03670  Biso   1.000  H
  H63      1.0000 0.75920  0.72400  0.53670  Biso   1.000  H
  H64      1.0000 0.74080  0.22400  0.96330  Biso   1.000  H
  H65      1.0000 0.15360  0.27810  0.58330  Biso   1.000  H
  H66      1.0000 0.34640  0.77810  0.91670  Biso   1.000  H
  H67      1.0000 0.84640  0.72190  0.41670  Biso   1.000  H
  H68      1.0000 0.65360  0.22190  0.08330  Biso   1.000  H
  H69      1.0000 0.33450  0.31770  0.44500  Biso   1.000  H
  H70      1.0000 0.16550  0.81770  0.05500  Biso   1.000  H
  H71      1.0000 0.66550  0.68230  0.55500  Biso   1.000  H
  H72      1.0000 0.83450  0.18230  0.94500  Biso   1.000  H
  H73      1.0000 0.34280  0.51720  0.45770  Biso   1.000  H
  H74      1.0000 0.15720  0.01720  0.04230  Biso   1.000  H
  H75      1.0000 0.65720  0.48280  0.54230  Biso   1.000  H
  H76      1.0000 0.84280  0.98280  0.95770  Biso   1.000  H
  H77      1.0000 0.36810  0.37870  0.54160  Biso   1.000  H
  H78      1.0000 0.13190  0.87870  0.95840  Biso   1.000  H
  H79      1.0000 0.63190  0.62130  0.45840  Biso   1.000  H
  H80      1.0000 0.86810  0.12130  0.04160  Biso   1.000  H
