data_image0
_cell_length_a       5.0128
_cell_length_b       10.19
_cell_length_c       11.578
_cell_angle_alpha    68.329
_cell_angle_beta     84.065
_cell_angle_gamma    87.645

_symmetry_space_group_name_H-M    "P 1"
_symmetry_int_tables_number       1

loop_
  _symmetry_equiv_pos_as_xyz
  'x, y, z'

loop_
  _atom_site_label
  _atom_site_occupancy
  _atom_site_fract_x
  _atom_site_fract_y
  _atom_site_fract_z
  _atom_site_thermal_displace_type
  _atom_site_B_iso_or_equiv
  _atom_site_type_symbol
  Cu1      1.0000 0.55133  0.17203  0.23784  Biso   1.000  Cu
  Cu2      1.0000 0.44867  0.82797  0.76216  Biso   1.000  Cu
  N1       1.0000 0.84440  0.23680  0.36340  Biso   1.000  N
  N2       1.0000 0.15560  0.76320  0.63660  Biso   1.000  N
  N3       1.0000 0.04320  0.17540  0.36300  Biso   1.000  N
  N4       1.0000 0.95680  0.82460  0.63700  Biso   1.000  N
  N5       1.0000 0.24530  0.10750  0.36500  Biso   1.000  N
  N6       1.0000 0.75470  0.89250  0.63500  Biso   1.000  N
  N7       1.0000 0.41680  0.36320  0.15990  Biso   1.000  N
  N8       1.0000 0.58320  0.63680  0.84010  Biso   1.000  N
  N9       1.0000 0.38690  0.43360  0.22320  Biso   1.000  N
  N10      1.0000 0.61310  0.56640  0.77680  Biso   1.000  N
  N11      1.0000 0.35910  0.50680  0.27960  Biso   1.000  N
  N12      1.0000 0.64090  0.49320  0.72040  Biso   1.000  N
  N13      1.0000 0.70440  0.97540  0.29280  Biso   1.000  N
  N14      1.0000 0.29560  0.02460  0.70720  Biso   1.000  N
  N15      1.0000 0.08130  0.84290  0.25370  Biso   1.000  N
  N16      1.0000 0.91870  0.15710  0.74630  Biso   1.000  N
  N17      1.0000 0.85640  0.19970  0.10180  Biso   1.000  N
  N18      1.0000 0.14360  0.80030  0.89820  Biso   1.000  N
  N19      1.0000 0.24290  0.08320  0.04600  Biso   1.000  N
  N20      1.0000 0.75710  0.91680  0.95400  Biso   1.000  N
  C1       1.0000 0.93570  0.96020  0.22750  Biso   1.000  C
  C2       1.0000 0.06430  0.03980  0.77250  Biso   1.000  C
  C3       1.0000 0.98580  0.73220  0.35290  Biso   1.000  C
  C4       1.0000 0.01420  0.26780  0.64710  Biso   1.000  C
  C5       1.0000 0.75010  0.73750  0.42360  Biso   1.000  C
  C6       1.0000 0.24990  0.26250  0.57640  Biso   1.000  C
  C7       1.0000 0.61230  0.86360  0.39090  Biso   1.000  C
  C8       1.0000 0.38770  0.13640  0.60910  Biso   1.000  C
  C9       1.0000 0.01980  0.08780  0.11840  Biso   1.000  C
  C10      1.0000 0.98020  0.91220  0.88160  Biso   1.000  C
  C11      1.0000 0.29620  0.20260  0.94650  Biso   1.000  C
  C12      1.0000 0.70380  0.79740  0.05350  Biso   1.000  C
  C13      1.0000 0.13910  0.32160  0.92050  Biso   1.000  C
  C14      1.0000 0.86090  0.67840  0.07950  Biso   1.000  C
  C15      1.0000 0.91720  0.31660  0.00290  Biso   1.000  C
  C16      1.0000 0.08280  0.68340  0.99710  Biso   1.000  C
  H1       1.0000 0.08290  0.64820  0.37500  Biso   1.000  H
  H2       1.0000 0.91710  0.35180  0.62500  Biso   1.000  H
  H3       1.0000 0.68630  0.65860  0.49100  Biso   1.000  H
  H4       1.0000 0.31370  0.34140  0.50900  Biso   1.000  H
  H5       1.0000 0.45380  0.87090  0.43750  Biso   1.000  H
  H6       1.0000 0.54620  0.12910  0.56250  Biso   1.000  H
  H7       1.0000 0.44790  0.20470  0.89240  Biso   1.000  H
  H8       1.0000 0.55210  0.79530  0.10760  Biso   1.000  H
  H9       1.0000 0.18060  0.40220  0.85020  Biso   1.000  H
  H10      1.0000 0.81940  0.59780  0.14980  Biso   1.000  H
  H11      1.0000 0.80830  0.39610  0.98930  Biso   1.000  H
  H12      1.0000 0.19170  0.60390  0.01070  Biso   1.000  H
