data_image0
_cell_length_a       5.0652
_cell_length_b       10.3041
_cell_length_c       11.6531
_cell_angle_alpha    68.345
_cell_angle_beta     83.324
_cell_angle_gamma    86.836

_symmetry_space_group_name_H-M    "P 1"
_symmetry_int_tables_number       1

loop_
  _symmetry_equiv_pos_as_xyz
  'x, y, z'

loop_
  _atom_site_label
  _atom_site_occupancy
  _atom_site_fract_x
  _atom_site_fract_y
  _atom_site_fract_z
  _atom_site_thermal_displace_type
  _atom_site_B_iso_or_equiv
  _atom_site_type_symbol
  Cu1      1.0000 0.05184  0.17253  0.23793  Biso   1.000  Cu
  Cu2      1.0000 0.94816  0.82747  0.76207  Biso   1.000  Cu
  N1       1.0000 0.20650  0.97730  0.29150  Biso   1.000  N
  N2       1.0000 0.79350  0.02270  0.70850  Biso   1.000  N
  N3       1.0000 0.58100  0.84620  0.25090  Biso   1.000  N
  N4       1.0000 0.41900  0.15380  0.74910  Biso   1.000  N
  N5       1.0000 0.35800  0.19920  0.10220  Biso   1.000  N
  N6       1.0000 0.64200  0.80080  0.89780  Biso   1.000  N
  N7       1.0000 0.74100  0.08380  0.04590  Biso   1.000  N
  N8       1.0000 0.25900  0.91620  0.95410  Biso   1.000  N
  N9       1.0000 0.92150  0.36320  0.16150  Biso   1.000  N
  N10      1.0000 0.07850  0.63680  0.83850  Biso   1.000  N
  N11      1.0000 0.88620  0.43270  0.22420  Biso   1.000  N
  N12      1.0000 0.11380  0.56730  0.77580  Biso   1.000  N
  N13      1.0000 0.85280  0.50370  0.28050  Biso   1.000  N
  N14      1.0000 0.14720  0.49630  0.71950  Biso   1.000  N
  N15      1.0000 0.74630  0.10920  0.36320  Biso   1.000  N
  N16      1.0000 0.25370  0.89080  0.63680  Biso   1.000  N
  N17      1.0000 0.54460  0.17480  0.36290  Biso   1.000  N
  N18      1.0000 0.45540  0.82520  0.63710  Biso   1.000  N
  N19      1.0000 0.34440  0.23370  0.36570  Biso   1.000  N
  N20      1.0000 0.65560  0.76630  0.63430  Biso   1.000  N
  C1       1.0000 0.11560  0.86690  0.38840  Biso   1.000  C
  C2       1.0000 0.88440  0.13310  0.61160  Biso   1.000  C
  C3       1.0000 0.25300  0.74160  0.42030  Biso   1.000  C
  C4       1.0000 0.74700  0.25840  0.57970  Biso   1.000  C
  C5       1.0000 0.48610  0.73670  0.34890  Biso   1.000  C
  C6       1.0000 0.51390  0.26330  0.65110  Biso   1.000  C
  C7       1.0000 0.43550  0.96160  0.22660  Biso   1.000  C
  C8       1.0000 0.56450  0.03840  0.77340  Biso   1.000  C
  C9       1.0000 0.52050  0.08860  0.11790  Biso   1.000  C
  C10      1.0000 0.47950  0.91140  0.88210  Biso   1.000  C
  C11      1.0000 0.42000  0.31620  0.00390  Biso   1.000  C
  C12      1.0000 0.58000  0.68380  0.99610  Biso   1.000  C
  C13      1.0000 0.64190  0.31980  0.92270  Biso   1.000  C
  C14      1.0000 0.35810  0.68020  0.07730  Biso   1.000  C
  C15      1.0000 0.79890  0.20190  0.94750  Biso   1.000  C
  C16      1.0000 0.20110  0.79810  0.05250  Biso   1.000  C
  H1       1.0000 0.94680  0.87780  0.43240  Biso   1.000  H
  H2       1.0000 0.05320  0.12220  0.56760  Biso   1.000  H
  H3       1.0000 0.19740  0.66450  0.48760  Biso   1.000  H
  H4       1.0000 0.80260  0.33550  0.51240  Biso   1.000  H
  H5       1.0000 0.60810  0.66130  0.36460  Biso   1.000  H
  H6       1.0000 0.39190  0.33870  0.63540  Biso   1.000  H
  H7       1.0000 0.28570  0.39700  0.99710  Biso   1.000  H
  H8       1.0000 0.71430  0.60300  0.00290  Biso   1.000  H
  H9       1.0000 0.68960  0.39720  0.85110  Biso   1.000  H
  H10      1.0000 0.31040  0.60280  0.14890  Biso   1.000  H
  H11      1.0000 0.95510  0.19310  0.89100  Biso   1.000  H
  H12      1.0000 0.04490  0.80690  0.10900  Biso   1.000  H
