data_image0
_cell_length_a       5.063
_cell_length_b       10.294
_cell_length_c       11.64
_cell_angle_alpha    68.35
_cell_angle_beta     83.32
_cell_angle_gamma    86.85

_symmetry_space_group_name_H-M    "P 1"
_symmetry_int_tables_number       1

loop_
  _symmetry_equiv_pos_as_xyz
  'x, y, z'

loop_
  _atom_site_label
  _atom_site_occupancy
  _atom_site_fract_x
  _atom_site_fract_y
  _atom_site_fract_z
  _atom_site_thermal_displace_type
  _atom_site_B_iso_or_equiv
  _atom_site_type_symbol
  Cu1      1.0000 0.05191  0.17268  0.23789  Biso   1.000  Cu
  Cu2      1.0000 0.94809  0.82732  0.76211  Biso   1.000  Cu
  N1       1.0000 0.20700  0.97780  0.29130  Biso   1.000  N
  N2       1.0000 0.79300  0.02220  0.70870  Biso   1.000  N
  C1       1.0000 0.11500  0.86650  0.38960  Biso   1.000  C
  C2       1.0000 0.88500  0.13350  0.61040  Biso   1.000  C
  C3       1.0000 0.25090  0.74140  0.42060  Biso   1.000  C
  C4       1.0000 0.74910  0.25860  0.57940  Biso   1.000  C
  C5       1.0000 0.48450  0.73620  0.34980  Biso   1.000  C
  C6       1.0000 0.51550  0.26380  0.65020  Biso   1.000  C
  N3       1.0000 0.58090  0.84620  0.25060  Biso   1.000  N
  N4       1.0000 0.41910  0.15380  0.74940  Biso   1.000  N
  C7       1.0000 0.43630  0.96070  0.22750  Biso   1.000  C
  C8       1.0000 0.56370  0.03930  0.77250  Biso   1.000  C
  C9       1.0000 0.52030  0.08930  0.11810  Biso   1.000  C
  C10      1.0000 0.47970  0.91070  0.88190  Biso   1.000  C
  N5       1.0000 0.74180  0.08320  0.04630  Biso   1.000  N
  N6       1.0000 0.25820  0.91680  0.95370  Biso   1.000  N
  C11      1.0000 0.79900  0.20080  0.94780  Biso   1.000  C
  C12      1.0000 0.20100  0.79920  0.05220  Biso   1.000  C
  C13      1.0000 0.64120  0.31980  0.92290  Biso   1.000  C
  C14      1.0000 0.35880  0.68020  0.07710  Biso   1.000  C
  C15      1.0000 0.42040  0.31640  0.00390  Biso   1.000  C
  C16      1.0000 0.57960  0.68360  0.99610  Biso   1.000  C
  N7       1.0000 0.35830  0.19830  0.10290  Biso   1.000  N
  N8       1.0000 0.64170  0.80170  0.89710  Biso   1.000  N
  N9       1.0000 0.74610  0.10920  0.36300  Biso   1.000  N
  N10      1.0000 0.25390  0.89080  0.63700  Biso   1.000  N
  N11      1.0000 0.54290  0.17510  0.36300  Biso   1.000  N
  N12      1.0000 0.45710  0.82490  0.63700  Biso   1.000  N
  N13      1.0000 0.34410  0.23370  0.36550  Biso   1.000  N
  N14      1.0000 0.65590  0.76630  0.63450  Biso   1.000  N
  N15      1.0000 0.92080  0.36290  0.16150  Biso   1.000  N
  N16      1.0000 0.07920  0.63710  0.83850  Biso   1.000  N
  N17      1.0000 0.88610  0.43220  0.22470  Biso   1.000  N
  N18      1.0000 0.11390  0.56780  0.77530  Biso   1.000  N
  N19      1.0000 0.85420  0.50360  0.28070  Biso   1.000  N
  N20      1.0000 0.14580  0.49640  0.71930  Biso   1.000  N
  H1       1.0000 0.95370  0.86840  0.44090  Biso   1.000  H
  H2       1.0000 0.04630  0.13160  0.55910  Biso   1.000  H
  H3       1.0000 0.18400  0.65040  0.49680  Biso   1.000  H
  H4       1.0000 0.81600  0.34960  0.50320  Biso   1.000  H
  H5       1.0000 0.95380  0.21020  0.88810  Biso   1.000  H
  H6       1.0000 0.04620  0.78980  0.11190  Biso   1.000  H
  H7       1.0000 0.68640  0.41240  0.84310  Biso   1.000  H
  H8       1.0000 0.31360  0.58760  0.15690  Biso   1.000  H
  H9       1.0000 0.31740  0.40510  0.98310  Biso   1.000  H
  H10      1.0000 0.68260  0.59490  0.01690  Biso   1.000  H
  H11      1.0000 0.57420  0.64210  0.37910  Biso   1.000  H
  H12      1.0000 0.42580  0.35790  0.62090  Biso   1.000  H
