data_image0
_cell_length_a       4.9262
_cell_length_b       8.189
_cell_length_c       11.8
_cell_angle_alpha    71.17
_cell_angle_beta     89.15
_cell_angle_gamma    88.56

_symmetry_space_group_name_H-M    "P 1"
_symmetry_int_tables_number       1

loop_
  _symmetry_equiv_pos_as_xyz
  'x, y, z'

loop_
  _atom_site_label
  _atom_site_occupancy
  _atom_site_fract_x
  _atom_site_fract_y
  _atom_site_fract_z
  _atom_site_thermal_displace_type
  _atom_site_B_iso_or_equiv
  _atom_site_type_symbol
  Cu1      1.0000 0.12118  0.11005  0.59054  Biso   1.000  Cu
  Cu2      1.0000 0.87882  0.88995  0.40946  Biso   1.000  Cu
  P1       1.0000 0.78392  0.25111  0.77830  Biso   1.000  P
  P2       1.0000 0.21608  0.74889  0.22170  Biso   1.000  P
  P3       1.0000 0.59492  0.82909  0.66494  Biso   1.000  P
  P4       1.0000 0.40508  0.17091  0.33506  Biso   1.000  P
  O1       1.0000 0.66180  0.39170  0.67259  Biso   1.000  O
  O2       1.0000 0.33820  0.60830  0.32741  Biso   1.000  O
  O3       1.0000 0.01060  0.15030  0.74057  Biso   1.000  O
  O4       1.0000 0.98940  0.84970  0.25943  Biso   1.000  O
  O5       1.0000 0.55730  0.12680  0.84929  Biso   1.000  O
  O6       1.0000 0.44270  0.87320  0.15071  Biso   1.000  O
  H1       1.0000 0.46700  0.11800  0.81700  Biso   1.000  H
  H2       1.0000 0.53300  0.88200  0.18300  Biso   1.000  H
  O7       1.0000 0.37520  0.94540  0.69032  Biso   1.000  O
  O8       1.0000 0.62480  0.05460  0.30968  Biso   1.000  O
  O9       1.0000 0.78420  0.92630  0.56342  Biso   1.000  O
  O10      1.0000 0.21580  0.07370  0.43658  Biso   1.000  O
  O11      1.0000 0.45530  0.67820  0.63744  Biso   1.000  O
  O12      1.0000 0.54470  0.32180  0.36256  Biso   1.000  O
  H3       1.0000 0.51900  0.61200  0.64500  Biso   1.000  H
  H4       1.0000 0.48100  0.38800  0.35500  Biso   1.000  H
  O13      1.0000 0.95650  0.32790  0.49813  Biso   1.000  O
  O14      1.0000 0.04350  0.67210  0.50187  Biso   1.000  O
  H5       1.0000 0.88300  0.37300  0.53400  Biso   1.000  H
  H6       1.0000 0.11700  0.62700  0.46600  Biso   1.000  H
  H7       1.0000 0.84800  0.31900  0.45300  Biso   1.000  H
  H8       1.0000 0.15200  0.68100  0.54700  Biso   1.000  H
  C1       1.0000 0.91410  0.33670  0.88840  Biso   1.000  C
  C2       1.0000 0.08590  0.66330  0.11160  Biso   1.000  C
  H9       1.0000 0.99600  0.24300  0.95230  Biso   1.000  H
  H10      1.0000 0.00400  0.75700  0.04770  Biso   1.000  H
  H11      1.0000 0.05590  0.41730  0.85170  Biso   1.000  H
  H12      1.0000 0.94410  0.58270  0.14830  Biso   1.000  H
  C3       1.0000 0.79770  0.73220  0.79650  Biso   1.000  C
  C4       1.0000 0.20230  0.26780  0.20350  Biso   1.000  C
  H13      1.0000 0.86880  0.82340  0.82270  Biso   1.000  H
  H14      1.0000 0.13120  0.17660  0.17730  Biso   1.000  H
  H15      1.0000 0.95130  0.67150  0.77500  Biso   1.000  H
  H16      1.0000 0.04870  0.32850  0.22500  Biso   1.000  H
  C5       1.0000 0.64740  0.60670  0.90110  Biso   1.000  C
  C6       1.0000 0.35260  0.39330  0.09890  Biso   1.000  C
  C7       1.0000 0.55320  0.32620  0.04070  Biso   1.000  C
  C8       1.0000 0.44680  0.67380  0.95930  Biso   1.000  C
  H17      1.0000 0.59010  0.20810  0.06840  Biso   1.000  H
  H18      1.0000 0.40990  0.79190  0.93160  Biso   1.000  H
  C9       1.0000 0.70160  0.42840  0.94250  Biso   1.000  C
  C10      1.0000 0.29840  0.57160  0.05750  Biso   1.000  C
