data_image0
_cell_length_a       12.723
_cell_length_b       6.11
_cell_length_c       17.234
_cell_angle_alpha    90
_cell_angle_beta     100.11
_cell_angle_gamma    90

_symmetry_space_group_name_H-M    "P 1"
_symmetry_int_tables_number       1

loop_
  _symmetry_equiv_pos_as_xyz
  'x, y, z'

loop_
  _atom_site_label
  _atom_site_occupancy
  _atom_site_fract_x
  _atom_site_fract_y
  _atom_site_fract_z
  _atom_site_thermal_displace_type
  _atom_site_B_iso_or_equiv
  _atom_site_type_symbol
  Cu1      1.0000 0.77040  0.07950  0.07190  Biso   1.000  Cu
  Cu2      1.0000 0.22960  0.57950  0.42810  Biso   1.000  Cu
  Cu3      1.0000 0.22960  0.92050  0.92810  Biso   1.000  Cu
  Cu4      1.0000 0.77040  0.42050  0.57190  Biso   1.000  Cu
  Cu5      1.0000 0.75420  0.60170  0.17300  Biso   1.000  Cu
  Cu6      1.0000 0.24580  0.10170  0.32700  Biso   1.000  Cu
  Cu7      1.0000 0.24580  0.39830  0.82700  Biso   1.000  Cu
  Cu8      1.0000 0.75420  0.89830  0.67300  Biso   1.000  Cu
  Cl1      1.0000 0.89080  0.21490  0.00270  Biso   1.000  Cl
  Cl2      1.0000 0.10920  0.71490  0.49730  Biso   1.000  Cl
  Cl3      1.0000 0.10920  0.78510  0.99730  Biso   1.000  Cl
  Cl4      1.0000 0.89080  0.28510  0.50270  Biso   1.000  Cl
  Cl5      1.0000 0.65710  0.36610  0.04390  Biso   1.000  Cl
  Cl6      1.0000 0.34290  0.86610  0.45610  Biso   1.000  Cl
  Cl7      1.0000 0.34290  0.63390  0.95610  Biso   1.000  Cl
  Cl8      1.0000 0.65710  0.13390  0.54390  Biso   1.000  Cl
  Cl9      1.0000 0.64740  0.90700  0.13930  Biso   1.000  Cl
  Cl10     1.0000 0.35260  0.40700  0.36070  Biso   1.000  Cl
  Cl11     1.0000 0.35260  0.09300  0.86070  Biso   1.000  Cl
  Cl12     1.0000 0.64740  0.59300  0.63930  Biso   1.000  Cl
  Cl13     1.0000 0.87810  0.79030  0.11790  Biso   1.000  Cl
  Cl14     1.0000 0.12190  0.29030  0.38210  Biso   1.000  Cl
  Cl15     1.0000 0.12190  0.20970  0.88210  Biso   1.000  Cl
  Cl16     1.0000 0.87810  0.70970  0.61790  Biso   1.000  Cl
  Cl17     1.0000 0.64240  0.47580  0.25210  Biso   1.000  Cl
  Cl18     1.0000 0.35760  0.97580  0.24790  Biso   1.000  Cl
  Cl19     1.0000 0.35760  0.52420  0.74790  Biso   1.000  Cl
  Cl20     1.0000 0.64240  0.02420  0.75210  Biso   1.000  Cl
  Cl21     1.0000 0.87740  0.34460  0.21580  Biso   1.000  Cl
  Cl22     1.0000 0.12260  0.84460  0.28420  Biso   1.000  Cl
  Cl23     1.0000 0.12260  0.65540  0.78420  Biso   1.000  Cl
  Cl24     1.0000 0.87740  0.15540  0.71580  Biso   1.000  Cl
  N1       1.0000 0.55600  0.64200  0.87870  Biso   1.000  N
  N2       1.0000 0.44400  0.14200  0.62130  Biso   1.000  N
  N3       1.0000 0.44400  0.35800  0.12130  Biso   1.000  N
  N4       1.0000 0.55600  0.85800  0.37870  Biso   1.000  N
  C1       1.0000 0.59440  0.79710  0.93210  Biso   1.000  C
  C2       1.0000 0.40560  0.29710  0.56790  Biso   1.000  C
  C3       1.0000 0.40560  0.20290  0.06790  Biso   1.000  C
  C4       1.0000 0.59440  0.70290  0.43210  Biso   1.000  C
  N5       1.0000 0.69700  0.84700  0.95070  Biso   1.000  N
  N6       1.0000 0.30300  0.34700  0.54930  Biso   1.000  N
  N7       1.0000 0.30300  0.15300  0.04930  Biso   1.000  N
  N8       1.0000 0.69700  0.65300  0.45070  Biso   1.000  N
  C5       1.0000 0.75860  0.72890  0.91180  Biso   1.000  C
  C6       1.0000 0.24140  0.22890  0.58820  Biso   1.000  C
  C7       1.0000 0.24140  0.27110  0.08820  Biso   1.000  C
  C8       1.0000 0.75860  0.77110  0.41180  Biso   1.000  C
  C9       1.0000 0.72490  0.56430  0.85750  Biso   1.000  C
  C10      1.0000 0.27510  0.06430  0.64250  Biso   1.000  C
  C11      1.0000 0.27510  0.43570  0.14250  Biso   1.000  C
  C12      1.0000 0.72490  0.93570  0.35750  Biso   1.000  C
  C13      1.0000 0.61630  0.52180  0.83900  Biso   1.000  C
  C14      1.0000 0.38370  0.02180  0.66100  Biso   1.000  C
  C15      1.0000 0.38370  0.47820  0.16100  Biso   1.000  C
  C16      1.0000 0.61630  0.97820  0.33900  Biso   1.000  C
  N9       1.0000 0.81210  0.48830  0.82980  Biso   1.000  N
  N10      1.0000 0.18790  0.98830  0.67020  Biso   1.000  N
  N11      1.0000 0.18790  0.51170  0.17020  Biso   1.000  N
  N12      1.0000 0.81210  0.01170  0.32980  Biso   1.000  N
  C17      1.0000 0.89620  0.59500  0.86700  Biso   1.000  C
  C18      1.0000 0.10380  0.09500  0.63300  Biso   1.000  C
  C19      1.0000 0.10380  0.40500  0.13300  Biso   1.000  C
  C20      1.0000 0.89620  0.90500  0.36700  Biso   1.000  C
  N13      1.0000 0.86680  0.74680  0.91590  Biso   1.000  N
  N14      1.0000 0.13320  0.24680  0.58410  Biso   1.000  N
  N15      1.0000 0.13320  0.25320  0.08410  Biso   1.000  N
  N16      1.0000 0.86680  0.75320  0.41590  Biso   1.000  N
  H1       1.0000 0.47790  0.63990  0.86740  Biso   1.000  H
  H2       1.0000 0.52210  0.13990  0.63260  Biso   1.000  H
  H3       1.0000 0.52210  0.36010  0.13260  Biso   1.000  H
  H4       1.0000 0.47790  0.86010  0.36740  Biso   1.000  H
  H5       1.0000 0.53770  0.87060  0.96300  Biso   1.000  H
  H6       1.0000 0.46230  0.37060  0.53700  Biso   1.000  H
  H7       1.0000 0.46230  0.12940  0.03700  Biso   1.000  H
  H8       1.0000 0.53770  0.62940  0.46300  Biso   1.000  H
  H9       1.0000 0.58760  0.40620  0.79380  Biso   1.000  H
  H10      1.0000 0.41240  0.90620  0.70620  Biso   1.000  H
  H11      1.0000 0.41240  0.59380  0.20620  Biso   1.000  H
  H12      1.0000 0.58760  0.09380  0.29380  Biso   1.000  H
  H13      1.0000 0.97600  0.59420  0.85260  Biso   1.000  H
  H14      1.0000 0.02400  0.09420  0.64740  Biso   1.000  H
  H15      1.0000 0.02400  0.40580  0.14740  Biso   1.000  H
  H16      1.0000 0.97600  0.90580  0.35260  Biso   1.000  H
  H17      1.0000 0.91470  0.84950  0.95250  Biso   1.000  H
  H18      1.0000 0.08530  0.34950  0.54750  Biso   1.000  H
  H19      1.0000 0.08530  0.15050  0.04750  Biso   1.000  H
  H20      1.0000 0.91470  0.65050  0.45250  Biso   1.000  H
