data_image0
_cell_length_a       14.506
_cell_length_b       9.89
_cell_length_c       13.007
_cell_angle_alpha    90
_cell_angle_beta     90
_cell_angle_gamma    90

_symmetry_space_group_name_H-M    "P 1"
_symmetry_int_tables_number       1

loop_
  _symmetry_equiv_pos_as_xyz
  'x, y, z'

loop_
  _atom_site_label
  _atom_site_occupancy
  _atom_site_fract_x
  _atom_site_fract_y
  _atom_site_fract_z
  _atom_site_thermal_displace_type
  _atom_site_B_iso_or_equiv
  _atom_site_type_symbol
  Cu1      1.0000 0.05837  0.31792  0.95907  Biso   1.000  Cu
  Cu2      1.0000 0.94163  0.68208  0.45907  Biso   1.000  Cu
  Cu3      1.0000 0.55837  0.18208  0.95907  Biso   1.000  Cu
  Cu4      1.0000 0.44163  0.81792  0.45907  Biso   1.000  Cu
  Mg1      1.0000 0.23134  0.80247  0.97773  Biso   1.000  Mg
  Mg2      1.0000 0.76866  0.19753  0.47773  Biso   1.000  Mg
  Mg3      1.0000 0.73134  0.69753  0.97773  Biso   1.000  Mg
  Mg4      1.0000 0.26866  0.30247  0.47773  Biso   1.000  Mg
  O1       1.0000 0.99330  0.51990  0.96890  Biso   1.000  O
  O2       1.0000 0.00670  0.48010  0.46890  Biso   1.000  O
  O3       1.0000 0.49330  0.98010  0.96890  Biso   1.000  O
  O4       1.0000 0.50670  0.01990  0.46890  Biso   1.000  O
  O5       1.0000 0.85860  0.62020  0.94610  Biso   1.000  O
  O6       1.0000 0.14140  0.37980  0.44610  Biso   1.000  O
  O7       1.0000 0.35860  0.87980  0.94610  Biso   1.000  O
  O8       1.0000 0.64140  0.12020  0.44610  Biso   1.000  O
  O9       1.0000 0.07330  0.32360  0.80760  Biso   1.000  O
  O10      1.0000 0.92670  0.67640  0.30760  Biso   1.000  O
  O11      1.0000 0.57330  0.17640  0.80760  Biso   1.000  O
  O12      1.0000 0.42670  0.82360  0.30760  Biso   1.000  O
  O13      1.0000 0.02420  0.21040  0.67120  Biso   1.000  O
  O14      1.0000 0.97580  0.78960  0.17120  Biso   1.000  O
  O15      1.0000 0.52420  0.28960  0.67120  Biso   1.000  O
  O16      1.0000 0.47580  0.71040  0.17120  Biso   1.000  O
  O17      1.0000 0.11470  0.10200  0.95090  Biso   1.000  O
  O18      1.0000 0.88530  0.89800  0.45090  Biso   1.000  O
  O19      1.0000 0.61470  0.39800  0.95090  Biso   1.000  O
  O20      1.0000 0.38530  0.60200  0.45090  Biso   1.000  O
  O21      1.0000 0.18710  0.96850  0.06260  Biso   1.000  O
  O22      1.0000 0.81290  0.03150  0.56260  Biso   1.000  O
  O23      1.0000 0.68710  0.53150  0.06260  Biso   1.000  O
  O24      1.0000 0.31290  0.46850  0.56260  Biso   1.000  O
  O25      1.0000 0.17050  0.40000  0.02340  Biso   1.000  O
  O26      1.0000 0.82950  0.60000  0.52340  Biso   1.000  O
  O27      1.0000 0.67050  0.10000  0.02340  Biso   1.000  O
  O28      1.0000 0.32950  0.90000  0.52340  Biso   1.000  O
  O29      1.0000 0.21640  0.47960  0.17530  Biso   1.000  O
  O30      1.0000 0.78360  0.52040  0.67530  Biso   1.000  O
  O31      1.0000 0.71640  0.02040  0.17530  Biso   1.000  O
  O32      1.0000 0.28360  0.97960  0.67530  Biso   1.000  O
  N1       1.0000 0.92650  0.26340  0.92380  Biso   1.000  N
  N2       1.0000 0.07350  0.73660  0.42380  Biso   1.000  N
  N3       1.0000 0.42650  0.23660  0.92380  Biso   1.000  N
  N4       1.0000 0.57350  0.76340  0.42380  Biso   1.000  N
  N5       1.0000 0.03460  0.25620  0.10560  Biso   1.000  N
  N6       1.0000 0.96540  0.74380  0.60560  Biso   1.000  N
  N7       1.0000 0.53460  0.24380  0.10560  Biso   1.000  N
  N8       1.0000 0.46540  0.75620  0.60560  Biso   1.000  N
  C1       1.0000 0.89910  0.17550  0.01160  Biso   1.000  C
  C2       1.0000 0.10090  0.82450  0.51160  Biso   1.000  C
  C3       1.0000 0.39910  0.32450  0.01160  Biso   1.000  C
  C4       1.0000 0.60090  0.67550  0.51160  Biso   1.000  C
  C5       1.0000 0.93270  0.23830  0.11100  Biso   1.000  C
  C6       1.0000 0.06730  0.76170  0.61100  Biso   1.000  C
  C7       1.0000 0.43270  0.26170  0.11100  Biso   1.000  C
  C8       1.0000 0.56730  0.73830  0.61100  Biso   1.000  C
  C9       1.0000 0.86650  0.38470  0.91320  Biso   1.000  C
  C10      1.0000 0.13350  0.61530  0.41320  Biso   1.000  C
  C11      1.0000 0.36650  0.11530  0.91320  Biso   1.000  C
  C12      1.0000 0.63350  0.88470  0.41320  Biso   1.000  C
  H1       1.0000 0.85950  0.40910  0.84250  Biso   1.000  H
  H2       1.0000 0.14050  0.59090  0.34250  Biso   1.000  H
  H3       1.0000 0.35950  0.09090  0.84250  Biso   1.000  H
  H4       1.0000 0.64050  0.90910  0.34250  Biso   1.000  H
  C13      1.0000 0.90980  0.51880  0.94670  Biso   1.000  C
  C14      1.0000 0.09020  0.48120  0.44670  Biso   1.000  C
  C15      1.0000 0.40980  0.98120  0.94670  Biso   1.000  C
  C16      1.0000 0.59020  0.01880  0.44670  Biso   1.000  C
  C17      1.0000 0.93630  0.19020  0.82490  Biso   1.000  C
  C18      1.0000 0.06370  0.80980  0.32490  Biso   1.000  C
  C19      1.0000 0.43630  0.30980  0.82490  Biso   1.000  C
  C20      1.0000 0.56370  0.69020  0.32490  Biso   1.000  C
  C21      1.0000 0.01720  0.24590  0.76220  Biso   1.000  C
  C22      1.0000 0.98280  0.75410  0.26220  Biso   1.000  C
  C23      1.0000 0.51720  0.25410  0.76220  Biso   1.000  C
  C24      1.0000 0.48280  0.74590  0.26220  Biso   1.000  C
  C25      1.0000 0.08470  0.12940  0.13000  Biso   1.000  C
  C26      1.0000 0.91530  0.87060  0.63000  Biso   1.000  C
  C27      1.0000 0.58470  0.37060  0.13000  Biso   1.000  C
  C28      1.0000 0.41530  0.62940  0.63000  Biso   1.000  C
  C29      1.0000 0.13250  0.06310  0.03970  Biso   1.000  C
  C30      1.0000 0.86750  0.93690  0.53970  Biso   1.000  C
  C31      1.0000 0.63250  0.43690  0.03970  Biso   1.000  C
  C32      1.0000 0.36750  0.56310  0.53970  Biso   1.000  C
  C33      1.0000 0.07060  0.36970  0.16790  Biso   1.000  C
  C34      1.0000 0.92940  0.63030  0.66790  Biso   1.000  C
  C35      1.0000 0.57060  0.13030  0.16790  Biso   1.000  C
  C36      1.0000 0.42940  0.86970  0.66790  Biso   1.000  C
  C37      1.0000 0.16020  0.42010  0.12010  Biso   1.000  C
  C38      1.0000 0.83980  0.57990  0.62010  Biso   1.000  C
  C39      1.0000 0.66020  0.07990  0.12010  Biso   1.000  C
  C40      1.0000 0.33980  0.92010  0.62010  Biso   1.000  C
  O33      1.0000 0.10300  0.72860  0.02050  Biso   1.000  O
  O34      1.0000 0.89700  0.27140  0.52050  Biso   1.000  O
  O35      1.0000 0.60300  0.77140  0.02050  Biso   1.000  O
  O36      1.0000 0.39700  0.22860  0.52050  Biso   1.000  O
  O37      1.0000 0.17900  0.89000  0.84220  Biso   1.000  O
  O38      1.0000 0.82100  0.11000  0.34220  Biso   1.000  O
  O39      1.0000 0.67900  0.61000  0.84220  Biso   1.000  O
  O40      1.0000 0.32100  0.39000  0.34220  Biso   1.000  O
  O41      1.0000 0.25300  0.61980  0.90480  Biso   1.000  O
  O42      1.0000 0.74700  0.38020  0.40480  Biso   1.000  O
  O43      1.0000 0.75300  0.88020  0.90480  Biso   1.000  O
  O44      1.0000 0.24700  0.11980  0.40480  Biso   1.000  O
  O45      1.0000 0.29050  0.71970  0.10780  Biso   1.000  O
  O46      1.0000 0.70950  0.28030  0.60780  Biso   1.000  O
  O47      1.0000 0.79050  0.78030  0.10780  Biso   1.000  O
  O48      1.0000 0.20950  0.21970  0.60780  Biso   1.000  O
  O49      1.0000 0.80750  0.48610  0.22630  Biso   1.000  O
  O50      1.0000 0.19250  0.51390  0.72630  Biso   1.000  O
  O51      1.0000 0.30750  0.01390  0.22630  Biso   1.000  O
  O52      1.0000 0.69250  0.98610  0.72630  Biso   1.000  O
  H5       1.0000 0.76570  0.49420  0.18280  Biso   1.000  H
  H6       1.0000 0.23430  0.50580  0.68280  Biso   1.000  H
  H7       1.0000 0.26570  0.00580  0.18280  Biso   1.000  H
  H8       1.0000 0.73430  0.99420  0.68280  Biso   1.000  H
  O53      1.0000 0.96580  0.86210  0.87080  Biso   1.000  O
  O54      1.0000 0.03420  0.13790  0.37080  Biso   1.000  O
  O55      1.0000 0.46580  0.63790  0.87080  Biso   1.000  O
  O56      1.0000 0.53420  0.36210  0.37080  Biso   1.000  O
  H9       1.0000 0.83960  0.15880  0.02010  Biso   1.000  H
  H10      1.0000 0.16040  0.84120  0.52010  Biso   1.000  H
  H11      1.0000 0.33960  0.34120  0.02010  Biso   1.000  H
  H12      1.0000 0.66040  0.65880  0.52010  Biso   1.000  H
  H13      1.0000 0.92870  0.08320  0.00870  Biso   1.000  H
  H14      1.0000 0.07130  0.91680  0.50870  Biso   1.000  H
  H15      1.0000 0.42870  0.41680  0.00870  Biso   1.000  H
  H16      1.0000 0.57130  0.58320  0.50870  Biso   1.000  H
  H17      1.0000 0.92460  0.19180  0.16410  Biso   1.000  H
  H18      1.0000 0.07540  0.80820  0.66410  Biso   1.000  H
  H19      1.0000 0.42460  0.30820  0.16410  Biso   1.000  H
  H20      1.0000 0.57540  0.69180  0.66410  Biso   1.000  H
  H21      1.0000 0.91310  0.32440  0.12110  Biso   1.000  H
  H22      1.0000 0.08690  0.67560  0.62110  Biso   1.000  H
  H23      1.0000 0.41310  0.17560  0.12110  Biso   1.000  H
  H24      1.0000 0.58690  0.82440  0.62110  Biso   1.000  H
  H25      1.0000 0.81970  0.37000  0.93700  Biso   1.000  H
  H26      1.0000 0.18030  0.63000  0.43700  Biso   1.000  H
  H27      1.0000 0.31970  0.13000  0.93700  Biso   1.000  H
  H28      1.0000 0.68030  0.87000  0.43700  Biso   1.000  H
  H29      1.0000 0.95080  0.09740  0.83590  Biso   1.000  H
  H30      1.0000 0.04920  0.90260  0.33590  Biso   1.000  H
  H31      1.0000 0.45080  0.40260  0.83590  Biso   1.000  H
  H32      1.0000 0.54920  0.59740  0.33590  Biso   1.000  H
  H33      1.0000 0.88300  0.19670  0.78020  Biso   1.000  H
  H34      1.0000 0.11700  0.80330  0.28020  Biso   1.000  H
  H35      1.0000 0.38300  0.30330  0.78020  Biso   1.000  H
  H36      1.0000 0.61700  0.69670  0.28020  Biso   1.000  H
  H37      1.0000 0.13000  0.14020  0.18600  Biso   1.000  H
  H38      1.0000 0.87000  0.85980  0.68600  Biso   1.000  H
  H39      1.0000 0.63000  0.35980  0.18600  Biso   1.000  H
  H40      1.0000 0.37000  0.64020  0.68600  Biso   1.000  H
  H41      1.0000 0.05690  0.06350  0.16080  Biso   1.000  H
  H42      1.0000 0.94310  0.93650  0.66080  Biso   1.000  H
  H43      1.0000 0.55690  0.43650  0.16080  Biso   1.000  H
  H44      1.0000 0.44310  0.56350  0.66080  Biso   1.000  H
  H45      1.0000 0.08010  0.35210  0.23760  Biso   1.000  H
  H46      1.0000 0.91990  0.64790  0.73760  Biso   1.000  H
  H47      1.0000 0.58010  0.14790  0.23760  Biso   1.000  H
  H48      1.0000 0.41990  0.85210  0.73760  Biso   1.000  H
  H49      1.0000 0.01840  0.44230  0.17350  Biso   1.000  H
  H50      1.0000 0.98160  0.55770  0.67350  Biso   1.000  H
  H51      1.0000 0.51840  0.05770  0.17350  Biso   1.000  H
  H52      1.0000 0.48160  0.94230  0.67350  Biso   1.000  H
  H53      1.0000 0.07690  0.76600  0.06360  Biso   1.000  H
  H54      1.0000 0.92310  0.23400  0.56360  Biso   1.000  H
  H55      1.0000 0.57690  0.73400  0.06360  Biso   1.000  H
  H56      1.0000 0.42310  0.26600  0.56360  Biso   1.000  H
  H57      1.0000 0.08420  0.66940  0.99900  Biso   1.000  H
  H58      1.0000 0.91580  0.33060  0.49900  Biso   1.000  H
  H59      1.0000 0.58420  0.83060  0.99900  Biso   1.000  H
  H60      1.0000 0.41580  0.16940  0.49900  Biso   1.000  H
  H61      1.0000 0.20880  0.91570  0.80220  Biso   1.000  H
  H62      1.0000 0.79120  0.08430  0.30220  Biso   1.000  H
  H63      1.0000 0.70880  0.58430  0.80220  Biso   1.000  H
  H64      1.0000 0.29120  0.41570  0.30220  Biso   1.000  H
  H65      1.0000 0.15170  0.93680  0.86300  Biso   1.000  H
  H66      1.0000 0.84830  0.06320  0.36300  Biso   1.000  H
  H67      1.0000 0.65170  0.56320  0.86300  Biso   1.000  H
  H68      1.0000 0.34830  0.43680  0.36300  Biso   1.000  H
  H69      1.0000 0.23710  0.54990  0.93910  Biso   1.000  H
  H70      1.0000 0.76290  0.45010  0.43910  Biso   1.000  H
  H71      1.0000 0.73710  0.95010  0.93910  Biso   1.000  H
  H72      1.0000 0.26290  0.04990  0.43910  Biso   1.000  H
  H73      1.0000 0.23260  0.59920  0.85300  Biso   1.000  H
  H74      1.0000 0.76740  0.40080  0.35300  Biso   1.000  H
  H75      1.0000 0.73260  0.90080  0.85300  Biso   1.000  H
  H76      1.0000 0.26740  0.09920  0.35300  Biso   1.000  H
  H77      1.0000 0.28070  0.64360  0.12320  Biso   1.000  H
  H78      1.0000 0.71930  0.35640  0.62320  Biso   1.000  H
  H79      1.0000 0.78070  0.85640  0.12320  Biso   1.000  H
  H80      1.0000 0.21930  0.14360  0.62320  Biso   1.000  H
  H81      1.0000 0.33830  0.71800  0.12400  Biso   1.000  H
  H82      1.0000 0.66170  0.28200  0.62400  Biso   1.000  H
  H83      1.0000 0.83830  0.78200  0.12400  Biso   1.000  H
  H84      1.0000 0.16170  0.21800  0.62400  Biso   1.000  H
  H85      1.0000 0.82110  0.55750  0.24440  Biso   1.000  H
  H86      1.0000 0.17890  0.44250  0.74440  Biso   1.000  H
  H87      1.0000 0.32110  0.94250  0.24440  Biso   1.000  H
  H88      1.0000 0.67890  0.05750  0.74440  Biso   1.000  H
  H89      1.0000 0.94480  0.77980  0.90830  Biso   1.000  H
  H90      1.0000 0.05520  0.22020  0.40830  Biso   1.000  H
  H91      1.0000 0.44480  0.72020  0.90830  Biso   1.000  H
  H92      1.0000 0.55520  0.27980  0.40830  Biso   1.000  H
